MODEL 1
REMARK VINA RESULT:     -14.2      0.000      0.000
REMARK  Name = 
REMARK  6 active torsions:
REMARK  status: ('A' for Active; 'I' for Inactive)
REMARK    1  A    between atoms: O_2  and  C_3
REMARK    2  A    between atoms: C_3  and  C_5
REMARK    3  A    between atoms: C_18  and  N_29
REMARK    4  A    between atoms: C_20  and  C_22
REMARK    5  A    between atoms: N_29  and  C_30
REMARK    6  A    between atoms: C_30  and  C_31
REMARK                            x       y       z     vdW  Elec       q    Type
REMARK                         _______ _______ _______ _____ _____    ______ ____
ROOT
ATOM      5  C   UNL     1      -4.000   3.022  25.271  0.00  0.00    +0.162 C 
ATOM      6  C   UNL     1      -3.462   3.647  25.277  0.00  0.00    +0.055 C 
ATOM      7  C   UNL     1      -2.669   3.510  25.094  0.00  0.00    -0.004 A 
ATOM      8  C   UNL     1      -2.414   2.749  24.906  0.00  0.00    +0.070 A 
ATOM      9  N   UNL     1      -1.605   2.783  24.751  0.00  0.00    -0.249 NA
ATOM     10  C   UNL     1      -1.358   3.565  24.843  0.00  0.00    +0.081 A 
ATOM     11  C   UNL     1      -2.017   4.015  25.056  0.00  0.00    +0.015 A 
ATOM     12  C   UNL     1      -1.938   4.825  25.186  0.00  0.00    +0.001 A 
ATOM     13  C   UNL     1      -1.200   5.186  25.104  0.00  0.00    +0.000 A 
ATOM     14  C   UNL     1      -0.541   4.735  24.892  0.00  0.00    +0.002 A 
ATOM     15  C   UNL     1      -0.621   3.925  24.761  0.00  0.00    +0.019 A 
ATOM     16  C   UNL     1      -2.952   2.123  24.900  0.00  0.00    +0.100 C 
ATOM     17  C   UNL     1      -2.698   1.362  24.713  0.00  0.00    +0.040 C 
ATOM     18  C   UNL     1      -3.235   0.737  24.707  0.00  0.00    +0.077 C 
ATOM     19  C   UNL     1      -4.028   0.873  24.889  0.00  0.00    +0.038 C 
ATOM     20  C   UNL     1      -4.282   1.635  25.077  0.00  0.00    +0.084 C 
ATOM     21  N   UNL     1      -3.745   2.260  25.083  0.00  0.00    -0.258 NA
ENDROOT
BRANCH  20  22
ATOM     22  C   UNL     1      -5.076   1.770  25.259  0.00  0.00    +0.020 A 
ATOM     23  C   UNL     1      -5.638   1.802  24.658  0.00  0.00    +0.137 A 
ATOM     24  F   UNL     1      -5.409   1.699  23.872  0.00  0.00    -0.204 F 
ATOM     25  C   UNL     1      -6.431   1.938  24.841  0.00  0.00    +0.029 A 
ATOM     26  C   UNL     1      -6.661   2.041  25.627  0.00  0.00    +0.002 A 
ATOM     27  C   UNL     1      -6.099   2.009  26.229  0.00  0.00    -0.000 A 
ATOM     28  C   UNL     1      -5.306   1.874  26.045  0.00  0.00    -0.001 A 
ENDBRANCH  20  22
BRANCH   5   3
ATOM      3  C   UNL     1      -4.793   3.158  25.453  0.00  0.00    +0.332 C 
ATOM      4  O   UNL     1      -5.523   3.002  25.804  0.00  0.00    -0.249 OA
BRANCH   3   2
ATOM      1  C   UNL     1      -5.331   4.467  25.644  0.00  0.00    +0.256 C 
ATOM      2  O   UNL     1      -5.177   3.823  25.153  0.00  0.00    -0.443 OA
ENDBRANCH   3   2
ENDBRANCH   5   3
BRANCH  18  29
ATOM     29  N   UNL     1      -2.980  -0.025  24.519  0.00  0.00    -0.215 NA
BRANCH  29  30
ATOM     30  C   UNL     1      -2.956  -0.608  25.102  0.00  0.00    +0.115 C 
BRANCH  30  31
ATOM     31  C   UNL     1      -2.838  -1.398  24.893  0.00  0.00    -0.005 A 
ATOM     32  C   UNL     1      -2.080  -1.668  24.714  0.00  0.00    -0.003 A 
ATOM     33  C   UNL     1      -1.963  -2.457  24.504  0.00  0.00    -0.000 A 
ATOM     34  C   UNL     1      -2.604  -2.976  24.473  0.00  0.00    -0.000 A 
ATOM     35  C   UNL     1      -3.363  -2.705  24.652  0.00  0.00    -0.000 A 
ATOM     36  C   UNL     1      -3.480  -1.915  24.862  0.00  0.00    -0.003 A 
ENDBRANCH  30  31
ENDBRANCH  29  30
ENDBRANCH  18  29
TORSDOF 6
ENDMDL
MODEL 2
REMARK VINA RESULT:     -13.5      1.571      3.456
REMARK  Name = 
REMARK  6 active torsions:
REMARK  status: ('A' for Active; 'I' for Inactive)
REMARK    1  A    between atoms: O_2  and  C_3
REMARK    2  A    between atoms: C_3  and  C_5
REMARK    3  A    between atoms: C_18  and  N_29
REMARK    4  A    between atoms: C_20  and  C_22
REMARK    5  A    between atoms: N_29  and  C_30
REMARK    6  A    between atoms: C_30  and  C_31
REMARK                            x       y       z     vdW  Elec       q    Type
REMARK                         _______ _______ _______ _____ _____    ______ ____
ROOT
ATOM      5  C   UNL     1      -2.380   2.765  25.159  0.00  0.00    +0.162 C 
ATOM      6  C   UNL     1      -3.032   3.250  25.296  0.00  0.00    +0.055 C 
ATOM      7  C   UNL     1      -3.795   2.938  25.250  0.00  0.00    -0.004 A 
ATOM      8  C   UNL     1      -3.905   2.142  25.067  0.00  0.00    +0.070 A 
ATOM      9  N   UNL     1      -4.716   1.991  25.060  0.00  0.00    -0.249 NA
ATOM     10  C   UNL     1      -5.108   2.694  25.240  0.00  0.00    +0.081 A 
ATOM     11  C   UNL     1      -4.538   3.280  25.358  0.00  0.00    +0.015 A 
ATOM     12  C   UNL     1      -4.770   4.049  25.547  0.00  0.00    +0.001 A 
ATOM     13  C   UNL     1      -5.572   4.232  25.620  0.00  0.00    +0.000 A 
ATOM     14  C   UNL     1      -6.141   3.646  25.502  0.00  0.00    +0.002 A 
ATOM     15  C   UNL     1      -5.909   2.877  25.312  0.00  0.00    +0.019 A 
ATOM     16  C   UNL     1      -3.252   1.656  24.929  0.00  0.00    +0.100 C 
ATOM     17  C   UNL     1      -3.361   0.860  24.745  0.00  0.00    +0.040 C 
ATOM     18  C   UNL     1      -2.709   0.375  24.607  0.00  0.00    +0.077 C 
ATOM     19  C   UNL     1      -1.946   0.686  24.653  0.00  0.00    +0.038 C 
ATOM     20  C   UNL     1      -1.837   1.483  24.837  0.00  0.00    +0.084 C 
ATOM     21  N   UNL     1      -2.489   1.968  24.975  0.00  0.00    -0.258 NA
ENDROOT
BRANCH  20  22
ATOM     22  C   UNL     1      -1.074   1.794  24.883  0.00  0.00    +0.020 A 
ATOM     23  C   UNL     1      -0.651   1.953  24.193  0.00  0.00    +0.137 A 
ATOM     24  F   UNL     1      -0.990   1.802  23.457  0.00  0.00    -0.204 F 
ATOM     25  C   UNL     1       0.112   2.264  24.240  0.00  0.00    +0.029 A 
ATOM     26  C   UNL     1       0.451   2.415  24.977  0.00  0.00    +0.002 A 
ATOM     27  C   UNL     1       0.029   2.256  25.666  0.00  0.00    -0.000 A 
ATOM     28  C   UNL     1      -0.734   1.945  25.620  0.00  0.00    -0.001 A 
ENDBRANCH  20  22
BRANCH   5   3
ATOM      3  C   UNL     1      -1.617   3.076  25.205  0.00  0.00    +0.332 C 
ATOM      4  O   UNL     1      -0.820   3.090  25.418  0.00  0.00    -0.249 OA
BRANCH   3   2
ATOM      1  C   UNL     1      -1.410   4.484  25.334  0.00  0.00    +0.256 C 
ATOM      2  O   UNL     1      -1.449   3.808  24.863  0.00  0.00    -0.443 OA
ENDBRANCH   3   2
ENDBRANCH   5   3
BRANCH  18  29
ATOM     29  N   UNL     1      -2.818  -0.422  24.423  0.00  0.00    -0.215 NA
BRANCH  29  30
ATOM     30  C   UNL     1      -3.337  -0.881  24.871  0.00  0.00    +0.115 C 
BRANCH  30  31
ATOM     31  C   UNL     1      -3.510  -1.654  24.639  0.00  0.00    -0.005 A 
ATOM     32  C   UNL     1      -3.132  -2.288  25.007  0.00  0.00    -0.003 A 
ATOM     33  C   UNL     1      -3.305  -3.061  24.774  0.00  0.00    -0.000 A 
ATOM     34  C   UNL     1      -3.855  -3.199  24.175  0.00  0.00    -0.000 A 
ATOM     35  C   UNL     1      -4.232  -2.564  23.807  0.00  0.00    -0.000 A 
ATOM     36  C   UNL     1      -4.060  -1.791  24.039  0.00  0.00    -0.003 A 
ENDBRANCH  30  31
ENDBRANCH  29  30
ENDBRANCH  18  29
TORSDOF 6
ENDMDL
MODEL 3
REMARK VINA RESULT:     -12.8      2.132      4.559
REMARK  Name = 
REMARK  6 active torsions:
REMARK  status: ('A' for Active; 'I' for Inactive)
REMARK    1  A    between atoms: O_2  and  C_3
REMARK    2  A    between atoms: C_3  and  C_5
REMARK    3  A    between atoms: C_18  and  N_29
REMARK    4  A    between atoms: C_20  and  C_22
REMARK    5  A    between atoms: N_29  and  C_30
REMARK    6  A    between atoms: C_30  and  C_31
REMARK                            x       y       z     vdW  Elec       q    Type
REMARK                         _______ _______ _______ _____ _____    ______ ____
ROOT
ATOM      5  C   UNL     1      -2.016  -0.810  24.431  0.00  0.00    +0.162 C 
ATOM      6  C   UNL     1      -1.258  -0.517  24.294  0.00  0.00    +0.055 C 
ATOM      7  C   UNL     1      -1.112   0.293  24.349  0.00  0.00    -0.004 A 
ATOM      8  C   UNL     1      -1.725   0.811  24.541  0.00  0.00    +0.070 A 
ATOM      9  N   UNL     1      -1.418   1.576  24.555  0.00  0.00    -0.249 NA
ATOM     10  C   UNL     1      -0.615   1.533  24.372  0.00  0.00    +0.081 A 
ATOM     11  C   UNL     1      -0.426   0.739  24.245  0.00  0.00    +0.015 A 
ATOM     12  C   UNL     1       0.347   0.526  24.050  0.00  0.00    +0.001 A 
ATOM     13  C   UNL     1       0.931   1.105  23.983  0.00  0.00    +0.000 A 
ATOM     14  C   UNL     1       0.741   1.899  24.110  0.00  0.00    +0.002 A 
ATOM     15  C   UNL     1      -0.032   2.112  24.305  0.00  0.00    +0.019 A 
ATOM     16  C   UNL     1      -2.485   0.518  24.678  0.00  0.00    +0.100 C 
ATOM     17  C   UNL     1      -3.098   1.034  24.870  0.00  0.00    +0.040 C 
ATOM     18  C   UNL     1      -3.857   0.741  25.007  0.00  0.00    +0.077 C 
ATOM     19  C   UNL     1      -4.002  -0.069  24.952  0.00  0.00    +0.038 C 
ATOM     20  C   UNL     1      -3.388  -0.585  24.760  0.00  0.00    +0.084 C 
ATOM     21  N   UNL     1      -2.630  -0.293  24.623  0.00  0.00    -0.258 NA
ENDROOT
BRANCH  20  22
ATOM     22  C   UNL     1      -3.535  -1.396  24.706  0.00  0.00    +0.020 A 
ATOM     23  C   UNL     1      -3.910  -1.704  24.039  0.00  0.00    +0.137 A 
ATOM     24  F   UNL     1      -4.140  -1.202  23.426  0.00  0.00    -0.204 F 
ATOM     25  C   UNL     1      -4.056  -2.514  23.985  0.00  0.00    +0.029 A 
ATOM     26  C   UNL     1      -3.826  -3.016  24.599  0.00  0.00    +0.002 A 
ATOM     27  C   UNL     1      -3.450  -2.709  25.265  0.00  0.00    -0.000 A 
ATOM     28  C   UNL     1      -3.305  -1.899  25.319  0.00  0.00    -0.001 A 
ENDBRANCH  20  22
BRANCH   5   3
ATOM      3  C   UNL     1      -2.161  -1.620  24.376  0.00  0.00    +0.332 C 
ATOM      4  O   UNL     1      -2.592  -2.297  24.183  0.00  0.00    -0.249 OA
BRANCH   3   2
ATOM      1  C   UNL     1      -1.117  -2.560  24.120  0.00  0.00    +0.256 C 
ATOM      2  O   UNL     1      -1.602  -2.160  24.652  0.00  0.00    -0.443 OA
ENDBRANCH   3   2
ENDBRANCH   5   3
BRANCH  18  29
ATOM     29  N   UNL     1      -4.470   1.258  25.199  0.00  0.00    -0.215 NA
BRANCH  29  30
ATOM     30  C   UNL     1      -4.622   1.914  24.722  0.00  0.00    +0.115 C 
BRANCH  30  31
ATOM     31  C   UNL     1      -5.011   2.571  25.035  0.00  0.00    -0.005 A 
ATOM     32  C   UNL     1      -5.754   2.483  25.381  0.00  0.00    -0.003 A 
ATOM     33  C   UNL     1      -6.142   3.141  25.694  0.00  0.00    -0.000 A 
ATOM     34  C   UNL     1      -5.787   3.885  25.660  0.00  0.00    -0.000 A 
ATOM     35  C   UNL     1      -5.044   3.972  25.313  0.00  0.00    -0.000 A 
ATOM     36  C   UNL     1      -4.655   3.315  25.000  0.00  0.00    -0.003 A 
ENDBRANCH  30  31
ENDBRANCH  29  30
ENDBRANCH  18  29
TORSDOF 6
ENDMDL
MODEL 4
REMARK VINA RESULT:     -12.6      1.364      1.997
REMARK  Name = 
REMARK  6 active torsions:
REMARK  status: ('A' for Active; 'I' for Inactive)
REMARK    1  A    between atoms: O_2  and  C_3
REMARK    2  A    between atoms: C_3  and  C_5
REMARK    3  A    between atoms: C_18  and  N_29
REMARK    4  A    between atoms: C_20  and  C_22
REMARK    5  A    between atoms: N_29  and  C_30
REMARK    6  A    between atoms: C_30  and  C_31
REMARK                            x       y       z     vdW  Elec       q    Type
REMARK                         _______ _______ _______ _____ _____    ______ ____
ROOT
ATOM      5  C   UNL     1      -2.567   2.711  24.834  0.00  0.00    +0.162 C 
ATOM      6  C   UNL     1      -1.753   2.788  24.727  0.00  0.00    +0.055 C 
ATOM      7  C   UNL     1      -1.305   2.139  24.484  0.00  0.00    -0.004 A 
ATOM      8  C   UNL     1      -1.672   1.413  24.347  0.00  0.00    +0.070 A 
ATOM      9  N   UNL     1      -1.092   0.875  24.113  0.00  0.00    -0.249 NA
ATOM     10  C   UNL     1      -0.367   1.268  24.104  0.00  0.00    +0.081 A 
ATOM     11  C   UNL     1      -0.499   2.050  24.334  0.00  0.00    +0.015 A 
ATOM     12  C   UNL     1       0.133   2.579  24.377  0.00  0.00    +0.001 A 
ATOM     13  C   UNL     1       0.896   2.326  24.190  0.00  0.00    +0.000 A 
ATOM     14  C   UNL     1       1.027   1.544  23.961  0.00  0.00    +0.002 A 
ATOM     15  C   UNL     1       0.396   1.015  23.918  0.00  0.00    +0.019 A 
ATOM     16  C   UNL     1      -2.487   1.336  24.453  0.00  0.00    +0.100 C 
ATOM     17  C   UNL     1      -2.854   0.610  24.317  0.00  0.00    +0.040 C 
ATOM     18  C   UNL     1      -3.668   0.533  24.423  0.00  0.00    +0.077 C 
ATOM     19  C   UNL     1      -4.115   1.183  24.667  0.00  0.00    +0.038 C 
ATOM     20  C   UNL     1      -3.748   1.908  24.803  0.00  0.00    +0.084 C 
ATOM     21  N   UNL     1      -2.934   1.985  24.697  0.00  0.00    -0.258 NA
ENDROOT
BRANCH  20  22
ATOM     22  C   UNL     1      -4.196   2.557  25.047  0.00  0.00    +0.020 A 
ATOM     23  C   UNL     1      -4.652   2.973  24.500  0.00  0.00    +0.137 A 
ATOM     24  F   UNL     1      -4.660   2.741  23.708  0.00  0.00    -0.204 F 
ATOM     25  C   UNL     1      -5.100   3.621  24.744  0.00  0.00    +0.029 A 
ATOM     26  C   UNL     1      -5.091   3.854  25.536  0.00  0.00    +0.002 A 
ATOM     27  C   UNL     1      -4.636   3.438  26.083  0.00  0.00    -0.000 A 
ATOM     28  C   UNL     1      -4.188   2.790  25.839  0.00  0.00    -0.001 A 
ENDBRANCH  20  22
BRANCH   5   3
ATOM      3  C   UNL     1      -3.014   3.361  25.077  0.00  0.00    +0.332 C 
ATOM      4  O   UNL     1      -3.618   3.750  25.482  0.00  0.00    -0.249 OA
BRANCH   3   2
ATOM      1  C   UNL     1      -2.381   4.623  25.288  0.00  0.00    +0.256 C 
ATOM      2  O   UNL     1      -2.823   4.117  24.810  0.00  0.00    -0.443 OA
ENDBRANCH   3   2
ENDBRANCH   5   3
BRANCH  18  29
ATOM     29  N   UNL     1      -4.035  -0.193  24.286  0.00  0.00    -0.215 NA
BRANCH  29  30
ATOM     30  C   UNL     1      -3.973  -0.798  24.844  0.00  0.00    +0.115 C 
BRANCH  30  31
ATOM     31  C   UNL     1      -3.936  -1.585  24.596  0.00  0.00    -0.005 A 
ATOM     32  C   UNL     1      -4.345  -1.823  23.921  0.00  0.00    -0.003 A 
ATOM     33  C   UNL     1      -4.309  -2.609  23.673  0.00  0.00    -0.000 A 
ATOM     34  C   UNL     1      -3.863  -3.157  24.101  0.00  0.00    -0.000 A 
ATOM     35  C   UNL     1      -3.454  -2.917  24.776  0.00  0.00    -0.000 A 
ATOM     36  C   UNL     1      -3.490  -2.131  25.024  0.00  0.00    -0.003 A 
ENDBRANCH  30  31
ENDBRANCH  29  30
ENDBRANCH  18  29
TORSDOF 6
ENDMDL
MODEL 5
REMARK VINA RESULT:     -12.1      2.047      5.474
REMARK  Name = 
REMARK  6 active torsions:
REMARK  status: ('A' for Active; 'I' for Inactive)
REMARK    1  A    between atoms: O_2  and  C_3
REMARK    2  A    between atoms: C_3  and  C_5
REMARK    3  A    between atoms: C_18  and  N_29
REMARK    4  A    between atoms: C_20  and  C_22
REMARK    5  A    between atoms: N_29  and  C_30
REMARK    6  A    between atoms: C_30  and  C_31
REMARK                            x       y       z     vdW  Elec       q    Type
REMARK                         _______ _______ _______ _____ _____    ______ ____
ROOT
ATOM      5  C   UNL     1      -1.590   0.053  24.601  0.00  0.00    +0.162 C 
ATOM      6  C   UNL     1      -1.767  -0.749  24.528  0.00  0.00    +0.055 C 
ATOM      7  C   UNL     1      -2.553  -0.996  24.490  0.00  0.00    -0.004 A 
ATOM      8  C   UNL     1      -3.162  -0.442  24.525  0.00  0.00    +0.070 A 
ATOM      9  N   UNL     1      -3.879  -0.846  24.475  0.00  0.00    -0.249 NA
ATOM     10  C   UNL     1      -3.714  -1.652  24.409  0.00  0.00    +0.081 A 
ATOM     11  C   UNL     1      -2.893  -1.744  24.418  0.00  0.00    +0.015 A 
ATOM     12  C   UNL     1      -2.563  -2.498  24.359  0.00  0.00    +0.001 A 
ATOM     13  C   UNL     1      -3.052  -3.159  24.291  0.00  0.00    +0.000 A 
ATOM     14  C   UNL     1      -3.872  -3.066  24.282  0.00  0.00    +0.002 A 
ATOM     15  C   UNL     1      -4.203  -2.313  24.341  0.00  0.00    +0.019 A 
ATOM     16  C   UNL     1      -2.986   0.361  24.599  0.00  0.00    +0.100 C 
ATOM     17  C   UNL     1      -3.594   0.917  24.635  0.00  0.00    +0.040 C 
ATOM     18  C   UNL     1      -3.417   1.718  24.708  0.00  0.00    +0.077 C 
ATOM     19  C   UNL     1      -2.631   1.966  24.746  0.00  0.00    +0.038 C 
ATOM     20  C   UNL     1      -2.023   1.410  24.710  0.00  0.00    +0.084 C 
ATOM     21  N   UNL     1      -2.199   0.609  24.637  0.00  0.00    -0.258 NA
ENDROOT
BRANCH  20  22
ATOM     22  C   UNL     1      -1.236   1.659  24.748  0.00  0.00    +0.020 A 
ATOM     23  C   UNL     1      -0.877   1.996  24.087  0.00  0.00    +0.137 A 
ATOM     24  F   UNL     1      -1.303   2.086  23.387  0.00  0.00    -0.204 F 
ATOM     25  C   UNL     1      -0.091   2.244  24.126  0.00  0.00    +0.029 A 
ATOM     26  C   UNL     1       0.335   2.154  24.827  0.00  0.00    +0.002 A 
ATOM     27  C   UNL     1      -0.023   1.817  25.488  0.00  0.00    -0.000 A 
ATOM     28  C   UNL     1      -0.809   1.569  25.449  0.00  0.00    -0.001 A 
ENDBRANCH  20  22
BRANCH   5   3
ATOM      3  C   UNL     1      -0.804   0.300  24.639  0.00  0.00    +0.332 C 
ATOM      4  O   UNL     1      -0.162   0.732  24.928  0.00  0.00    -0.249 OA
BRANCH   3   2
ATOM      1  C   UNL     1       0.224  -0.649  24.350  0.00  0.00    +0.256 C 
ATOM      2  O   UNL     1      -0.246  -0.013  24.118  0.00  0.00    -0.443 OA
ENDBRANCH   3   2
ENDBRANCH   5   3
BRANCH  18  29
ATOM     29  N   UNL     1      -4.027   2.274  24.744  0.00  0.00    -0.215 NA
BRANCH  29  30
ATOM     30  C   UNL     1      -4.226   2.622  25.465  0.00  0.00    +0.115 C 
BRANCH  30  31
ATOM     31  C   UNL     1      -4.858   3.151  25.507  0.00  0.00    -0.005 A 
ATOM     32  C   UNL     1      -5.619   2.872  25.663  0.00  0.00    -0.003 A 
ATOM     33  C   UNL     1      -6.251   3.401  25.705  0.00  0.00    -0.000 A 
ATOM     34  C   UNL     1      -6.122   4.208  25.591  0.00  0.00    -0.000 A 
ATOM     35  C   UNL     1      -5.361   4.486  25.435  0.00  0.00    -0.000 A 
ATOM     36  C   UNL     1      -4.729   3.957  25.393  0.00  0.00    -0.003 A 
ENDBRANCH  30  31
ENDBRANCH  29  30
ENDBRANCH  18  29
TORSDOF 6
ENDMDL
MODEL 6
REMARK VINA RESULT:     -12.1      1.771      5.134
REMARK  Name = 
REMARK  6 active torsions:
REMARK  status: ('A' for Active; 'I' for Inactive)
REMARK    1  A    between atoms: O_2  and  C_3
REMARK    2  A    between atoms: C_3  and  C_5
REMARK    3  A    between atoms: C_18  and  N_29
REMARK    4  A    between atoms: C_20  and  C_22
REMARK    5  A    between atoms: N_29  and  C_30
REMARK    6  A    between atoms: C_30  and  C_31
REMARK                            x       y       z     vdW  Elec       q    Type
REMARK                         _______ _______ _______ _____ _____    ______ ____
ROOT
ATOM      5  C   UNL     1      -3.129  -0.009  25.007  0.00  0.00    +0.162 C 
ATOM      6  C   UNL     1      -3.946   0.102  25.025  0.00  0.00    +0.055 C 
ATOM      7  C   UNL     1      -4.259   0.865  24.990  0.00  0.00    -0.004 A 
ATOM      8  C   UNL     1      -3.756   1.516  24.936  0.00  0.00    +0.070 A 
ATOM      9  N   UNL     1      -4.221   2.196  24.910  0.00  0.00    -0.249 NA
ATOM     10  C   UNL     1      -5.013   1.967  24.947  0.00  0.00    +0.081 A 
ATOM     11  C   UNL     1      -5.036   1.143  24.997  0.00  0.00    +0.015 A 
ATOM     12  C   UNL     1      -5.762   0.753  25.042  0.00  0.00    +0.001 A 
ATOM     13  C   UNL     1      -6.464   1.187  25.038  0.00  0.00    +0.000 A 
ATOM     14  C   UNL     1      -6.440   2.011  24.989  0.00  0.00    +0.002 A 
ATOM     15  C   UNL     1      -5.715   2.400  24.943  0.00  0.00    +0.019 A 
ATOM     16  C   UNL     1      -2.939   1.405  24.917  0.00  0.00    +0.100 C 
ATOM     17  C   UNL     1      -2.434   2.055  24.863  0.00  0.00    +0.040 C 
ATOM     18  C   UNL     1      -1.618   1.944  24.844  0.00  0.00    +0.077 C 
ATOM     19  C   UNL     1      -1.304   1.182  24.880  0.00  0.00    +0.038 C 
ATOM     20  C   UNL     1      -1.809   0.531  24.934  0.00  0.00    +0.084 C 
ATOM     21  N   UNL     1      -2.625   0.642  24.953  0.00  0.00    -0.258 NA
ENDROOT
BRANCH  20  22
ATOM     22  C   UNL     1      -1.494  -0.231  24.970  0.00  0.00    +0.020 A 
ATOM     23  C   UNL     1      -1.167  -0.510  25.673  0.00  0.00    +0.137 A 
ATOM     24  F   UNL     1      -1.154  -0.029  26.342  0.00  0.00    -0.204 F 
ATOM     25  C   UNL     1      -0.853  -1.273  25.707  0.00  0.00    +0.029 A 
ATOM     26  C   UNL     1      -0.866  -1.755  25.038  0.00  0.00    +0.002 A 
ATOM     27  C   UNL     1      -1.194  -1.476  24.335  0.00  0.00    -0.000 A 
ATOM     28  C   UNL     1      -1.508  -0.714  24.300  0.00  0.00    -0.001 A 
ENDBRANCH  20  22
BRANCH   5   3
ATOM      3  C   UNL     1      -2.816  -0.771  25.042  0.00  0.00    +0.332 C 
ATOM      4  O   UNL     1      -2.294  -1.381  24.852  0.00  0.00    -0.249 OA
BRANCH   3   2
ATOM      1  C   UNL     1      -3.612  -1.946  25.208  0.00  0.00    +0.256 C 
ATOM      2  O   UNL     1      -3.161  -1.337  25.533  0.00  0.00    -0.443 OA
ENDBRANCH   3   2
ENDBRANCH   5   3
BRANCH  18  29
ATOM     29  N   UNL     1      -1.114   2.595  24.790  0.00  0.00    -0.215 NA
BRANCH  29  30
ATOM     30  C   UNL     1      -1.149   3.192  25.359  0.00  0.00    +0.115 C 
BRANCH  30  31
ATOM     31  C   UNL     1      -1.025   3.979  25.140  0.00  0.00    -0.005 A 
ATOM     32  C   UNL     1      -1.563   4.559  25.370  0.00  0.00    -0.003 A 
ATOM     33  C   UNL     1      -1.439   5.345  25.151  0.00  0.00    -0.000 A 
ATOM     34  C   UNL     1      -0.778   5.550  24.702  0.00  0.00    -0.000 A 
ATOM     35  C   UNL     1      -0.240   4.968  24.472  0.00  0.00    -0.000 A 
ATOM     36  C   UNL     1      -0.364   4.182  24.691  0.00  0.00    -0.003 A 
ENDBRANCH  30  31
ENDBRANCH  29  30
ENDBRANCH  18  29
TORSDOF 6
ENDMDL
MODEL 7
REMARK VINA RESULT:     -11.9      2.464      3.390
REMARK  Name = 
REMARK  6 active torsions:
REMARK  status: ('A' for Active; 'I' for Inactive)
REMARK    1  A    between atoms: O_2  and  C_3
REMARK    2  A    between atoms: C_3  and  C_5
REMARK    3  A    between atoms: C_18  and  N_29
REMARK    4  A    between atoms: C_20  and  C_22
REMARK    5  A    between atoms: N_29  and  C_30
REMARK    6  A    between atoms: C_30  and  C_31
REMARK                            x       y       z     vdW  Elec       q    Type
REMARK                         _______ _______ _______ _____ _____    ______ ____
ROOT
ATOM      5  C   UNL     1      -2.900   1.318  24.903  0.00  0.00    +0.162 C 
ATOM      6  C   UNL     1      -2.998   2.116  25.083  0.00  0.00    +0.055 C 
ATOM      7  C   UNL     1      -2.357   2.633  25.024  0.00  0.00    -0.004 A 
ATOM      8  C   UNL     1      -1.620   2.352  24.786  0.00  0.00    +0.070 A 
ATOM      9  N   UNL     1      -1.094   2.988  24.779  0.00  0.00    -0.249 NA
ATOM     10  C   UNL     1      -1.506   3.663  25.013  0.00  0.00    +0.081 A 
ATOM     11  C   UNL     1      -2.288   3.443  25.165  0.00  0.00    +0.015 A 
ATOM     12  C   UNL     1      -2.834   4.010  25.412  0.00  0.00    +0.001 A 
ATOM     13  C   UNL     1      -2.600   4.796  25.507  0.00  0.00    +0.000 A 
ATOM     14  C   UNL     1      -1.818   5.015  25.355  0.00  0.00    +0.002 A 
ATOM     15  C   UNL     1      -1.272   4.448  25.108  0.00  0.00    +0.019 A 
ATOM     16  C   UNL     1      -1.522   1.553  24.605  0.00  0.00    +0.100 C 
ATOM     17  C   UNL     1      -0.785   1.270  24.366  0.00  0.00    +0.040 C 
ATOM     18  C   UNL     1      -0.688   0.472  24.186  0.00  0.00    +0.077 C 
ATOM     19  C   UNL     1      -1.328  -0.045  24.245  0.00  0.00    +0.038 C 
ATOM     20  C   UNL     1      -2.065   0.237  24.483  0.00  0.00    +0.084 C 
ATOM     21  N   UNL     1      -2.162   1.036  24.664  0.00  0.00    -0.258 NA
ENDROOT
BRANCH  20  22
ATOM     22  C   UNL     1      -2.705  -0.281  24.542  0.00  0.00    +0.020 A 
ATOM     23  C   UNL     1      -2.769  -0.786  25.190  0.00  0.00    +0.137 A 
ATOM     24  F   UNL     1      -2.195  -0.775  25.781  0.00  0.00    -0.204 F 
ATOM     25  C   UNL     1      -3.409  -1.304  25.247  0.00  0.00    +0.029 A 
ATOM     26  C   UNL     1      -3.985  -1.316  24.656  0.00  0.00    +0.002 A 
ATOM     27  C   UNL     1      -3.920  -0.810  24.008  0.00  0.00    -0.000 A 
ATOM     28  C   UNL     1      -3.280  -0.293  23.950  0.00  0.00    -0.001 A 
ENDBRANCH  20  22
BRANCH   5   3
ATOM      3  C   UNL     1      -3.540   0.801  24.961  0.00  0.00    +0.332 C 
ATOM      4  O   UNL     1      -3.924   0.095  25.149  0.00  0.00    -0.249 OA
BRANCH   3   2
ATOM      1  C   UNL     1      -4.858   1.268  25.253  0.00  0.00    +0.256 C 
ATOM      2  O   UNL     1      -4.288   1.038  24.705  0.00  0.00    -0.443 OA
ENDBRANCH   3   2
ENDBRANCH   5   3
BRANCH  18  29
ATOM     29  N   UNL     1       0.050   0.190  23.947  0.00  0.00    -0.215 NA
BRANCH  29  30
ATOM     30  C   UNL     1       0.236   0.149  23.144  0.00  0.00    +0.115 C 
BRANCH  30  31
ATOM     31  C   UNL     1       1.025   0.114  22.905  0.00  0.00    -0.005 A 
ATOM     32  C   UNL     1       1.230  -0.303  22.223  0.00  0.00    -0.003 A 
ATOM     33  C   UNL     1       2.019  -0.338  21.984  0.00  0.00    -0.000 A 
ATOM     34  C   UNL     1       2.602   0.045  22.425  0.00  0.00    -0.000 A 
ATOM     35  C   UNL     1       2.396   0.462  23.107  0.00  0.00    -0.000 A 
ATOM     36  C   UNL     1       1.607   0.497  23.346  0.00  0.00    -0.003 A 
ENDBRANCH  30  31
ENDBRANCH  29  30
ENDBRANCH  18  29
TORSDOF 6
ENDMDL
MODEL 8
REMARK VINA RESULT:     -11.4      2.567      4.697
REMARK  Name = 
REMARK  6 active torsions:
REMARK  status: ('A' for Active; 'I' for Inactive)
REMARK    1  A    between atoms: O_2  and  C_3
REMARK    2  A    between atoms: C_3  and  C_5
REMARK    3  A    between atoms: C_18  and  N_29
REMARK    4  A    between atoms: C_20  and  C_22
REMARK    5  A    between atoms: N_29  and  C_30
REMARK    6  A    between atoms: C_30  and  C_31
REMARK                            x       y       z     vdW  Elec       q    Type
REMARK                         _______ _______ _______ _____ _____    ______ ____
ROOT
ATOM      5  C   UNL     1      -2.664   0.992  24.795  0.00  0.00    +0.162 C 
ATOM      6  C   UNL     1      -3.129   0.312  24.836  0.00  0.00    +0.055 C 
ATOM      7  C   UNL     1      -2.797  -0.425  24.670  0.00  0.00    -0.004 A 
ATOM      8  C   UNL     1      -2.000  -0.483  24.463  0.00  0.00    +0.070 A 
ATOM      9  N   UNL     1      -1.828  -1.278  24.331  0.00  0.00    -0.249 NA
ATOM     10  C   UNL     1      -2.517  -1.714  24.456  0.00  0.00    +0.081 A 
ATOM     11  C   UNL     1      -3.117  -1.186  24.665  0.00  0.00    +0.015 A 
ATOM     12  C   UNL     1      -3.876  -1.466  24.825  0.00  0.00    +0.001 A 
ATOM     13  C   UNL     1      -4.036  -2.275  24.775  0.00  0.00    +0.000 A 
ATOM     14  C   UNL     1      -3.436  -2.802  24.565  0.00  0.00    +0.002 A 
ATOM     15  C   UNL     1      -2.677  -2.521  24.405  0.00  0.00    +0.019 A 
ATOM     16  C   UNL     1      -1.535   0.198  24.422  0.00  0.00    +0.100 C 
ATOM     17  C   UNL     1      -0.739   0.142  24.216  0.00  0.00    +0.040 C 
ATOM     18  C   UNL     1      -0.274   0.821  24.175  0.00  0.00    +0.077 C 
ATOM     19  C   UNL     1      -0.605   1.558  24.341  0.00  0.00    +0.038 C 
ATOM     20  C   UNL     1      -1.402   1.614  24.547  0.00  0.00    +0.084 C 
ATOM     21  N   UNL     1      -1.867   0.935  24.588  0.00  0.00    -0.258 NA
ENDROOT
BRANCH  20  22
ATOM     22  C   UNL     1      -1.733   2.352  24.713  0.00  0.00    +0.020 A 
ATOM     23  C   UNL     1      -1.588   2.716  25.438  0.00  0.00    +0.137 A 
ATOM     24  F   UNL     1      -1.112   2.344  25.999  0.00  0.00    -0.204 F 
ATOM     25  C   UNL     1      -1.919   3.454  25.603  0.00  0.00    +0.029 A 
ATOM     26  C   UNL     1      -2.395   3.827  25.042  0.00  0.00    +0.002 A 
ATOM     27  C   UNL     1      -2.541   3.463  24.316  0.00  0.00    -0.000 A 
ATOM     28  C   UNL     1      -2.209   2.725  24.151  0.00  0.00    -0.001 A 
ENDBRANCH  20  22
BRANCH   5   3
ATOM      3  C   UNL     1      -2.995   1.729  24.960  0.00  0.00    +0.332 C 
ATOM      4  O   UNL     1      -3.017   2.492  25.273  0.00  0.00    -0.249 OA
BRANCH   3   2
ATOM      1  C   UNL     1      -4.389   1.883  25.232  0.00  0.00    +0.256 C 
ATOM      2  O   UNL     1      -3.758   1.906  24.702  0.00  0.00    -0.443 OA
ENDBRANCH   3   2
ENDBRANCH   5   3
BRANCH  18  29
ATOM     29  N   UNL     1       0.523   0.764  23.968  0.00  0.00    -0.215 NA
BRANCH  29  30
ATOM     30  C   UNL     1       0.736   0.595  23.189  0.00  0.00    +0.115 C 
BRANCH  30  31
ATOM     31  C   UNL     1       1.533   0.518  22.986  0.00  0.00    -0.005 A 
ATOM     32  C   UNL     1       2.088   1.045  23.294  0.00  0.00    -0.003 A 
ATOM     33  C   UNL     1       2.884   0.968  23.091  0.00  0.00    -0.000 A 
ATOM     34  C   UNL     1       3.124   0.365  22.582  0.00  0.00    -0.000 A 
ATOM     35  C   UNL     1       2.568  -0.162  22.275  0.00  0.00    -0.000 A 
ATOM     36  C   UNL     1       1.772  -0.085  22.478  0.00  0.00    -0.003 A 
ENDBRANCH  30  31
ENDBRANCH  29  30
ENDBRANCH  18  29
TORSDOF 6
ENDMDL
MODEL 9
REMARK VINA RESULT:     -11.3      2.520      4.979
REMARK  Name = 
REMARK  6 active torsions:
REMARK  status: ('A' for Active; 'I' for Inactive)
REMARK    1  A    between atoms: O_2  and  C_3
REMARK    2  A    between atoms: C_3  and  C_5
REMARK    3  A    between atoms: C_18  and  N_29
REMARK    4  A    between atoms: C_20  and  C_22
REMARK    5  A    between atoms: N_29  and  C_30
REMARK    6  A    between atoms: C_30  and  C_31
REMARK                            x       y       z     vdW  Elec       q    Type
REMARK                         _______ _______ _______ _____ _____    ______ ____
ROOT
ATOM      5  C   UNL     1      -1.308  -0.555  24.282  0.00  0.00    +0.162 C 
ATOM      6  C   UNL     1      -0.579  -0.735  23.942  0.00  0.00    +0.055 C 
ATOM      7  C   UNL     1      -0.055  -0.128  23.744  0.00  0.00    -0.004 A 
ATOM      8  C   UNL     1      -0.261   0.658  23.887  0.00  0.00    +0.070 A 
ATOM      9  N   UNL     1       0.364   1.134  23.636  0.00  0.00    -0.249 NA
ATOM     10  C   UNL     1       0.956   0.644  23.338  0.00  0.00    +0.081 A 
ATOM     11  C   UNL     1       0.696  -0.138  23.405  0.00  0.00    +0.015 A 
ATOM     12  C   UNL     1       1.179  -0.756  23.147  0.00  0.00    +0.001 A 
ATOM     13  C   UNL     1       1.920  -0.593  22.823  0.00  0.00    +0.000 A 
ATOM     14  C   UNL     1       2.179   0.188  22.757  0.00  0.00    +0.002 A 
ATOM     15  C   UNL     1       1.697   0.806  23.014  0.00  0.00    +0.019 A 
ATOM     16  C   UNL     1      -0.990   0.838  24.228  0.00  0.00    +0.100 C 
ATOM     17  C   UNL     1      -1.197   1.623  24.372  0.00  0.00    +0.040 C 
ATOM     18  C   UNL     1      -1.926   1.803  24.712  0.00  0.00    +0.077 C 
ATOM     19  C   UNL     1      -2.449   1.197  24.909  0.00  0.00    +0.038 C 
ATOM     20  C   UNL     1      -2.243   0.412  24.766  0.00  0.00    +0.084 C 
ATOM     21  N   UNL     1      -1.514   0.232  24.425  0.00  0.00    -0.258 NA
ENDROOT
BRANCH  20  22
ATOM     22  C   UNL     1      -2.768  -0.194  24.963  0.00  0.00    +0.020 A 
ATOM     23  C   UNL     1      -3.415  -0.354  24.479  0.00  0.00    +0.137 A 
ATOM     24  F   UNL     1      -3.540   0.091  23.796  0.00  0.00    -0.204 F 
ATOM     25  C   UNL     1      -3.939  -0.960  24.677  0.00  0.00    +0.029 A 
ATOM     26  C   UNL     1      -3.815  -1.406  25.361  0.00  0.00    +0.002 A 
ATOM     27  C   UNL     1      -3.168  -1.246  25.845  0.00  0.00    -0.000 A 
ATOM     28  C   UNL     1      -2.644  -0.640  25.647  0.00  0.00    -0.001 A 
ENDBRANCH  20  22
BRANCH   5   3
ATOM      3  C   UNL     1      -1.832  -1.161  24.479  0.00  0.00    +0.332 C 
ATOM      4  O   UNL     1      -2.569  -1.521  24.568  0.00  0.00    -0.249 OA
BRANCH   3   2
ATOM      1  C   UNL     1      -1.531  -2.544  24.291  0.00  0.00    +0.256 C 
ATOM      2  O   UNL     1      -1.545  -1.876  24.773  0.00  0.00    -0.443 OA
ENDBRANCH   3   2
ENDBRANCH   5   3
BRANCH  18  29
ATOM     29  N   UNL     1      -2.132   2.589  24.855  0.00  0.00    -0.215 NA
BRANCH  29  30
ATOM     30  C   UNL     1      -1.678   3.047  25.370  0.00  0.00    +0.115 C 
BRANCH  30  31
ATOM     31  C   UNL     1      -1.721   3.871  25.337  0.00  0.00    -0.005 A 
ATOM     32  C   UNL     1      -1.081   4.305  25.052  0.00  0.00    -0.003 A 
ATOM     33  C   UNL     1      -1.124   5.129  25.020  0.00  0.00    -0.000 A 
ATOM     34  C   UNL     1      -1.808   5.517  25.272  0.00  0.00    -0.000 A 
ATOM     35  C   UNL     1      -2.448   5.081  25.557  0.00  0.00    -0.000 A 
ATOM     36  C   UNL     1      -2.404   4.257  25.589  0.00  0.00    -0.003 A 
ENDBRANCH  30  31
ENDBRANCH  29  30
ENDBRANCH  18  29
TORSDOF 6
ENDMDL
