MODEL 1
REMARK VINA RESULT:     -11.7      0.000      0.000
REMARK  Name = 
REMARK  11 active torsions:
REMARK  status: ('A' for Active; 'I' for Inactive)
REMARK    1  A    between atoms: N_2  and  C_3
REMARK    2  A    between atoms: C_3  and  C_5
REMARK    3  A    between atoms: C_10  and  N_27
REMARK    4  A    between atoms: C_12  and  C_13
REMARK    5  A    between atoms: N_15  and  C_16
REMARK    6  A    between atoms: C_16  and  C_17
REMARK    7  A    between atoms: C_16  and  C_24
REMARK    8  A    between atoms: C_17  and  C_18
REMARK    9  A    between atoms: N_27  and  S_28
REMARK   10  A    between atoms: S_28  and  C_31
REMARK   11  A    between atoms: C_33  and  C_37
REMARK                            x       y       z     vdW  Elec       q    Type
REMARK                         _______ _______ _______ _____ _____    ______ ____
ROOT
ATOM      5  C   UNL     1       0.770   0.570  23.446  0.00  0.00    +0.242 C 
ATOM      6  O   UNL     1       0.701   1.390  23.514  0.00  0.00    -0.273 OA
ATOM      7  N   UNL     1       0.301   0.077  23.913  0.00  0.00    -0.272 N 
ATOM      8  C   UNL     1       0.369  -0.742  23.846  0.00  0.00    +0.095 C 
ATOM      9  C   UNL     1      -0.100  -1.234  24.312  0.00  0.00    +0.041 C 
ATOM     10  C   UNL     1      -0.638  -0.908  24.845  0.00  0.00    +0.102 C 
ATOM     11  C   UNL     1      -0.707  -0.088  24.912  0.00  0.00    +0.049 C 
ATOM     12  C   UNL     1      -0.238   0.404  24.447  0.00  0.00    +0.155 C 
ENDROOT
BRANCH  12  13
ATOM     13  C   UNL     1      -0.306   1.223  24.513  0.00  0.00    +0.260 C 
ATOM     14  O   UNL     1       0.328   1.707  24.301  0.00  0.00    -0.272 OA
ATOM     15  N   UNL     1      -1.006   1.559  24.792  0.00  0.00    -0.196 NA
BRANCH  15  16
ATOM     16  C   UNL     1      -1.073   2.377  24.859  0.00  0.00    +0.174 C 
BRANCH  16  24
ATOM     24  C   UNL     1      -0.759   2.766  25.515  0.00  0.00    +0.281 C 
ATOM     25  N   UNL     1      -0.359   3.482  25.420  0.00  0.00    -0.086 NA
ATOM     26  O   UNL     1      -0.845   2.439  26.268  0.00  0.00    -0.270 OA
ENDBRANCH  16  24
BRANCH  16  17
ATOM     17  C   UNL     1      -1.455   2.810  24.267  0.00  0.00    +0.031 C 
BRANCH  17  18
ATOM     18  C   UNL     1      -2.276   2.769  24.193  0.00  0.00    +0.002 C 
ATOM     19  C   UNL     1      -2.761   3.016  24.813  0.00  0.00    +0.000 C 
ATOM     20  C   UNL     1      -3.581   2.975  24.738  0.00  0.00    +0.000 C 
ATOM     21  C   UNL     1      -3.917   2.687  24.042  0.00  0.00    +0.000 C 
ATOM     22  C   UNL     1      -3.434   2.440  23.421  0.00  0.00    +0.000 C 
ATOM     23  C   UNL     1      -2.613   2.481  23.497  0.00  0.00    +0.000 C 
ENDBRANCH  17  18
ENDBRANCH  16  17
ENDBRANCH  15  16
ENDBRANCH  12  13
BRANCH   5   3
ATOM      3  C   UNL     1       1.308   0.243  22.913  0.00  0.00    +0.149 C 
ATOM      4  C   UNL     1       1.037  -0.106  22.216  0.00  0.00    +0.029 C 
BRANCH   3   2
ATOM      1  C   UNL     1       2.662   0.174  22.464  0.00  0.00    +0.108 C 
ATOM      2  N   UNL     1       2.116   0.265  23.076  0.00  0.00    -0.209 NA
ENDBRANCH   3   2
ENDBRANCH   5   3
BRANCH  10  27
ATOM     27  N   UNL     1      -1.108  -1.401  25.311  0.00  0.00    -0.079 NA
BRANCH  27  28
ATOM     28  S   UNL     1      -1.860  -1.618  25.053  0.00  0.00    +0.077 S 
ATOM     29  O   UNL     1      -2.198  -1.146  25.640  0.00  0.00    -0.152 OA
ATOM     30  O   UNL     1      -1.524  -2.091  24.467  0.00  0.00    -0.152 OA
BRANCH  28  31
ATOM     31  C   UNL     1      -2.614  -1.835  24.795  0.00  0.00    +0.123 A 
ATOM     32  C   UNL     1      -3.163  -1.254  24.593  0.00  0.00    +0.024 A 
ATOM     33  C   UNL     1      -3.917  -1.471  24.335  0.00  0.00    +0.073 A 
ATOM     34  C   UNL     1      -4.120  -2.269  24.280  0.00  0.00    +0.004 A 
ATOM     35  C   UNL     1      -3.569  -2.849  24.482  0.00  0.00    +0.001 A 
ATOM     36  C   UNL     1      -2.817  -2.633  24.740  0.00  0.00    +0.020 A 
BRANCH  33  37
ATOM     37  C   UNL     1      -4.466  -0.890  24.133  0.00  0.00    +0.419 C 
ATOM     38  F   UNL     1      -5.016  -0.309  23.930  0.00  0.00    -0.166 F 
ATOM     39  F   UNL     1      -4.265  -0.978  23.337  0.00  0.00    -0.166 F 
ATOM     40  F   UNL     1      -4.667  -0.803  24.928  0.00  0.00    -0.166 F 
ENDBRANCH  33  37
ENDBRANCH  28  31
ENDBRANCH  27  28
ENDBRANCH  10  27
TORSDOF 11
ENDMDL
MODEL 2
REMARK VINA RESULT:     -11.2      2.247      4.469
REMARK  Name = 
REMARK  11 active torsions:
REMARK  status: ('A' for Active; 'I' for Inactive)
REMARK    1  A    between atoms: N_2  and  C_3
REMARK    2  A    between atoms: C_3  and  C_5
REMARK    3  A    between atoms: C_10  and  N_27
REMARK    4  A    between atoms: C_12  and  C_13
REMARK    5  A    between atoms: N_15  and  C_16
REMARK    6  A    between atoms: C_16  and  C_17
REMARK    7  A    between atoms: C_16  and  C_24
REMARK    8  A    between atoms: C_17  and  C_18
REMARK    9  A    between atoms: N_27  and  S_28
REMARK   10  A    between atoms: S_28  and  C_31
REMARK   11  A    between atoms: C_33  and  C_37
REMARK                            x       y       z     vdW  Elec       q    Type
REMARK                         _______ _______ _______ _____ _____    ______ ____
ROOT
ATOM      5  C   UNL     1      -2.665  -1.365  24.781  0.00  0.00    +0.242 C 
ATOM      6  O   UNL     1      -1.842  -1.372  24.843  0.00  0.00    -0.273 OA
ATOM      7  N   UNL     1      -3.053  -0.681  24.530  0.00  0.00    -0.272 N 
ATOM      8  C   UNL     1      -3.876  -0.672  24.468  0.00  0.00    +0.095 C 
ATOM      9  C   UNL     1      -4.263   0.010  24.218  0.00  0.00    +0.041 C 
ATOM     10  C   UNL     1      -3.830   0.686  24.029  0.00  0.00    +0.102 C 
ATOM     11  C   UNL     1      -3.006   0.678  24.091  0.00  0.00    +0.049 C 
ATOM     12  C   UNL     1      -2.619  -0.005  24.341  0.00  0.00    +0.155 C 
ENDROOT
BRANCH  12  13
ATOM     13  C   UNL     1      -1.796  -0.014  24.404  0.00  0.00    +0.260 C 
ATOM     14  O   UNL     1      -1.412  -0.689  24.680  0.00  0.00    -0.272 OA
ATOM     15  N   UNL     1      -1.359   0.652  24.190  0.00  0.00    -0.196 NA
BRANCH  15  16
ATOM     16  C   UNL     1      -0.537   0.643  24.252  0.00  0.00    +0.174 C 
BRANCH  16  24
ATOM     24  C   UNL     1      -0.076   0.396  23.614  0.00  0.00    +0.281 C 
ATOM     25  N   UNL     1       0.552  -0.125  23.733  0.00  0.00    -0.086 NA
ATOM     26  O   UNL     1      -0.245   0.670  22.854  0.00  0.00    -0.270 OA
ENDBRANCH  16  24
BRANCH  16  17
ATOM     17  C   UNL     1      -0.173   0.880  24.955  0.00  0.00    +0.031 C 
BRANCH  17  18
ATOM     18  C   UNL     1      -0.175   1.677  25.171  0.00  0.00    +0.002 C 
ATOM     19  C   UNL     1      -0.088   2.262  24.595  0.00  0.00    +0.000 C 
ATOM     20  C   UNL     1      -0.089   3.057  24.811  0.00  0.00    +0.000 C 
ATOM     21  C   UNL     1      -0.178   3.269  25.603  0.00  0.00    +0.000 C 
ATOM     22  C   UNL     1      -0.266   2.686  26.180  0.00  0.00    +0.000 C 
ATOM     23  C   UNL     1      -0.264   1.889  25.963  0.00  0.00    +0.000 C 
ENDBRANCH  17  18
ENDBRANCH  16  17
ENDBRANCH  15  16
ENDBRANCH  12  13
BRANCH   5   3
ATOM      3  C   UNL     1      -3.100  -2.039  24.969  0.00  0.00    +0.149 C 
ATOM      4  C   UNL     1      -3.393  -2.141  25.735  0.00  0.00    +0.029 C 
BRANCH   3   2
ATOM      1  C   UNL     1      -3.443  -3.381  24.620  0.00  0.00    +0.108 C 
ATOM      2  N   UNL     1      -3.242  -2.614  24.394  0.00  0.00    -0.209 NA
ENDBRANCH   3   2
ENDBRANCH   5   3
BRANCH  10  27
ATOM     27  N   UNL     1      -4.218   1.369  23.778  0.00  0.00    -0.079 NA
BRANCH  27  28
ATOM     28  S   UNL     1      -4.376   1.974  24.316  0.00  0.00    +0.077 S 
ATOM     29  O   UNL     1      -3.850   2.468  23.916  0.00  0.00    -0.152 OA
ATOM     30  O   UNL     1      -4.902   1.481  24.717  0.00  0.00    -0.152 OA
BRANCH  28  31
ATOM     31  C   UNL     1      -4.534   2.580  24.854  0.00  0.00    +0.123 A 
ATOM     32  C   UNL     1      -3.917   3.041  25.148  0.00  0.00    +0.024 A 
ATOM     33  C   UNL     1      -4.075   3.647  25.686  0.00  0.00    +0.073 A 
ATOM     34  C   UNL     1      -4.850   3.791  25.930  0.00  0.00    +0.004 A 
ATOM     35  C   UNL     1      -5.467   3.328  25.635  0.00  0.00    +0.001 A 
ATOM     36  C   UNL     1      -5.309   2.723  25.098  0.00  0.00    +0.020 A 
BRANCH  33  37
ATOM     37  C   UNL     1      -3.458   4.109  25.979  0.00  0.00    +0.419 C 
ATOM     38  F   UNL     1      -2.840   4.571  26.272  0.00  0.00    -0.166 F 
ATOM     39  F   UNL     1      -3.454   4.548  25.280  0.00  0.00    -0.166 F 
ATOM     40  F   UNL     1      -3.461   3.670  26.678  0.00  0.00    -0.166 F 
ENDBRANCH  33  37
ENDBRANCH  28  31
ENDBRANCH  27  28
ENDBRANCH  10  27
TORSDOF 11
ENDMDL
MODEL 3
REMARK VINA RESULT:     -11.0      2.046      4.367
REMARK  Name = 
REMARK  11 active torsions:
REMARK  status: ('A' for Active; 'I' for Inactive)
REMARK    1  A    between atoms: N_2  and  C_3
REMARK    2  A    between atoms: C_3  and  C_5
REMARK    3  A    between atoms: C_10  and  N_27
REMARK    4  A    between atoms: C_12  and  C_13
REMARK    5  A    between atoms: N_15  and  C_16
REMARK    6  A    between atoms: C_16  and  C_17
REMARK    7  A    between atoms: C_16  and  C_24
REMARK    8  A    between atoms: C_17  and  C_18
REMARK    9  A    between atoms: N_27  and  S_28
REMARK   10  A    between atoms: S_28  and  C_31
REMARK   11  A    between atoms: C_33  and  C_37
REMARK                            x       y       z     vdW  Elec       q    Type
REMARK                         _______ _______ _______ _____ _____    ______ ____
ROOT
ATOM      5  C   UNL     1      -0.593   1.567  25.602  0.00  0.00    +0.242 C 
ATOM      6  O   UNL     1      -0.513   0.765  25.783  0.00  0.00    -0.273 OA
ATOM      7  N   UNL     1      -1.261   1.834  25.198  0.00  0.00    -0.272 N 
ATOM      8  C   UNL     1      -1.341   2.634  25.018  0.00  0.00    +0.095 C 
ATOM      9  C   UNL     1      -2.008   2.901  24.614  0.00  0.00    +0.041 C 
ATOM     10  C   UNL     1      -2.596   2.368  24.390  0.00  0.00    +0.102 C 
ATOM     11  C   UNL     1      -2.516   1.566  24.570  0.00  0.00    +0.049 C 
ATOM     12  C   UNL     1      -1.849   1.299  24.974  0.00  0.00    +0.155 C 
ENDROOT
BRANCH  12  13
ATOM     13  C   UNL     1      -1.768   0.498  25.155  0.00  0.00    +0.260 C 
ATOM     14  O   UNL     1      -1.490   0.270  25.897  0.00  0.00    -0.272 OA
ATOM     15  N   UNL     1      -1.966  -0.073  24.594  0.00  0.00    -0.196 NA
BRANCH  15  16
ATOM     16  C   UNL     1      -1.885  -0.874  24.775  0.00  0.00    +0.174 C 
BRANCH  16  24
ATOM     24  C   UNL     1      -1.206  -1.283  24.545  0.00  0.00    +0.281 C 
ATOM     25  N   UNL     1      -0.803  -1.754  25.089  0.00  0.00    -0.086 NA
ATOM     26  O   UNL     1      -0.931  -1.221  23.770  0.00  0.00    -0.270 OA
ENDBRANCH  16  24
BRANCH  16  17
ATOM     17  C   UNL     1      -2.483  -1.266  25.188  0.00  0.00    +0.031 C 
BRANCH  17  18
ATOM     18  C   UNL     1      -3.094  -1.637  24.774  0.00  0.00    +0.002 C 
ATOM     19  C   UNL     1      -3.689  -1.186  24.424  0.00  0.00    +0.000 C 
ATOM     20  C   UNL     1      -4.299  -1.556  24.011  0.00  0.00    +0.000 C 
ATOM     21  C   UNL     1      -4.314  -2.379  23.948  0.00  0.00    +0.000 C 
ATOM     22  C   UNL     1      -3.719  -2.830  24.297  0.00  0.00    +0.000 C 
ATOM     23  C   UNL     1      -3.109  -2.459  24.711  0.00  0.00    +0.000 C 
ENDBRANCH  17  18
ENDBRANCH  16  17
ENDBRANCH  15  16
ENDBRANCH  12  13
BRANCH   5   3
ATOM      3  C   UNL     1      -0.006   2.100  25.826  0.00  0.00    +0.149 C 
ATOM      4  C   UNL     1       0.574   2.328  25.283  0.00  0.00    +0.029 C 
BRANCH   3   2
ATOM      1  C   UNL     1       0.707   2.698  26.911  0.00  0.00    +0.108 C 
ATOM      2  N   UNL     1       0.004   2.407  26.592  0.00  0.00    -0.209 NA
ENDBRANCH   3   2
ENDBRANCH   5   3
BRANCH  10  27
ATOM     27  N   UNL     1      -3.264   2.635  23.986  0.00  0.00    -0.079 NA
BRANCH  27  28
ATOM     28  S   UNL     1      -3.959   2.795  24.399  0.00  0.00    +0.077 S 
ATOM     29  O   UNL     1      -3.593   3.438  24.766  0.00  0.00    -0.152 OA
ATOM     30  O   UNL     1      -4.326   2.153  24.033  0.00  0.00    -0.152 OA
BRANCH  28  31
ATOM     31  C   UNL     1      -4.655   2.956  24.813  0.00  0.00    +0.123 A 
ATOM     32  C   UNL     1      -5.128   2.336  25.080  0.00  0.00    +0.024 A 
ATOM     33  C   UNL     1      -5.824   2.497  25.494  0.00  0.00    +0.073 A 
ATOM     34  C   UNL     1      -6.046   3.278  25.641  0.00  0.00    +0.004 A 
ATOM     35  C   UNL     1      -5.571   3.898  25.374  0.00  0.00    +0.001 A 
ATOM     36  C   UNL     1      -4.876   3.737  24.960  0.00  0.00    +0.020 A 
BRANCH  33  37
ATOM     37  C   UNL     1      -6.298   1.876  25.760  0.00  0.00    +0.419 C 
ATOM     38  F   UNL     1      -6.771   1.255  26.028  0.00  0.00    -0.166 F 
ATOM     39  F   UNL     1      -5.951   1.933  26.507  0.00  0.00    -0.166 F 
ATOM     40  F   UNL     1      -6.644   1.819  25.014  0.00  0.00    -0.166 F 
ENDBRANCH  33  37
ENDBRANCH  28  31
ENDBRANCH  27  28
ENDBRANCH  10  27
TORSDOF 11
ENDMDL
MODEL 4
REMARK VINA RESULT:     -10.9      2.303      3.677
REMARK  Name = 
REMARK  11 active torsions:
REMARK  status: ('A' for Active; 'I' for Inactive)
REMARK    1  A    between atoms: N_2  and  C_3
REMARK    2  A    between atoms: C_3  and  C_5
REMARK    3  A    between atoms: C_10  and  N_27
REMARK    4  A    between atoms: C_12  and  C_13
REMARK    5  A    between atoms: N_15  and  C_16
REMARK    6  A    between atoms: C_16  and  C_17
REMARK    7  A    between atoms: C_16  and  C_24
REMARK    8  A    between atoms: C_17  and  C_18
REMARK    9  A    between atoms: N_27  and  S_28
REMARK   10  A    between atoms: S_28  and  C_31
REMARK   11  A    between atoms: C_33  and  C_37
REMARK                            x       y       z     vdW  Elec       q    Type
REMARK                         _______ _______ _______ _____ _____    ______ ____
ROOT
ATOM      5  C   UNL     1      -1.394  -0.464  25.220  0.00  0.00    +0.242 C 
ATOM      6  O   UNL     1      -0.757  -0.031  25.516  0.00  0.00    -0.273 OA
ATOM      7  N   UNL     1      -2.028  -0.073  24.864  0.00  0.00    -0.272 N 
ATOM      8  C   UNL     1      -2.665  -0.504  24.568  0.00  0.00    +0.095 C 
ATOM      9  C   UNL     1      -3.298  -0.114  24.213  0.00  0.00    +0.041 C 
ATOM     10  C   UNL     1      -3.295   0.708  24.153  0.00  0.00    +0.102 C 
ATOM     11  C   UNL     1      -2.657   1.141  24.450  0.00  0.00    +0.049 C 
ATOM     12  C   UNL     1      -2.024   0.751  24.805  0.00  0.00    +0.155 C 
ENDROOT
BRANCH  12  13
ATOM     13  C   UNL     1      -1.387   1.182  25.101  0.00  0.00    +0.260 C 
ATOM     14  O   UNL     1      -0.985   0.916  25.771  0.00  0.00    -0.272 OA
ATOM     15  N   UNL     1      -1.151   1.879  24.728  0.00  0.00    -0.196 NA
BRANCH  15  16
ATOM     16  C   UNL     1      -0.514   2.310  25.025  0.00  0.00    +0.174 C 
BRANCH  16  24
ATOM     24  C   UNL     1       0.244   2.191  24.719  0.00  0.00    +0.281 C 
ATOM     25  N   UNL     1       0.360   2.155  23.903  0.00  0.00    -0.086 NA
ATOM     26  O   UNL     1       0.886   2.108  25.231  0.00  0.00    -0.270 OA
ENDBRANCH  16  24
BRANCH  16  17
ATOM     17  C   UNL     1      -0.633   2.861  25.628  0.00  0.00    +0.031 C 
BRANCH  17  18
ATOM     18  C   UNL     1      -0.932   3.609  25.450  0.00  0.00    +0.002 C 
ATOM     19  C   UNL     1      -0.517   4.110  24.941  0.00  0.00    +0.000 C 
ATOM     20  C   UNL     1      -0.816   4.857  24.764  0.00  0.00    +0.000 C 
ATOM     21  C   UNL     1      -1.530   5.105  25.094  0.00  0.00    +0.000 C 
ATOM     22  C   UNL     1      -1.945   4.606  25.603  0.00  0.00    +0.000 C 
ATOM     23  C   UNL     1      -1.646   3.857  25.781  0.00  0.00    +0.000 C 
ENDBRANCH  17  18
ENDBRANCH  16  17
ENDBRANCH  15  16
ENDBRANCH  12  13
BRANCH   5   3
ATOM      3  C   UNL     1      -1.398  -1.286  25.279  0.00  0.00    +0.149 C 
ATOM      4  C   UNL     1      -1.858  -1.656  25.856  0.00  0.00    +0.029 C 
BRANCH   3   2
ATOM      1  C   UNL     1      -0.687  -2.491  24.988  0.00  0.00    +0.108 C 
ATOM      2  N   UNL     1      -0.942  -1.740  24.762  0.00  0.00    -0.209 NA
ENDBRANCH   3   2
ENDBRANCH   5   3
BRANCH  10  27
ATOM     27  N   UNL     1      -3.929   1.099  23.798  0.00  0.00    -0.079 NA
BRANCH  27  28
ATOM     28  S   UNL     1      -4.490   1.483  24.264  0.00  0.00    +0.077 S 
ATOM     29  O   UNL     1      -4.237   2.211  23.969  0.00  0.00    -0.152 OA
ATOM     30  O   UNL     1      -4.744   0.756  24.559  0.00  0.00    -0.152 OA
BRANCH  28  31
ATOM     31  C   UNL     1      -5.052   1.868  24.730  0.00  0.00    +0.123 A 
ATOM     32  C   UNL     1      -4.893   2.620  25.029  0.00  0.00    +0.024 A 
ATOM     33  C   UNL     1      -5.455   3.005  25.496  0.00  0.00    +0.073 A 
ATOM     34  C   UNL     1      -6.174   2.638  25.663  0.00  0.00    +0.004 A 
ATOM     35  C   UNL     1      -6.332   1.885  25.363  0.00  0.00    +0.001 A 
ATOM     36  C   UNL     1      -5.771   1.501  24.897  0.00  0.00    +0.020 A 
BRANCH  33  37
ATOM     37  C   UNL     1      -5.296   3.757  25.795  0.00  0.00    +0.419 C 
ATOM     38  F   UNL     1      -5.138   4.510  26.094  0.00  0.00    -0.166 F 
ATOM     39  F   UNL     1      -5.781   4.090  25.216  0.00  0.00    -0.166 F 
ATOM     40  F   UNL     1      -4.812   3.426  26.374  0.00  0.00    -0.166 F 
ENDBRANCH  33  37
ENDBRANCH  28  31
ENDBRANCH  27  28
ENDBRANCH  10  27
TORSDOF 11
ENDMDL
MODEL 5
REMARK VINA RESULT:     -10.9      2.005      4.031
REMARK  Name = 
REMARK  11 active torsions:
REMARK  status: ('A' for Active; 'I' for Inactive)
REMARK    1  A    between atoms: N_2  and  C_3
REMARK    2  A    between atoms: C_3  and  C_5
REMARK    3  A    between atoms: C_10  and  N_27
REMARK    4  A    between atoms: C_12  and  C_13
REMARK    5  A    between atoms: N_15  and  C_16
REMARK    6  A    between atoms: C_16  and  C_17
REMARK    7  A    between atoms: C_16  and  C_24
REMARK    8  A    between atoms: C_17  and  C_18
REMARK    9  A    between atoms: N_27  and  S_28
REMARK   10  A    between atoms: S_28  and  C_31
REMARK   11  A    between atoms: C_33  and  C_37
REMARK                            x       y       z     vdW  Elec       q    Type
REMARK                         _______ _______ _______ _____ _____    ______ ____
ROOT
ATOM      5  C   UNL     1       0.173   0.007  23.550  0.00  0.00    +0.242 C 
ATOM      6  O   UNL     1      -0.348  -0.631  23.595  0.00  0.00    -0.273 OA
ATOM      7  N   UNL     1       0.119   0.623  24.096  0.00  0.00    -0.272 N 
ATOM      8  C   UNL     1       0.640   1.261  24.052  0.00  0.00    +0.095 C 
ATOM      9  C   UNL     1       0.586   1.877  24.597  0.00  0.00    +0.041 C 
ATOM     10  C   UNL     1       0.011   1.855  25.189  0.00  0.00    +0.102 C 
ATOM     11  C   UNL     1      -0.510   1.216  25.233  0.00  0.00    +0.049 C 
ATOM     12  C   UNL     1      -0.456   0.601  24.688  0.00  0.00    +0.155 C 
ENDROOT
BRANCH  12  13
ATOM     13  C   UNL     1      -0.977  -0.038  24.732  0.00  0.00    +0.260 C 
ATOM     14  O   UNL     1      -0.737  -0.783  24.472  0.00  0.00    -0.272 OA
ATOM     15  N   UNL     1      -1.736   0.069  25.036  0.00  0.00    -0.196 NA
BRANCH  15  16
ATOM     16  C   UNL     1      -2.256  -0.569  25.080  0.00  0.00    +0.174 C 
BRANCH  16  24
ATOM     24  C   UNL     1      -2.149  -1.150  25.657  0.00  0.00    +0.281 C 
ATOM     25  N   UNL     1      -2.221  -1.948  25.459  0.00  0.00    -0.086 NA
ATOM     26  O   UNL     1      -1.971  -0.932  26.432  0.00  0.00    -0.270 OA
ENDBRANCH  16  24
BRANCH  16  17
ATOM     17  C   UNL     1      -2.883  -0.628  24.546  0.00  0.00    +0.031 C 
BRANCH  17  18
ATOM     18  C   UNL     1      -3.515  -0.099  24.593  0.00  0.00    +0.002 C 
ATOM     19  C   UNL     1      -4.045  -0.142  25.224  0.00  0.00    +0.000 C 
ATOM     20  C   UNL     1      -4.676   0.386  25.270  0.00  0.00    +0.000 C 
ATOM     21  C   UNL     1      -4.777   0.959  24.685  0.00  0.00    +0.000 C 
ATOM     22  C   UNL     1      -4.248   1.003  24.054  0.00  0.00    +0.000 C 
ATOM     23  C   UNL     1      -3.617   0.473  24.008  0.00  0.00    +0.000 C 
ENDBRANCH  17  18
ENDBRANCH  16  17
ENDBRANCH  15  16
ENDBRANCH  12  13
BRANCH   5   3
ATOM      3  C   UNL     1       0.748   0.030  22.959  0.00  0.00    +0.149 C 
ATOM      4  C   UNL     1       0.548   0.280  22.198  0.00  0.00    +0.029 C 
BRANCH   3   2
ATOM      1  C   UNL     1       2.062  -0.310  22.513  0.00  0.00    +0.108 C 
ATOM      2  N   UNL     1       1.523  -0.197  23.128  0.00  0.00    -0.209 NA
ENDBRANCH   3   2
ENDBRANCH   5   3
BRANCH  10  27
ATOM     27  N   UNL     1      -0.043   2.471  25.735  0.00  0.00    -0.079 NA
BRANCH  27  28
ATOM     28  S   UNL     1      -0.598   3.071  25.625  0.00  0.00    +0.077 S 
ATOM     29  O   UNL     1      -0.206   3.308  24.939  0.00  0.00    -0.152 OA
ATOM     30  O   UNL     1      -0.990   2.835  26.312  0.00  0.00    -0.152 OA
BRANCH  28  31
ATOM     31  C   UNL     1      -1.153   3.672  25.516  0.00  0.00    +0.123 A 
ATOM     32  C   UNL     1      -1.939   3.551  25.734  0.00  0.00    +0.024 A 
ATOM     33  C   UNL     1      -2.494   4.152  25.624  0.00  0.00    +0.073 A 
ATOM     34  C   UNL     1      -2.262   4.873  25.296  0.00  0.00    +0.004 A 
ATOM     35  C   UNL     1      -1.476   4.993  25.079  0.00  0.00    +0.001 A 
ATOM     36  C   UNL     1      -0.921   4.393  25.188  0.00  0.00    +0.020 A 
BRANCH  33  37
ATOM     37  C   UNL     1      -3.281   4.032  25.842  0.00  0.00    +0.419 C 
ATOM     38  F   UNL     1      -4.067   3.911  26.061  0.00  0.00    -0.166 F 
ATOM     39  F   UNL     1      -3.096   4.238  26.619  0.00  0.00    -0.166 F 
ATOM     40  F   UNL     1      -3.465   3.825  25.065  0.00  0.00    -0.166 F 
ENDBRANCH  33  37
ENDBRANCH  28  31
ENDBRANCH  27  28
ENDBRANCH  10  27
TORSDOF 11
ENDMDL
MODEL 6
REMARK VINA RESULT:     -10.9      2.743      5.802
REMARK  Name = 
REMARK  11 active torsions:
REMARK  status: ('A' for Active; 'I' for Inactive)
REMARK    1  A    between atoms: N_2  and  C_3
REMARK    2  A    between atoms: C_3  and  C_5
REMARK    3  A    between atoms: C_10  and  N_27
REMARK    4  A    between atoms: C_12  and  C_13
REMARK    5  A    between atoms: N_15  and  C_16
REMARK    6  A    between atoms: C_16  and  C_17
REMARK    7  A    between atoms: C_16  and  C_24
REMARK    8  A    between atoms: C_17  and  C_18
REMARK    9  A    between atoms: N_27  and  S_28
REMARK   10  A    between atoms: S_28  and  C_31
REMARK   11  A    between atoms: C_33  and  C_37
REMARK                            x       y       z     vdW  Elec       q    Type
REMARK                         _______ _______ _______ _____ _____    ______ ____
ROOT
ATOM      5  C   UNL     1      -5.243   1.304  25.141  0.00  0.00    +0.242 C 
ATOM      6  O   UNL     1      -5.269   0.492  25.284  0.00  0.00    -0.273 OA
ATOM      7  N   UNL     1      -4.587   1.635  24.765  0.00  0.00    -0.272 N 
ATOM      8  C   UNL     1      -4.560   2.447  24.621  0.00  0.00    +0.095 C 
ATOM      9  C   UNL     1      -3.905   2.777  24.246  0.00  0.00    +0.041 C 
ATOM     10  C   UNL     1      -3.276   2.297  24.014  0.00  0.00    +0.102 C 
ATOM     11  C   UNL     1      -3.303   1.484  24.158  0.00  0.00    +0.049 C 
ATOM     12  C   UNL     1      -3.958   1.154  24.533  0.00  0.00    +0.155 C 
ENDROOT
BRANCH  12  13
ATOM     13  C   UNL     1      -3.985   0.342  24.677  0.00  0.00    +0.260 C 
ATOM     14  O   UNL     1      -4.600   0.024  25.126  0.00  0.00    -0.272 OA
ATOM     15  N   UNL     1      -3.399  -0.152  24.372  0.00  0.00    -0.196 NA
BRANCH  15  16
ATOM     16  C   UNL     1      -3.427  -0.963  24.516  0.00  0.00    +0.174 C 
BRANCH  16  24
ATOM     24  C   UNL     1      -3.836  -1.460  24.000  0.00  0.00    +0.281 C 
ATOM     25  N   UNL     1      -4.248  -2.113  24.294  0.00  0.00    -0.086 NA
ATOM     26  O   UNL     1      -3.833  -1.306  23.190  0.00  0.00    -0.270 OA
ENDBRANCH  16  24
BRANCH  16  17
ATOM     17  C   UNL     1      -3.046  -1.278  25.177  0.00  0.00    +0.031 C 
BRANCH  17  18
ATOM     18  C   UNL     1      -2.221  -1.313  25.200  0.00  0.00    +0.002 C 
ATOM     19  C   UNL     1      -1.813  -1.795  24.669  0.00  0.00    +0.000 C 
ATOM     20  C   UNL     1      -0.990  -1.829  24.692  0.00  0.00    +0.000 C 
ATOM     21  C   UNL     1      -0.573  -1.382  25.246  0.00  0.00    +0.000 C 
ATOM     22  C   UNL     1      -0.981  -0.900  25.777  0.00  0.00    +0.000 C 
ATOM     23  C   UNL     1      -1.805  -0.866  25.754  0.00  0.00    +0.000 C 
ENDBRANCH  17  18
ENDBRANCH  16  17
ENDBRANCH  15  16
ENDBRANCH  12  13
BRANCH   5   3
ATOM      3  C   UNL     1      -5.872   1.784  25.372  0.00  0.00    +0.149 C 
ATOM      4  C   UNL     1      -6.501   1.919  24.854  0.00  0.00    +0.029 C 
BRANCH   3   2
ATOM      1  C   UNL     1      -6.587   2.275  26.507  0.00  0.00    +0.108 C 
ATOM      2  N   UNL     1      -5.873   2.131  26.121  0.00  0.00    -0.209 NA
ENDBRANCH   3   2
ENDBRANCH   5   3
BRANCH  10  27
ATOM     27  N   UNL     1      -2.620   2.628  23.638  0.00  0.00    -0.079 NA
BRANCH  27  28
ATOM     28  S   UNL     1      -1.987   2.908  24.086  0.00  0.00    +0.077 S 
ATOM     29  O   UNL     1      -1.512   2.299  23.795  0.00  0.00    -0.152 OA
ATOM     30  O   UNL     1      -2.461   3.517  24.378  0.00  0.00    -0.152 OA
BRANCH  28  31
ATOM     31  C   UNL     1      -1.352   3.188  24.534  0.00  0.00    +0.123 A 
ATOM     32  C   UNL     1      -1.045   2.727  25.145  0.00  0.00    +0.024 A 
ATOM     33  C   UNL     1      -0.410   3.007  25.593  0.00  0.00    +0.073 A 
ATOM     34  C   UNL     1      -0.084   3.747  25.429  0.00  0.00    +0.004 A 
ATOM     35  C   UNL     1      -0.393   4.207  24.818  0.00  0.00    +0.001 A 
ATOM     36  C   UNL     1      -1.026   3.928  24.370  0.00  0.00    +0.020 A 
BRANCH  33  37
ATOM     37  C   UNL     1      -0.103   2.546  26.204  0.00  0.00    +0.419 C 
ATOM     38  F   UNL     1       0.204   2.085  26.816  0.00  0.00    -0.166 F 
ATOM     39  F   UNL     1      -0.721   2.786  26.696  0.00  0.00    -0.166 F 
ATOM     40  F   UNL     1       0.515   2.306  25.714  0.00  0.00    -0.166 F 
ENDBRANCH  33  37
ENDBRANCH  28  31
ENDBRANCH  27  28
ENDBRANCH  10  27
TORSDOF 11
ENDMDL
MODEL 7
REMARK VINA RESULT:     -10.5      1.393      2.030
REMARK  Name = 
REMARK  11 active torsions:
REMARK  status: ('A' for Active; 'I' for Inactive)
REMARK    1  A    between atoms: N_2  and  C_3
REMARK    2  A    between atoms: C_3  and  C_5
REMARK    3  A    between atoms: C_10  and  N_27
REMARK    4  A    between atoms: C_12  and  C_13
REMARK    5  A    between atoms: N_15  and  C_16
REMARK    6  A    between atoms: C_16  and  C_17
REMARK    7  A    between atoms: C_16  and  C_24
REMARK    8  A    between atoms: C_17  and  C_18
REMARK    9  A    between atoms: N_27  and  S_28
REMARK   10  A    between atoms: S_28  and  C_31
REMARK   11  A    between atoms: C_33  and  C_37
REMARK                            x       y       z     vdW  Elec       q    Type
REMARK                         _______ _______ _______ _____ _____    ______ ____
ROOT
ATOM      5  C   UNL     1      -0.608   1.894  24.523  0.00  0.00    +0.242 C 
ATOM      6  O   UNL     1      -1.040   2.549  24.266  0.00  0.00    -0.273 OA
ATOM      7  N   UNL     1      -0.990   1.276  24.914  0.00  0.00    -0.272 N 
ATOM      8  C   UNL     1      -0.559   0.622  25.172  0.00  0.00    +0.095 C 
ATOM      9  C   UNL     1      -0.940   0.004  25.562  0.00  0.00    +0.041 C 
ATOM     10  C   UNL     1      -1.753   0.040  25.696  0.00  0.00    +0.102 C 
ATOM     11  C   UNL     1      -2.185   0.695  25.438  0.00  0.00    +0.049 C 
ATOM     12  C   UNL     1      -1.804   1.312  25.048  0.00  0.00    +0.155 C 
ENDROOT
BRANCH  12  13
ATOM     13  C   UNL     1      -2.235   1.967  24.790  0.00  0.00    +0.260 C 
ATOM     14  O   UNL     1      -2.071   2.304  24.055  0.00  0.00    -0.272 OA
ATOM     15  N   UNL     1      -2.829   2.284  25.267  0.00  0.00    -0.196 NA
BRANCH  15  16
ATOM     16  C   UNL     1      -3.259   2.938  25.009  0.00  0.00    +0.174 C 
BRANCH  16  24
ATOM     24  C   UNL     1      -3.050   3.696  25.260  0.00  0.00    +0.281 C 
ATOM     25  N   UNL     1      -3.004   4.314  24.715  0.00  0.00    -0.086 NA
ATOM     26  O   UNL     1      -2.886   3.835  26.056  0.00  0.00    -0.270 OA
ENDBRANCH  16  24
BRANCH  16  17
ATOM     17  C   UNL     1      -3.900   2.835  24.498  0.00  0.00    +0.031 C 
BRANCH  17  18
ATOM     18  C   UNL     1      -4.625   2.576  24.795  0.00  0.00    +0.002 C 
ATOM     19  C   UNL     1      -5.036   3.036  25.344  0.00  0.00    +0.000 C 
ATOM     20  C   UNL     1      -5.761   2.776  25.640  0.00  0.00    +0.000 C 
ATOM     21  C   UNL     1      -6.075   2.057  25.388  0.00  0.00    +0.000 C 
ATOM     22  C   UNL     1      -5.666   1.596  24.839  0.00  0.00    +0.000 C 
ATOM     23  C   UNL     1      -4.940   1.856  24.543  0.00  0.00    +0.000 C 
ENDBRANCH  17  18
ENDBRANCH  16  17
ENDBRANCH  15  16
ENDBRANCH  12  13
BRANCH   5   3
ATOM      3  C   UNL     1       0.205   1.858  24.390  0.00  0.00    +0.149 C 
ATOM      4  C   UNL     1       0.725   2.236  24.908  0.00  0.00    +0.029 C 
BRANCH   3   2
ATOM      1  C   UNL     1       1.293   1.519  23.528  0.00  0.00    +0.108 C 
ATOM      2  N   UNL     1       0.499   1.445  23.739  0.00  0.00    -0.209 NA
ENDBRANCH   3   2
ENDBRANCH   5   3
BRANCH  10  27
ATOM     27  N   UNL     1      -2.135  -0.579  26.086  0.00  0.00    -0.079 NA
BRANCH  27  28
ATOM     28  S   UNL     1      -2.537  -1.154  25.654  0.00  0.00    +0.077 S 
ATOM     29  O   UNL     1      -1.822  -1.416  25.337  0.00  0.00    -0.152 OA
ATOM     30  O   UNL     1      -3.253  -0.892  25.969  0.00  0.00    -0.152 OA
BRANCH  28  31
ATOM     31  C   UNL     1      -2.939  -1.730  25.220  0.00  0.00    +0.123 A 
ATOM     32  C   UNL     1      -3.468  -1.505  24.628  0.00  0.00    +0.024 A 
ATOM     33  C   UNL     1      -3.870  -2.082  24.195  0.00  0.00    +0.073 A 
ATOM     34  C   UNL     1      -3.743  -2.881  24.353  0.00  0.00    +0.004 A 
ATOM     35  C   UNL     1      -3.214  -3.104  24.946  0.00  0.00    +0.001 A 
ATOM     36  C   UNL     1      -2.812  -2.529  25.379  0.00  0.00    +0.020 A 
BRANCH  33  37
ATOM     37  C   UNL     1      -4.399  -1.857  23.603  0.00  0.00    +0.419 C 
ATOM     38  F   UNL     1      -4.927  -1.632  23.010  0.00  0.00    -0.166 F 
ATOM     39  F   UNL     1      -3.840  -1.329  23.304  0.00  0.00    -0.166 F 
ATOM     40  F   UNL     1      -4.958  -2.385  23.901  0.00  0.00    -0.166 F 
ENDBRANCH  33  37
ENDBRANCH  28  31
ENDBRANCH  27  28
ENDBRANCH  10  27
TORSDOF 11
ENDMDL
MODEL 8
REMARK VINA RESULT:      -8.0     15.055     18.250
REMARK  Name = 
REMARK  11 active torsions:
REMARK  status: ('A' for Active; 'I' for Inactive)
REMARK    1  A    between atoms: N_2  and  C_3
REMARK    2  A    between atoms: C_3  and  C_5
REMARK    3  A    between atoms: C_10  and  N_27
REMARK    4  A    between atoms: C_12  and  C_13
REMARK    5  A    between atoms: N_15  and  C_16
REMARK    6  A    between atoms: C_16  and  C_17
REMARK    7  A    between atoms: C_16  and  C_24
REMARK    8  A    between atoms: C_17  and  C_18
REMARK    9  A    between atoms: N_27  and  S_28
REMARK   10  A    between atoms: S_28  and  C_31
REMARK   11  A    between atoms: C_33  and  C_37
REMARK                            x       y       z     vdW  Elec       q    Type
REMARK                         _______ _______ _______ _____ _____    ______ ____
ROOT
ATOM      5  C   UNL     1      11.522   7.665  20.679  0.00  0.00    +0.242 C 
ATOM      6  O   UNL     1      11.165   7.811  19.949  0.00  0.00    -0.273 OA
ATOM      7  N   UNL     1      12.315   7.858  20.795  0.00  0.00    -0.272 N 
ATOM      8  C   UNL     1      12.673   7.714  21.524  0.00  0.00    +0.095 C 
ATOM      9  C   UNL     1      13.466   7.907  21.640  0.00  0.00    +0.041 C 
ATOM     10  C   UNL     1      13.902   8.244  21.027  0.00  0.00    +0.102 C 
ATOM     11  C   UNL     1      13.545   8.389  20.297  0.00  0.00    +0.049 C 
ATOM     12  C   UNL     1      12.752   8.197  20.181  0.00  0.00    +0.155 C 
ENDROOT
BRANCH  12  13
ATOM     13  C   UNL     1      12.394   8.341  19.452  0.00  0.00    +0.260 C 
ATOM     14  O   UNL     1      11.668   8.730  19.421  0.00  0.00    -0.272 OA
ATOM     15  N   UNL     1      12.763   8.097  18.755  0.00  0.00    -0.196 NA
BRANCH  15  16
ATOM     16  C   UNL     1      12.405   8.242  18.027  0.00  0.00    +0.174 C 
BRANCH  16  24
ATOM     24  C   UNL     1      11.908   7.676  17.691  0.00  0.00    +0.281 C 
ATOM     25  N   UNL     1      11.147   7.885  17.448  0.00  0.00    -0.086 NA
ATOM     26  O   UNL     1      12.171   6.900  17.598  0.00  0.00    -0.270 OA
ENDBRANCH  16  24
BRANCH  16  17
ATOM     17  C   UNL     1      12.544   8.955  17.633  0.00  0.00    +0.031 C 
BRANCH  17  18
ATOM     18  C   UNL     1      13.131   8.998  17.055  0.00  0.00    +0.002 C 
ATOM     19  C   UNL     1      12.923   9.050  16.258  0.00  0.00    +0.000 C 
ATOM     20  C   UNL     1      13.510   9.094  15.681  0.00  0.00    +0.000 C 
ATOM     21  C   UNL     1      14.305   9.085  15.900  0.00  0.00    +0.000 C 
ATOM     22  C   UNL     1      14.514   9.034  16.696  0.00  0.00    +0.000 C 
ATOM     23  C   UNL     1      13.926   8.990  17.274  0.00  0.00    +0.000 C 
ENDBRANCH  17  18
ENDBRANCH  16  17
ENDBRANCH  15  16
ENDBRANCH  12  13
BRANCH   5   3
ATOM      3  C   UNL     1      11.086   7.328  21.291  0.00  0.00    +0.149 C 
ATOM      4  C   UNL     1      11.117   6.513  21.420  0.00  0.00    +0.029 C 
BRANCH   3   2
ATOM      1  C   UNL     1       9.954   7.485  22.149  0.00  0.00    +0.108 C 
ATOM      2  N   UNL     1      10.617   7.804  21.776  0.00  0.00    -0.209 NA
ENDBRANCH   3   2
ENDBRANCH   5   3
BRANCH  10  27
ATOM     27  N   UNL     1      14.696   8.437  21.143  0.00  0.00    -0.079 NA
BRANCH  27  28
ATOM     28  S   UNL     1      15.287   7.926  20.881  0.00  0.00    +0.077 S 
ATOM     29  O   UNL     1      15.527   8.487  20.326  0.00  0.00    -0.152 OA
ATOM     30  O   UNL     1      15.048   7.364  21.436  0.00  0.00    -0.152 OA
BRANCH  28  31
ATOM     31  C   UNL     1      15.879   7.414  20.619  0.00  0.00    +0.123 A 
ATOM     32  C   UNL     1      15.841   7.096  19.859  0.00  0.00    +0.024 A 
ATOM     33  C   UNL     1      16.433   6.584  19.596  0.00  0.00    +0.073 A 
ATOM     34  C   UNL     1      17.062   6.391  20.094  0.00  0.00    +0.004 A 
ATOM     35  C   UNL     1      17.099   6.709  20.854  0.00  0.00    +0.001 A 
ATOM     36  C   UNL     1      16.508   7.220  21.117  0.00  0.00    +0.020 A 
BRANCH  33  37
ATOM     37  C   UNL     1      16.396   6.266  18.836  0.00  0.00    +0.419 C 
ATOM     38  F   UNL     1      16.356   5.948  18.075  0.00  0.00    -0.166 F 
ATOM     39  F   UNL     1      15.575   6.204  18.903  0.00  0.00    -0.166 F 
ATOM     40  F   UNL     1      17.215   6.329  18.768  0.00  0.00    -0.166 F 
ENDBRANCH  33  37
ENDBRANCH  28  31
ENDBRANCH  27  28
ENDBRANCH  10  27
TORSDOF 11
ENDMDL
