MODEL 1
REMARK VINA RESULT:      -8.2      0.000      0.000
REMARK  Name = 
REMARK  8 active torsions:
REMARK  status: ('A' for Active; 'I' for Inactive)
REMARK    1  A    between atoms: O_2  and  C_3
REMARK    2  A    between atoms: C_3  and  C_4
REMARK    3  A    between atoms: C_4  and  O_5
REMARK    4  A    between atoms: O_5  and  C_6
REMARK    5  A    between atoms: C_9  and  C_12
REMARK    6  A    between atoms: C_15  and  C_17
REMARK    7  A    between atoms: N_21  and  C_22
REMARK    8  A    between atoms: C_22  and  C_23
REMARK                            x       y       z     vdW  Elec       q    Type
REMARK                         _______ _______ _______ _____ _____    ______ ____
ROOT
ATOM     12  C   UNL     1      -0.889   0.197  24.464  0.00  0.00    +0.205 A 
ATOM     13  N   UNL     1      -0.931   0.155  25.287  0.00  0.00    -0.056 NA
ATOM     14  O   UNL     1      -1.727   0.114  25.500  0.00  0.00    -0.336 OA
ATOM     15  C   UNL     1      -2.177   0.129  24.808  0.00  0.00    +0.251 A 
ATOM     16  N   UNL     1      -1.659   0.181  24.169  0.00  0.00    -0.190 NA
ENDROOT
BRANCH  12   9
ATOM      6  C   UNL     1       1.186   0.345  23.123  0.00  0.00    +0.225 A 
ATOM      7  C   UNL     1       0.801  -0.380  23.209  0.00  0.00    +0.058 A 
ATOM      8  C   UNL     1       0.110  -0.429  23.656  0.00  0.00    +0.010 A 
ATOM      9  C   UNL     1      -0.197   0.246  24.017  0.00  0.00    +0.058 A 
ATOM     10  C   UNL     1       0.187   0.971  23.931  0.00  0.00    +0.105 A 
ATOM     11  N   UNL     1       0.879   1.021  23.484  0.00  0.00    -0.210 NA
BRANCH   6   5
ATOM      5  O   UNL     1       1.877   0.395  22.676  0.00  0.00    -0.457 OA
BRANCH   5   4
ATOM      4  C   UNL     1       2.602   0.521  23.049  0.00  0.00    +0.239 C 
BRANCH   4   3
ATOM      3  C   UNL     1       3.300   0.502  22.611  0.00  0.00    +0.189 C 
BRANCH   3   2
ATOM      1  C   UNL     1       4.686   0.430  22.955  0.00  0.00    +0.174 C 
ATOM      2  O   UNL     1       3.983   0.859  22.906  0.00  0.00    -0.347 OA
ENDBRANCH   3   2
ENDBRANCH   4   3
ENDBRANCH   5   4
ENDBRANCH   6   5
ENDBRANCH  12   9
BRANCH  15  17
ATOM     17  C   UNL     1      -3.000   0.099  24.764  0.00  0.00    +0.138 C 
ATOM     18  C   UNL     1      -3.511   0.747  24.786  0.00  0.00    +0.027 C 
ATOM     19  C   UNL     1      -4.284   0.463  24.726  0.00  0.00    +0.019 C 
ATOM     20  C   UNL     1      -4.250  -0.359  24.667  0.00  0.00    +0.073 C 
ATOM     21  N   UNL     1      -3.457  -0.584  24.691  0.00  0.00    -0.266 NA
BRANCH  21  22
ATOM     22  C   UNL     1      -3.171  -1.357  24.649  0.00  0.00    +0.072 C 
BRANCH  22  23
ATOM     23  C   UNL     1      -3.653  -1.960  24.358  0.00  0.00    +0.016 C 
ATOM     24  C   UNL     1      -4.268  -2.210  23.869  0.00  0.00    +0.001 C 
ATOM     25  C   UNL     1      -3.872  -2.755  24.344  0.00  0.00    +0.001 C 
ENDBRANCH  22  23
ENDBRANCH  21  22
ENDBRANCH  15  17
TORSDOF 8
ENDMDL
MODEL 2
REMARK VINA RESULT:      -8.1      3.829      5.679
REMARK  Name = 
REMARK  8 active torsions:
REMARK  status: ('A' for Active; 'I' for Inactive)
REMARK    1  A    between atoms: O_2  and  C_3
REMARK    2  A    between atoms: C_3  and  C_4
REMARK    3  A    between atoms: C_4  and  O_5
REMARK    4  A    between atoms: O_5  and  C_6
REMARK    5  A    between atoms: C_9  and  C_12
REMARK    6  A    between atoms: C_15  and  C_17
REMARK    7  A    between atoms: N_21  and  C_22
REMARK    8  A    between atoms: C_22  and  C_23
REMARK                            x       y       z     vdW  Elec       q    Type
REMARK                         _______ _______ _______ _____ _____    ______ ____
ROOT
ATOM     12  C   UNL     1      -3.953   1.960  24.479  0.00  0.00    +0.205 A 
ATOM     13  N   UNL     1      -4.224   2.556  23.977  0.00  0.00    -0.056 NA
ATOM     14  O   UNL     1      -4.017   3.283  24.308  0.00  0.00    -0.336 OA
ATOM     15  C   UNL     1      -3.618   3.136  25.016  0.00  0.00    +0.251 A 
ATOM     16  N   UNL     1      -3.578   2.319  25.121  0.00  0.00    -0.190 NA
ENDROOT
BRANCH  12   9
ATOM      6  C   UNL     1      -4.217  -0.474  24.120  0.00  0.00    +0.225 A 
ATOM      7  C   UNL     1      -4.692  -0.085  24.671  0.00  0.00    +0.058 A 
ATOM      8  C   UNL     1      -4.604   0.727  24.790  0.00  0.00    +0.010 A 
ATOM      9  C   UNL     1      -4.041   1.149  24.360  0.00  0.00    +0.058 A 
ATOM     10  C   UNL     1      -3.566   0.760  23.809  0.00  0.00    +0.105 A 
ATOM     11  N   UNL     1      -3.654  -0.052  23.688  0.00  0.00    -0.210 NA
BRANCH   6   5
ATOM      5  O   UNL     1      -4.304  -1.286  23.999  0.00  0.00    -0.457 OA
BRANCH   5   4
ATOM      4  C   UNL     1      -3.784  -1.815  24.359  0.00  0.00    +0.239 C 
BRANCH   4   3
ATOM      3  C   UNL     1      -3.819  -2.618  24.175  0.00  0.00    +0.189 C 
BRANCH   3   2
ATOM      1  C   UNL     1      -2.599  -3.264  24.546  0.00  0.00    +0.174 C 
ATOM      2  O   UNL     1      -3.414  -3.166  24.639  0.00  0.00    -0.347 OA
ENDBRANCH   3   2
ENDBRANCH   4   3
ENDBRANCH   5   4
ENDBRANCH   6   5
ENDBRANCH  12   9
BRANCH  15  17
ATOM     17  C   UNL     1      -3.312   3.707  25.527  0.00  0.00    +0.138 C 
ATOM     18  C   UNL     1      -3.698   4.027  26.182  0.00  0.00    +0.027 C 
ATOM     19  C   UNL     1      -3.191   4.575  26.533  0.00  0.00    +0.019 C 
ATOM     20  C   UNL     1      -2.492   4.593  26.095  0.00  0.00    +0.073 C 
ATOM     21  N   UNL     1      -2.567   4.056  25.474  0.00  0.00    -0.266 NA
BRANCH  21  22
ATOM     22  C   UNL     1      -1.996   3.897  24.899  0.00  0.00    +0.072 C 
BRANCH  22  23
ATOM     23  C   UNL     1      -1.290   4.323  24.890  0.00  0.00    +0.016 C 
ATOM     24  C   UNL     1      -0.892   5.045  24.897  0.00  0.00    +0.001 C 
ATOM     25  C   UNL     1      -0.466   4.340  24.866  0.00  0.00    +0.001 C 
ENDBRANCH  22  23
ENDBRANCH  21  22
ENDBRANCH  15  17
TORSDOF 8
ENDMDL
MODEL 3
REMARK VINA RESULT:      -8.1      0.978      2.042
REMARK  Name = 
REMARK  8 active torsions:
REMARK  status: ('A' for Active; 'I' for Inactive)
REMARK    1  A    between atoms: O_2  and  C_3
REMARK    2  A    between atoms: C_3  and  C_4
REMARK    3  A    between atoms: C_4  and  O_5
REMARK    4  A    between atoms: O_5  and  C_6
REMARK    5  A    between atoms: C_9  and  C_12
REMARK    6  A    between atoms: C_15  and  C_17
REMARK    7  A    between atoms: N_21  and  C_22
REMARK    8  A    between atoms: C_22  and  C_23
REMARK                            x       y       z     vdW  Elec       q    Type
REMARK                         _______ _______ _______ _____ _____    ______ ____
ROOT
ATOM     12  C   UNL     1      -1.197   0.180  24.568  0.00  0.00    +0.205 A 
ATOM     13  N   UNL     1      -1.234   0.222  25.391  0.00  0.00    -0.056 NA
ATOM     14  O   UNL     1      -2.029   0.256  25.610  0.00  0.00    -0.336 OA
ATOM     15  C   UNL     1      -2.484   0.236  24.922  0.00  0.00    +0.251 A 
ATOM     16  N   UNL     1      -1.970   0.189  24.278  0.00  0.00    -0.190 NA
ENDROOT
BRANCH  12   9
ATOM      6  C   UNL     1       0.868   0.051  23.211  0.00  0.00    +0.225 A 
ATOM      7  C   UNL     1       0.490   0.777  23.318  0.00  0.00    +0.058 A 
ATOM      8  C   UNL     1      -0.199   0.819  23.770  0.00  0.00    +0.010 A 
ATOM      9  C   UNL     1      -0.509   0.138  24.116  0.00  0.00    +0.058 A 
ATOM     10  C   UNL     1      -0.131  -0.588  24.009  0.00  0.00    +0.105 A 
ATOM     11  N   UNL     1       0.558  -0.631  23.556  0.00  0.00    -0.210 NA
BRANCH   6   5
ATOM      5  O   UNL     1       1.557   0.007  22.759  0.00  0.00    -0.457 OA
BRANCH   5   4
ATOM      4  C   UNL     1       2.232   0.419  22.993  0.00  0.00    +0.239 C 
BRANCH   4   3
ATOM      3  C   UNL     1       2.951   0.284  22.612  0.00  0.00    +0.189 C 
BRANCH   3   2
ATOM      1  C   UNL     1       4.342   0.568  22.778  0.00  0.00    +0.174 C 
ATOM      2  O   UNL     1       3.565   0.830  22.685  0.00  0.00    -0.347 OA
ENDBRANCH   3   2
ENDBRANCH   4   3
ENDBRANCH   5   4
ENDBRANCH   6   5
ENDBRANCH  12   9
BRANCH  15  17
ATOM     17  C   UNL     1      -3.308   0.258  24.884  0.00  0.00    +0.138 C 
ATOM     18  C   UNL     1      -3.810  -0.396  24.866  0.00  0.00    +0.027 C 
ATOM     19  C   UNL     1      -4.586  -0.120  24.828  0.00  0.00    +0.019 C 
ATOM     20  C   UNL     1      -4.564   0.705  24.822  0.00  0.00    +0.073 C 
ATOM     21  N   UNL     1      -3.773   0.938  24.857  0.00  0.00    -0.266 NA
BRANCH  21  22
ATOM     22  C   UNL     1      -3.497   1.716  24.863  0.00  0.00    +0.072 C 
BRANCH  22  23
ATOM     23  C   UNL     1      -4.029   2.343  24.793  0.00  0.00    +0.016 C 
ATOM     24  C   UNL     1      -4.654   2.786  25.098  0.00  0.00    +0.001 C 
ATOM     25  C   UNL     1      -4.324   2.985  24.369  0.00  0.00    +0.001 C 
ENDBRANCH  22  23
ENDBRANCH  21  22
ENDBRANCH  15  17
TORSDOF 8
ENDMDL
MODEL 4
REMARK VINA RESULT:      -8.0      2.712      4.912
REMARK  Name = 
REMARK  8 active torsions:
REMARK  status: ('A' for Active; 'I' for Inactive)
REMARK    1  A    between atoms: O_2  and  C_3
REMARK    2  A    between atoms: C_3  and  C_4
REMARK    3  A    between atoms: C_4  and  O_5
REMARK    4  A    between atoms: O_5  and  C_6
REMARK    5  A    between atoms: C_9  and  C_12
REMARK    6  A    between atoms: C_15  and  C_17
REMARK    7  A    between atoms: N_21  and  C_22
REMARK    8  A    between atoms: C_22  and  C_23
REMARK                            x       y       z     vdW  Elec       q    Type
REMARK                         _______ _______ _______ _____ _____    ______ ____
ROOT
ATOM     12  C   UNL     1      -0.580   1.618  25.325  0.00  0.00    +0.205 A 
ATOM     13  N   UNL     1       0.057   1.898  25.769  0.00  0.00    -0.056 NA
ATOM     14  O   UNL     1       0.017   2.722  25.784  0.00  0.00    -0.336 OA
ATOM     15  C   UNL     1      -0.646   2.952  25.349  0.00  0.00    +0.251 A 
ATOM     16  N   UNL     1      -1.014   2.270  25.066  0.00  0.00    -0.190 NA
ENDROOT
BRANCH  12   9
ATOM      6  C   UNL     1      -1.092  -0.756  24.854  0.00  0.00    +0.225 A 
ATOM      7  C   UNL     1      -1.262  -0.437  25.597  0.00  0.00    +0.058 A 
ATOM      8  C   UNL     1      -1.091   0.354  25.753  0.00  0.00    +0.010 A 
ATOM      9  C   UNL     1      -0.751   0.827  25.169  0.00  0.00    +0.058 A 
ATOM     10  C   UNL     1      -0.581   0.508  24.427  0.00  0.00    +0.105 A 
ATOM     11  N   UNL     1      -0.752  -0.284  24.269  0.00  0.00    -0.210 NA
BRANCH   6   5
ATOM      5  O   UNL     1      -1.263  -1.548  24.697  0.00  0.00    -0.457 OA
BRANCH   5   4
ATOM      4  C   UNL     1      -2.046  -1.807  24.682  0.00  0.00    +0.239 C 
BRANCH   4   3
ATOM      3  C   UNL     1      -2.226  -2.564  24.409  0.00  0.00    +0.189 C 
BRANCH   3   2
ATOM      1  C   UNL     1      -3.608  -2.870  24.213  0.00  0.00    +0.174 C 
ATOM      2  O   UNL     1      -2.917  -2.939  24.658  0.00  0.00    -0.347 OA
ENDBRANCH   3   2
ENDBRANCH   4   3
ENDBRANCH   5   4
ENDBRANCH   6   5
ENDBRANCH  12   9
BRANCH  15  17
ATOM     17  C   UNL     1      -0.897   3.727  25.221  0.00  0.00    +0.138 C 
ATOM     18  C   UNL     1      -0.491   4.303  24.791  0.00  0.00    +0.027 C 
ATOM     19  C   UNL     1      -0.940   4.994  24.804  0.00  0.00    +0.019 C 
ATOM     20  C   UNL     1      -1.624   4.846  25.242  0.00  0.00    +0.073 C 
ATOM     21  N   UNL     1      -1.596   4.063  25.499  0.00  0.00    -0.266 NA
BRANCH  21  22
ATOM     22  C   UNL     1      -2.169   3.683  25.956  0.00  0.00    +0.072 C 
BRANCH  22  23
ATOM     23  C   UNL     1      -2.923   4.010  26.028  0.00  0.00    +0.016 C 
ATOM     24  C   UNL     1      -3.419   4.607  26.306  0.00  0.00    +0.001 C 
ATOM     25  C   UNL     1      -3.733   3.978  25.875  0.00  0.00    +0.001 C 
ENDBRANCH  22  23
ENDBRANCH  21  22
ENDBRANCH  15  17
TORSDOF 8
ENDMDL
MODEL 5
REMARK VINA RESULT:      -7.8      3.410      4.375
REMARK  Name = 
REMARK  8 active torsions:
REMARK  status: ('A' for Active; 'I' for Inactive)
REMARK    1  A    between atoms: O_2  and  C_3
REMARK    2  A    between atoms: C_3  and  C_4
REMARK    3  A    between atoms: C_4  and  O_5
REMARK    4  A    between atoms: O_5  and  C_6
REMARK    5  A    between atoms: C_9  and  C_12
REMARK    6  A    between atoms: C_15  and  C_17
REMARK    7  A    between atoms: N_21  and  C_22
REMARK    8  A    between atoms: C_22  and  C_23
REMARK                            x       y       z     vdW  Elec       q    Type
REMARK                         _______ _______ _______ _____ _____    ______ ____
ROOT
ATOM     12  C   UNL     1      -4.076   0.856  24.777  0.00  0.00    +0.205 A 
ATOM     13  N   UNL     1      -4.723   0.575  25.205  0.00  0.00    -0.056 NA
ATOM     14  O   UNL     1      -4.771  -0.241  25.090  0.00  0.00    -0.336 OA
ATOM     15  C   UNL     1      -4.153  -0.464  24.590  0.00  0.00    +0.251 A 
ATOM     16  N   UNL     1      -3.725   0.214  24.397  0.00  0.00    -0.190 NA
ENDROOT
BRANCH  12   9
ATOM      6  C   UNL     1      -3.327   3.211  24.658  0.00  0.00    +0.225 A 
ATOM      7  C   UNL     1      -3.177   2.698  24.029  0.00  0.00    +0.058 A 
ATOM      8  C   UNL     1      -3.427   1.913  24.069  0.00  0.00    +0.010 A 
ATOM      9  C   UNL     1      -3.826   1.640  24.737  0.00  0.00    +0.058 A 
ATOM     10  C   UNL     1      -3.977   2.153  25.366  0.00  0.00    +0.105 A 
ATOM     11  N   UNL     1      -3.727   2.939  25.327  0.00  0.00    -0.210 NA
BRANCH   6   5
ATOM      5  O   UNL     1      -3.078   3.997  24.619  0.00  0.00    -0.457 OA
BRANCH   5   4
ATOM      4  C   UNL     1      -2.377   4.227  24.988  0.00  0.00    +0.239 C 
BRANCH   4   3
ATOM      3  C   UNL     1      -2.077   4.985  24.869  0.00  0.00    +0.189 C 
BRANCH   3   2
ATOM      1  C   UNL     1      -0.697   5.356  24.840  0.00  0.00    +0.174 C 
ATOM      2  O   UNL     1      -1.393   5.225  25.263  0.00  0.00    -0.347 OA
ENDBRANCH   3   2
ENDBRANCH   4   3
ENDBRANCH   5   4
ENDBRANCH   6   5
ENDBRANCH  12   9
BRANCH  15  17
ATOM     17  C   UNL     1      -3.993  -1.230  24.329  0.00  0.00    +0.138 C 
ATOM     18  C   UNL     1      -4.468  -1.679  23.824  0.00  0.00    +0.027 C 
ATOM     19  C   UNL     1      -4.098  -2.408  23.710  0.00  0.00    +0.019 C 
ATOM     20  C   UNL     1      -3.396  -2.409  24.144  0.00  0.00    +0.073 C 
ATOM     21  N   UNL     1      -3.332  -1.681  24.526  0.00  0.00    -0.266 NA
BRANCH  21  22
ATOM     22  C   UNL     1      -2.713  -1.446  25.019  0.00  0.00    +0.072 C 
BRANCH  22  23
ATOM     23  C   UNL     1      -1.975  -1.808  24.956  0.00  0.00    +0.016 C 
ATOM     24  C   UNL     1      -1.519  -2.481  24.822  0.00  0.00    +0.001 C 
ATOM     25  C   UNL     1      -1.152  -1.761  24.982  0.00  0.00    +0.001 C 
ENDBRANCH  22  23
ENDBRANCH  21  22
ENDBRANCH  15  17
TORSDOF 8
ENDMDL
MODEL 6
REMARK VINA RESULT:      -7.7      2.153      3.030
REMARK  Name = 
REMARK  8 active torsions:
REMARK  status: ('A' for Active; 'I' for Inactive)
REMARK    1  A    between atoms: O_2  and  C_3
REMARK    2  A    between atoms: C_3  and  C_4
REMARK    3  A    between atoms: C_4  and  O_5
REMARK    4  A    between atoms: O_5  and  C_6
REMARK    5  A    between atoms: C_9  and  C_12
REMARK    6  A    between atoms: C_15  and  C_17
REMARK    7  A    between atoms: N_21  and  C_22
REMARK    8  A    between atoms: C_22  and  C_23
REMARK                            x       y       z     vdW  Elec       q    Type
REMARK                         _______ _______ _______ _____ _____    ______ ____
ROOT
ATOM     12  C   UNL     1      -2.183   2.120  23.925  0.00  0.00    +0.205 A 
ATOM     13  N   UNL     1      -2.620   2.402  23.285  0.00  0.00    -0.056 NA
ATOM     14  O   UNL     1      -3.268   2.819  23.581  0.00  0.00    -0.336 OA
ATOM     15  C   UNL     1      -3.231   2.795  24.405  0.00  0.00    +0.251 A 
ATOM     16  N   UNL     1      -2.561   2.363  24.617  0.00  0.00    -0.190 NA
ENDROOT
BRANCH  12   9
ATOM      6  C   UNL     1      -0.106   0.781  23.790  0.00  0.00    +0.225 A 
ATOM      7  C   UNL     1      -0.072   1.574  24.019  0.00  0.00    +0.058 A 
ATOM      8  C   UNL     1      -0.764   2.019  24.064  0.00  0.00    +0.010 A 
ATOM      9  C   UNL     1      -1.491   1.675  23.881  0.00  0.00    +0.058 A 
ATOM     10  C   UNL     1      -1.525   0.882  23.652  0.00  0.00    +0.105 A 
ATOM     11  N   UNL     1      -0.833   0.435  23.607  0.00  0.00    -0.210 NA
BRANCH   6   5
ATOM      5  O   UNL     1       0.586   0.334  23.745  0.00  0.00    -0.457 OA
BRANCH   5   4
ATOM      4  C   UNL     1       0.994   0.276  23.031  0.00  0.00    +0.239 C 
BRANCH   4   3
ATOM      3  C   UNL     1       1.773   0.005  23.021  0.00  0.00    +0.189 C 
BRANCH   3   2
ATOM      1  C   UNL     1       3.044   0.132  22.381  0.00  0.00    +0.174 C 
ATOM      2  O   UNL     1       2.223   0.066  22.333  0.00  0.00    -0.347 OA
ENDBRANCH   3   2
ENDBRANCH   4   3
ENDBRANCH   5   4
ENDBRANCH   6   5
ENDBRANCH  12   9
BRANCH  15  17
ATOM     17  C   UNL     1      -3.770   3.141  24.925  0.00  0.00    +0.138 C 
ATOM     18  C   UNL     1      -3.658   3.846  25.340  0.00  0.00    +0.027 C 
ATOM     19  C   UNL     1      -4.334   3.984  25.793  0.00  0.00    +0.019 C 
ATOM     20  C   UNL     1      -4.863   3.365  25.657  0.00  0.00    +0.073 C 
ATOM     21  N   UNL     1      -4.514   2.845  25.121  0.00  0.00    -0.266 NA
BRANCH  21  22
ATOM     22  C   UNL     1      -4.851   2.149  24.831  0.00  0.00    +0.072 C 
BRANCH  22  23
ATOM     23  C   UNL     1      -5.593   1.908  25.098  0.00  0.00    +0.016 C 
ATOM     24  C   UNL     1      -6.087   1.668  25.713  0.00  0.00    +0.001 C 
ATOM     25  C   UNL     1      -6.383   1.730  24.946  0.00  0.00    +0.001 C 
ENDBRANCH  22  23
ENDBRANCH  21  22
ENDBRANCH  15  17
TORSDOF 8
ENDMDL
MODEL 7
REMARK VINA RESULT:      -7.6      2.760      3.664
REMARK  Name = 
REMARK  8 active torsions:
REMARK  status: ('A' for Active; 'I' for Inactive)
REMARK    1  A    between atoms: O_2  and  C_3
REMARK    2  A    between atoms: C_3  and  C_4
REMARK    3  A    between atoms: C_4  and  O_5
REMARK    4  A    between atoms: O_5  and  C_6
REMARK    5  A    between atoms: C_9  and  C_12
REMARK    6  A    between atoms: C_15  and  C_17
REMARK    7  A    between atoms: N_21  and  C_22
REMARK    8  A    between atoms: C_22  and  C_23
REMARK                            x       y       z     vdW  Elec       q    Type
REMARK                         _______ _______ _______ _____ _____    ______ ____
ROOT
ATOM     12  C   UNL     1      -1.160   0.409  25.406  0.00  0.00    +0.205 A 
ATOM     13  N   UNL     1      -1.274   0.062  26.145  0.00  0.00    -0.056 NA
ATOM     14  O   UNL     1      -1.436  -0.739  26.029  0.00  0.00    -0.336 OA
ATOM     15  C   UNL     1      -1.421  -0.887  25.217  0.00  0.00    +0.251 A 
ATOM     16  N   UNL     1      -1.251  -0.177  24.833  0.00  0.00    -0.190 NA
ENDROOT
BRANCH  12   9
ATOM      6  C   UNL     1      -0.639   2.791  24.985  0.00  0.00    +0.225 A 
ATOM      7  C   UNL     1      -0.261   2.389  25.598  0.00  0.00    +0.058 A 
ATOM      8  C   UNL     1      -0.435   1.595  25.738  0.00  0.00    +0.010 A 
ATOM      9  C   UNL     1      -0.986   1.203  25.266  0.00  0.00    +0.058 A 
ATOM     10  C   UNL     1      -1.365   1.606  24.653  0.00  0.00    +0.105 A 
ATOM     11  N   UNL     1      -1.191   2.400  24.512  0.00  0.00    -0.210 NA
BRANCH   6   5
ATOM      5  O   UNL     1      -0.466   3.586  24.844  0.00  0.00    -0.457 OA
BRANCH   5   4
ATOM      4  C   UNL     1      -0.995   4.173  25.081  0.00  0.00    +0.239 C 
BRANCH   4   3
ATOM      3  C   UNL     1      -0.898   4.947  24.817  0.00  0.00    +0.189 C 
BRANCH   3   2
ATOM      1  C   UNL     1      -2.020   5.795  25.072  0.00  0.00    +0.174 C 
ATOM      2  O   UNL     1      -1.242   5.571  25.232  0.00  0.00    -0.347 OA
ENDBRANCH   3   2
ENDBRANCH   4   3
ENDBRANCH   5   4
ENDBRANCH   6   5
ENDBRANCH  12   9
BRANCH  15  17
ATOM     17  C   UNL     1      -1.554  -1.615  24.854  0.00  0.00    +0.138 C 
ATOM     18  C   UNL     1      -0.976  -2.169  24.653  0.00  0.00    +0.027 C 
ATOM     19  C   UNL     1      -1.353  -2.814  24.302  0.00  0.00    +0.019 C 
ATOM     20  C   UNL     1      -2.163  -2.659  24.287  0.00  0.00    +0.073 C 
ATOM     21  N   UNL     1      -2.287  -1.918  24.627  0.00  0.00    -0.266 NA
BRANCH  21  22
ATOM     22  C   UNL     1      -3.017  -1.545  24.725  0.00  0.00    +0.072 C 
BRANCH  22  23
ATOM     23  C   UNL     1      -3.682  -1.830  24.328  0.00  0.00    +0.016 C 
ATOM     24  C   UNL     1      -4.192  -2.451  24.145  0.00  0.00    +0.001 C 
ATOM     25  C   UNL     1      -4.322  -1.703  23.825  0.00  0.00    +0.001 C 
ENDBRANCH  22  23
ENDBRANCH  21  22
ENDBRANCH  15  17
TORSDOF 8
ENDMDL
MODEL 8
REMARK VINA RESULT:      -7.2      2.555      5.046
REMARK  Name = 
REMARK  8 active torsions:
REMARK  status: ('A' for Active; 'I' for Inactive)
REMARK    1  A    between atoms: O_2  and  C_3
REMARK    2  A    between atoms: C_3  and  C_4
REMARK    3  A    between atoms: C_4  and  O_5
REMARK    4  A    between atoms: O_5  and  C_6
REMARK    5  A    between atoms: C_9  and  C_12
REMARK    6  A    between atoms: C_15  and  C_17
REMARK    7  A    between atoms: N_21  and  C_22
REMARK    8  A    between atoms: C_22  and  C_23
REMARK                            x       y       z     vdW  Elec       q    Type
REMARK                         _______ _______ _______ _____ _____    ______ ____
ROOT
ATOM     12  C   UNL     1      -1.910   1.029  24.324  0.00  0.00    +0.205 A 
ATOM     13  N   UNL     1      -1.306   0.960  23.767  0.00  0.00    -0.056 NA
ATOM     14  O   UNL     1      -0.973   0.208  23.842  0.00  0.00    -0.336 OA
ATOM     15  C   UNL     1      -1.373  -0.188  24.447  0.00  0.00    +0.251 A 
ATOM     16  N   UNL     1      -1.951   0.320  24.744  0.00  0.00    -0.190 NA
ENDROOT
BRANCH  12   9
ATOM      6  C   UNL     1      -3.343   3.015  24.674  0.00  0.00    +0.225 A 
ATOM      7  C   UNL     1      -3.523   2.478  24.074  0.00  0.00    +0.058 A 
ATOM      8  C   UNL     1      -3.045   1.816  23.958  0.00  0.00    +0.010 A 
ATOM      9  C   UNL     1      -2.388   1.691  24.440  0.00  0.00    +0.058 A 
ATOM     10  C   UNL     1      -2.208   2.228  25.040  0.00  0.00    +0.105 A 
ATOM     11  N   UNL     1      -2.686   2.891  25.157  0.00  0.00    -0.210 NA
BRANCH   6   5
ATOM      5  O   UNL     1      -3.821   3.678  24.791  0.00  0.00    -0.457 OA
BRANCH   5   4
ATOM      4  C   UNL     1      -4.521   3.612  25.222  0.00  0.00    +0.239 C 
BRANCH   4   3
ATOM      3  C   UNL     1      -4.981   4.280  25.369  0.00  0.00    +0.189 C 
BRANCH   3   2
ATOM      1  C   UNL     1      -6.268   4.834  25.649  0.00  0.00    +0.174 C 
ATOM      2  O   UNL     1      -5.742   4.199  25.676  0.00  0.00    -0.347 OA
ENDBRANCH   3   2
ENDBRANCH   4   3
ENDBRANCH   5   4
ENDBRANCH   6   5
ENDBRANCH  12   9
BRANCH  15  17
ATOM     17  C   UNL     1      -1.220  -0.955  24.707  0.00  0.00    +0.138 C 
ATOM     18  C   UNL     1      -0.527  -1.214  25.072  0.00  0.00    +0.027 C 
ATOM     19  C   UNL     1      -0.613  -2.018  25.239  0.00  0.00    +0.019 C 
ATOM     20  C   UNL     1      -1.358  -2.255  24.977  0.00  0.00    +0.073 C 
ATOM     21  N   UNL     1      -1.733  -1.598  24.649  0.00  0.00    -0.266 NA
BRANCH  21  22
ATOM     22  C   UNL     1      -2.490  -1.586  24.319  0.00  0.00    +0.072 C 
BRANCH  22  23
ATOM     23  C   UNL     1      -3.015  -2.205  24.470  0.00  0.00    +0.016 C 
ATOM     24  C   UNL     1      -3.455  -2.654  25.002  0.00  0.00    +0.001 C 
ATOM     25  C   UNL     1      -3.484  -2.825  24.197  0.00  0.00    +0.001 C 
ENDBRANCH  22  23
ENDBRANCH  21  22
ENDBRANCH  15  17
TORSDOF 8
ENDMDL
