MODEL 1
REMARK VINA RESULT:      -9.7      0.000      0.000
REMARK  Name = 
REMARK  8 active torsions:
REMARK  status: ('A' for Active; 'I' for Inactive)
REMARK    1  A    between atoms: O_2  and  C_3
REMARK    2  A    between atoms: C_3  and  C_4
REMARK    3  A    between atoms: C_4  and  N_5
REMARK    4  A    between atoms: N_5  and  C_6
REMARK    5  A    between atoms: C_7  and  C_12
REMARK    6  A    between atoms: C_15  and  C_17
REMARK    7  A    between atoms: N_21  and  C_22
REMARK    8  A    between atoms: C_22  and  C_23
REMARK                            x       y       z     vdW  Elec       q    Type
REMARK                         _______ _______ _______ _____ _____    ______ ____
ROOT
ATOM     12  C   UNL     1      -2.787   3.105  24.511  0.00  0.00    +0.206 A 
ATOM     13  N   UNL     1      -3.089   3.028  23.748  0.00  0.00    -0.056 NA
ATOM     14  O   UNL     1      -3.739   2.521  23.781  0.00  0.00    -0.336 OA
ATOM     15  C   UNL     1      -3.839   2.285  24.566  0.00  0.00    +0.251 A 
ATOM     16  N   UNL     1      -3.250   2.646  25.017  0.00  0.00    -0.190 NA
ENDROOT
BRANCH  12   7
ATOM      6  C   UNL     1      -1.373   3.258  24.651  0.00  0.00    +0.151 A 
ATOM      7  C   UNL     1      -2.136   3.561  24.731  0.00  0.00    +0.072 A 
ATOM      8  C   UNL     1      -2.247   4.322  25.032  0.00  0.00    +0.008 A 
ATOM      9  C   UNL     1      -1.596   4.778  25.252  0.00  0.00    +0.021 A 
ATOM     10  C   UNL     1      -0.834   4.473  25.171  0.00  0.00    +0.100 A 
ATOM     11  N   UNL     1      -0.722   3.714  24.871  0.00  0.00    -0.228 NA
BRANCH   6   5
ATOM      5  N   UNL     1      -1.262   2.497  24.350  0.00  0.00    -0.218 NA
BRANCH   5   4
ATOM      4  C   UNL     1      -0.522   2.136  24.406  0.00  0.00    +0.146 C 
BRANCH   4   3
ATOM      3  C   UNL     1      -0.359   1.460  23.962  0.00  0.00    +0.166 C 
BRANCH   3   2
ATOM      1  C   UNL     1      -0.002   0.077  23.899  0.00  0.00    +0.174 C 
ATOM      2  O   UNL     1      -0.176   0.751  24.343  0.00  0.00    -0.349 OA
ENDBRANCH   3   2
ENDBRANCH   4   3
ENDBRANCH   5   4
ENDBRANCH   6   5
ENDBRANCH  12   7
BRANCH  15  17
ATOM     17  C   UNL     1      -4.425   1.777  24.849  0.00  0.00    +0.138 C 
ATOM     18  C   UNL     1      -5.141   2.004  25.189  0.00  0.00    +0.027 C 
ATOM     19  C   UNL     1      -5.555   1.321  25.391  0.00  0.00    +0.019 C 
ATOM     20  C   UNL     1      -5.095   0.670  25.176  0.00  0.00    +0.073 C 
ATOM     21  N   UNL     1      -4.397   0.952  24.841  0.00  0.00    -0.262 NA
BRANCH  21  22
ATOM     22  C   UNL     1      -3.777   0.491  24.548  0.00  0.00    +0.106 C 
BRANCH  22  23
ATOM     23  C   UNL     1      -3.810  -0.330  24.613  0.00  0.00    +0.023 A 
ATOM     24  C   UNL     1      -4.136  -0.848  24.058  0.00  0.00    +0.004 A 
ATOM     25  C   UNL     1      -4.049  -1.616  24.346  0.00  0.00    +0.007 A 
ATOM     26  C   UNL     1      -3.669  -1.574  25.076  0.00  0.00    +0.035 A 
ATOM     27  S   UNL     1      -3.521  -0.779  25.242  0.00  0.00    -0.089 S 
ENDBRANCH  22  23
ENDBRANCH  21  22
ENDBRANCH  15  17
TORSDOF 8
ENDMDL
MODEL 2
REMARK VINA RESULT:      -9.6      1.566      3.979
REMARK  Name = 
REMARK  8 active torsions:
REMARK  status: ('A' for Active; 'I' for Inactive)
REMARK    1  A    between atoms: O_2  and  C_3
REMARK    2  A    between atoms: C_3  and  C_4
REMARK    3  A    between atoms: C_4  and  N_5
REMARK    4  A    between atoms: N_5  and  C_6
REMARK    5  A    between atoms: C_7  and  C_12
REMARK    6  A    between atoms: C_15  and  C_17
REMARK    7  A    between atoms: N_21  and  C_22
REMARK    8  A    between atoms: C_22  and  C_23
REMARK                            x       y       z     vdW  Elec       q    Type
REMARK                         _______ _______ _______ _____ _____    ______ ____
ROOT
ATOM     12  C   UNL     1      -3.678  -0.250  24.366  0.00  0.00    +0.206 A 
ATOM     13  N   UNL     1      -3.730   0.129  23.636  0.00  0.00    -0.056 NA
ATOM     14  O   UNL     1      -4.036   0.885  23.762  0.00  0.00    -0.336 OA
ATOM     15  C   UNL     1      -4.172   0.973  24.571  0.00  0.00    +0.251 A 
ATOM     16  N   UNL     1      -3.951   0.271  24.945  0.00  0.00    -0.190 NA
ENDROOT
BRANCH  12   7
ATOM      6  C   UNL     1      -2.596  -1.151  24.611  0.00  0.00    +0.151 A 
ATOM      7  C   UNL     1      -3.402  -1.016  24.496  0.00  0.00    +0.072 A 
ATOM      8  C   UNL     1      -3.932  -1.649  24.512  0.00  0.00    +0.008 A 
ATOM      9  C   UNL     1      -3.655  -2.416  24.641  0.00  0.00    +0.021 A 
ATOM     10  C   UNL     1      -2.849  -2.549  24.756  0.00  0.00    +0.100 A 
ATOM     11  N   UNL     1      -2.320  -1.917  24.741  0.00  0.00    -0.228 NA
BRANCH   6   5
ATOM      5  N   UNL     1      -2.066  -0.517  24.596  0.00  0.00    -0.218 NA
BRANCH   5   4
ATOM      4  C   UNL     1      -1.254  -0.660  24.601  0.00  0.00    +0.146 C 
BRANCH   4   3
ATOM      3  C   UNL     1      -0.727  -0.038  24.734  0.00  0.00    +0.166 C 
BRANCH   3   2
ATOM      1  C   UNL     1       0.105   0.977  24.170  0.00  0.00    +0.174 C 
ATOM      2  O   UNL     1      -0.244   0.230  24.122  0.00  0.00    -0.349 OA
ENDBRANCH   3   2
ENDBRANCH   4   3
ENDBRANCH   5   4
ENDBRANCH   6   5
ENDBRANCH  12   7
BRANCH  15  17
ATOM     17  C   UNL     1      -4.476   1.645  24.942  0.00  0.00    +0.138 C 
ATOM     18  C   UNL     1      -5.235   1.724  25.255  0.00  0.00    +0.027 C 
ATOM     19  C   UNL     1      -5.302   2.483  25.570  0.00  0.00    +0.019 C 
ATOM     20  C   UNL     1      -4.585   2.874  25.451  0.00  0.00    +0.073 C 
ATOM     21  N   UNL     1      -4.075   2.355  25.063  0.00  0.00    -0.262 NA
BRANCH  21  22
ATOM     22  C   UNL     1      -3.298   2.518  24.835  0.00  0.00    +0.106 C 
BRANCH  22  23
ATOM     23  C   UNL     1      -2.913   3.185  25.130  0.00  0.00    +0.023 A 
ATOM     24  C   UNL     1      -2.481   3.225  25.833  0.00  0.00    +0.004 A 
ATOM     25  C   UNL     1      -2.194   3.993  25.911  0.00  0.00    +0.007 A 
ATOM     26  C   UNL     1      -2.447   4.429  25.259  0.00  0.00    +0.035 A 
ATOM     27  S   UNL     1      -2.892   3.930  24.776  0.00  0.00    -0.089 S 
ENDBRANCH  22  23
ENDBRANCH  21  22
ENDBRANCH  15  17
TORSDOF 8
ENDMDL
MODEL 3
REMARK VINA RESULT:      -9.6      1.498      3.142
REMARK  Name = 
REMARK  8 active torsions:
REMARK  status: ('A' for Active; 'I' for Inactive)
REMARK    1  A    between atoms: O_2  and  C_3
REMARK    2  A    between atoms: C_3  and  C_4
REMARK    3  A    between atoms: C_4  and  N_5
REMARK    4  A    between atoms: N_5  and  C_6
REMARK    5  A    between atoms: C_7  and  C_12
REMARK    6  A    between atoms: C_15  and  C_17
REMARK    7  A    between atoms: N_21  and  C_22
REMARK    8  A    between atoms: C_22  and  C_23
REMARK                            x       y       z     vdW  Elec       q    Type
REMARK                         _______ _______ _______ _____ _____    ______ ____
ROOT
ATOM     12  C   UNL     1      -4.313   1.570  24.584  0.00  0.00    +0.206 A 
ATOM     13  N   UNL     1      -3.966   1.594  23.837  0.00  0.00    -0.056 NA
ATOM     14  O   UNL     1      -3.676   0.841  23.666  0.00  0.00    -0.336 OA
ATOM     15  C   UNL     1      -3.844   0.351  24.309  0.00  0.00    +0.251 A 
ATOM     16  N   UNL     1      -4.238   0.802  24.877  0.00  0.00    -0.190 NA
ENDROOT
BRANCH  12   7
ATOM      6  C   UNL     1      -4.222   2.851  25.211  0.00  0.00    +0.151 A 
ATOM      7  C   UNL     1      -4.673   2.203  24.972  0.00  0.00    +0.072 A 
ATOM      8  C   UNL     1      -5.485   2.188  25.122  0.00  0.00    +0.008 A 
ATOM      9  C   UNL     1      -5.845   2.821  25.510  0.00  0.00    +0.021 A 
ATOM     10  C   UNL     1      -5.392   3.469  25.748  0.00  0.00    +0.100 A 
ATOM     11  N   UNL     1      -4.582   3.484  25.599  0.00  0.00    -0.228 NA
BRANCH   6   5
ATOM      5  N   UNL     1      -3.410   2.865  25.062  0.00  0.00    -0.218 NA
BRANCH   5   4
ATOM      4  C   UNL     1      -2.953   3.496  25.333  0.00  0.00    +0.146 C 
BRANCH   4   3
ATOM      3  C   UNL     1      -2.142   3.514  25.179  0.00  0.00    +0.166 C 
BRANCH   3   2
ATOM      1  C   UNL     1      -0.964   4.302  24.999  0.00  0.00    +0.174 C 
ATOM      2  O   UNL     1      -1.706   4.195  25.343  0.00  0.00    -0.349 OA
ENDBRANCH   3   2
ENDBRANCH   4   3
ENDBRANCH   5   4
ENDBRANCH   6   5
ENDBRANCH  12   7
BRANCH  15  17
ATOM     17  C   UNL     1      -3.652  -0.449  24.372  0.00  0.00    +0.138 C 
ATOM     18  C   UNL     1      -4.165  -1.082  24.248  0.00  0.00    +0.027 C 
ATOM     19  C   UNL     1      -3.743  -1.780  24.370  0.00  0.00    +0.019 C 
ATOM     20  C   UNL     1      -2.968  -1.578  24.570  0.00  0.00    +0.073 C 
ATOM     21  N   UNL     1      -2.912  -0.755  24.572  0.00  0.00    -0.262 NA
BRANCH  21  22
ATOM     22  C   UNL     1      -2.235  -0.315  24.743  0.00  0.00    +0.106 C 
BRANCH  22  23
ATOM     23  C   UNL     1      -1.510  -0.696  24.843  0.00  0.00    +0.023 A 
ATOM     24  C   UNL     1      -1.274  -1.121  25.510  0.00  0.00    +0.004 A 
ATOM     25  C   UNL     1      -0.513  -1.406  25.373  0.00  0.00    +0.007 A 
ATOM     26  C   UNL     1      -0.277  -1.158  24.623  0.00  0.00    +0.035 A 
ATOM     27  S   UNL     1      -0.894  -0.719  24.295  0.00  0.00    -0.089 S 
ENDBRANCH  22  23
ENDBRANCH  21  22
ENDBRANCH  15  17
TORSDOF 8
ENDMDL
MODEL 4
REMARK VINA RESULT:      -9.5      1.180      2.972
REMARK  Name = 
REMARK  8 active torsions:
REMARK  status: ('A' for Active; 'I' for Inactive)
REMARK    1  A    between atoms: O_2  and  C_3
REMARK    2  A    between atoms: C_3  and  C_4
REMARK    3  A    between atoms: C_4  and  N_5
REMARK    4  A    between atoms: N_5  and  C_6
REMARK    5  A    between atoms: C_7  and  C_12
REMARK    6  A    between atoms: C_15  and  C_17
REMARK    7  A    between atoms: N_21  and  C_22
REMARK    8  A    between atoms: C_22  and  C_23
REMARK                            x       y       z     vdW  Elec       q    Type
REMARK                         _______ _______ _______ _____ _____    ______ ____
ROOT
ATOM     12  C   UNL     1      -1.649   2.399  24.382  0.00  0.00    +0.206 A 
ATOM     13  N   UNL     1      -1.806   2.201  23.597  0.00  0.00    -0.056 NA
ATOM     14  O   UNL     1      -1.648   1.397  23.501  0.00  0.00    -0.336 OA
ATOM     15  C   UNL     1      -1.395   1.098  24.227  0.00  0.00    +0.251 A 
ATOM     16  N   UNL     1      -1.395   1.718  24.772  0.00  0.00    -0.190 NA
ENDROOT
BRANCH  12   7
ATOM      6  C   UNL     1      -2.476   3.412  24.959  0.00  0.00    +0.151 A 
ATOM      7  C   UNL     1      -1.733   3.147  24.719  0.00  0.00    +0.072 A 
ATOM      8  C   UNL     1      -1.071   3.632  24.817  0.00  0.00    +0.008 A 
ATOM      9  C   UNL     1      -1.154   4.380  25.154  0.00  0.00    +0.021 A 
ATOM     10  C   UNL     1      -1.899   4.644  25.393  0.00  0.00    +0.100 A 
ATOM     11  N   UNL     1      -2.559   4.160  25.296  0.00  0.00    -0.228 NA
BRANCH   6   5
ATOM      5  N   UNL     1      -3.137   2.927  24.861  0.00  0.00    -0.218 NA
BRANCH   5   4
ATOM      4  C   UNL     1      -3.859   3.142  25.198  0.00  0.00    +0.146 C 
BRANCH   4   3
ATOM      3  C   UNL     1      -4.547   2.733  24.995  0.00  0.00    +0.166 C 
BRANCH   3   2
ATOM      1  C   UNL     1      -5.749   2.065  25.382  0.00  0.00    +0.174 C 
ATOM      2  O   UNL     1      -5.062   2.475  25.585  0.00  0.00    -0.349 OA
ENDBRANCH   3   2
ENDBRANCH   4   3
ENDBRANCH   5   4
ENDBRANCH   6   5
ENDBRANCH  12   7
BRANCH  15  17
ATOM     17  C   UNL     1      -1.178   0.316  24.381  0.00  0.00    +0.138 C 
ATOM     18  C   UNL     1      -0.409   0.018  24.386  0.00  0.00    +0.027 C 
ATOM     19  C   UNL     1      -0.449  -0.786  24.565  0.00  0.00    +0.019 C 
ATOM     20  C   UNL     1      -1.243  -0.985  24.671  0.00  0.00    +0.073 C 
ATOM     21  N   UNL     1      -1.693  -0.304  24.557  0.00  0.00    -0.262 NA
BRANCH  21  22
ATOM     22  C   UNL     1      -2.515  -0.251  24.611  0.00  0.00    +0.106 C 
BRANCH  22  23
ATOM     23  C   UNL     1      -2.962  -0.924  24.773  0.00  0.00    +0.023 A 
ATOM     24  C   UNL     1      -3.249  -1.462  24.216  0.00  0.00    +0.004 A 
ATOM     25  C   UNL     1      -3.664  -2.049  24.620  0.00  0.00    +0.007 A 
ATOM     26  C   UNL     1      -3.635  -1.875  25.425  0.00  0.00    +0.035 A 
ATOM     27  S   UNL     1      -3.200  -1.180  25.520  0.00  0.00    -0.089 S 
ENDBRANCH  22  23
ENDBRANCH  21  22
ENDBRANCH  15  17
TORSDOF 8
ENDMDL
MODEL 5
REMARK VINA RESULT:      -9.2      1.390      3.727
REMARK  Name = 
REMARK  8 active torsions:
REMARK  status: ('A' for Active; 'I' for Inactive)
REMARK    1  A    between atoms: O_2  and  C_3
REMARK    2  A    between atoms: C_3  and  C_4
REMARK    3  A    between atoms: C_4  and  N_5
REMARK    4  A    between atoms: N_5  and  C_6
REMARK    5  A    between atoms: C_7  and  C_12
REMARK    6  A    between atoms: C_15  and  C_17
REMARK    7  A    between atoms: N_21  and  C_22
REMARK    8  A    between atoms: C_22  and  C_23
REMARK                            x       y       z     vdW  Elec       q    Type
REMARK                         _______ _______ _______ _____ _____    ______ ____
ROOT
ATOM     12  C   UNL     1      -3.480   2.514  24.735  0.00  0.00    +0.206 A 
ATOM     13  N   UNL     1      -3.227   2.749  23.987  0.00  0.00    -0.056 NA
ATOM     14  O   UNL     1      -2.402   2.722  23.977  0.00  0.00    -0.336 OA
ATOM     15  C   UNL     1      -2.147   2.470  24.720  0.00  0.00    +0.251 A 
ATOM     16  N   UNL     1      -2.813   2.341  25.189  0.00  0.00    -0.190 NA
ENDROOT
BRANCH  12   7
ATOM      6  C   UNL     1      -4.670   1.745  24.925  0.00  0.00    +0.151 A 
ATOM      7  C   UNL     1      -4.264   2.461  24.987  0.00  0.00    +0.072 A 
ATOM      8  C   UNL     1      -4.643   3.123  25.302  0.00  0.00    +0.008 A 
ATOM      9  C   UNL     1      -5.426   3.070  25.554  0.00  0.00    +0.021 A 
ATOM     10  C   UNL     1      -5.832   2.354  25.491  0.00  0.00    +0.100 A 
ATOM     11  N   UNL     1      -5.454   1.692  25.176  0.00  0.00    -0.228 NA
BRANCH   6   5
ATOM      5  N   UNL     1      -4.292   1.083  24.609  0.00  0.00    -0.218 NA
BRANCH   5   4
ATOM      4  C   UNL     1      -4.644   0.339  24.670  0.00  0.00    +0.146 C 
BRANCH   4   3
ATOM      3  C   UNL     1      -4.367  -0.287  24.209  0.00  0.00    +0.166 C 
BRANCH   3   2
ATOM      1  C   UNL     1      -4.076  -1.679  24.065  0.00  0.00    +0.174 C 
ATOM      2  O   UNL     1      -4.280  -1.037  24.542  0.00  0.00    -0.349 OA
ENDBRANCH   3   2
ENDBRANCH   4   3
ENDBRANCH   5   4
ENDBRANCH   6   5
ENDBRANCH  12   7
BRANCH  15  17
ATOM     17  C   UNL     1      -1.362   2.365  24.952  0.00  0.00    +0.138 C 
ATOM     18  C   UNL     1      -0.943   2.845  25.475  0.00  0.00    +0.027 C 
ATOM     19  C   UNL     1      -0.181   2.538  25.548  0.00  0.00    +0.019 C 
ATOM     20  C   UNL     1      -0.129   1.867  25.070  0.00  0.00    +0.073 C 
ATOM     21  N   UNL     1      -0.859   1.760  24.702  0.00  0.00    -0.262 NA
BRANCH  21  22
ATOM     22  C   UNL     1      -1.052   1.155  24.175  0.00  0.00    +0.106 C 
BRANCH  22  23
ATOM     23  C   UNL     1      -0.631   0.446  24.189  0.00  0.00    +0.023 A 
ATOM     24  C   UNL     1      -0.736  -0.170  24.728  0.00  0.00    +0.004 A 
ATOM     25  C   UNL     1      -0.201  -0.768  24.538  0.00  0.00    +0.007 A 
ATOM     26  C   UNL     1       0.235  -0.522  23.882  0.00  0.00    +0.035 A 
ATOM     27  S   UNL     1      -0.031   0.229  23.666  0.00  0.00    -0.089 S 
ENDBRANCH  22  23
ENDBRANCH  21  22
ENDBRANCH  15  17
TORSDOF 8
ENDMDL
MODEL 6
REMARK VINA RESULT:      -9.1      1.618      5.072
REMARK  Name = 
REMARK  8 active torsions:
REMARK  status: ('A' for Active; 'I' for Inactive)
REMARK    1  A    between atoms: O_2  and  C_3
REMARK    2  A    between atoms: C_3  and  C_4
REMARK    3  A    between atoms: C_4  and  N_5
REMARK    4  A    between atoms: N_5  and  C_6
REMARK    5  A    between atoms: C_7  and  C_12
REMARK    6  A    between atoms: C_15  and  C_17
REMARK    7  A    between atoms: N_21  and  C_22
REMARK    8  A    between atoms: C_22  and  C_23
REMARK                            x       y       z     vdW  Elec       q    Type
REMARK                         _______ _______ _______ _____ _____    ______ ____
ROOT
ATOM     12  C   UNL     1      -2.161  -0.653  25.025  0.00  0.00    +0.206 A 
ATOM     13  N   UNL     1      -1.877  -0.547  25.791  0.00  0.00    -0.056 NA
ATOM     14  O   UNL     1      -1.298   0.041  25.769  0.00  0.00    -0.336 OA
ATOM     15  C   UNL     1      -1.224   0.296  24.988  0.00  0.00    +0.251 A 
ATOM     16  N   UNL     1      -1.758  -0.133  24.528  0.00  0.00    -0.190 NA
ENDROOT
BRANCH  12   7
ATOM      6  C   UNL     1      -3.534  -0.946  24.757  0.00  0.00    +0.151 A 
ATOM      7  C   UNL     1      -2.746  -1.187  24.795  0.00  0.00    +0.072 A 
ATOM      8  C   UNL     1      -2.544  -1.965  24.603  0.00  0.00    +0.008 A 
ATOM      9  C   UNL     1      -3.129  -2.499  24.373  0.00  0.00    +0.021 A 
ATOM     10  C   UNL     1      -3.917  -2.256  24.335  0.00  0.00    +0.100 A 
ATOM     11  N   UNL     1      -4.119  -1.480  24.527  0.00  0.00    -0.228 NA
BRANCH   6   5
ATOM      5  N   UNL     1      -3.736  -0.169  24.949  0.00  0.00    -0.218 NA
BRANCH   5   4
ATOM      4  C   UNL     1      -4.502   0.104  24.808  0.00  0.00    +0.146 C 
BRANCH   4   3
ATOM      3  C   UNL     1      -4.761   0.805  25.160  0.00  0.00    +0.166 C 
BRANCH   3   2
ATOM      1  C   UNL     1      -5.633   1.933  25.074  0.00  0.00    +0.174 C 
ATOM      2  O   UNL     1      -5.150   1.374  24.706  0.00  0.00    -0.349 OA
ENDBRANCH   3   2
ENDBRANCH   4   3
ENDBRANCH   5   4
ENDBRANCH   6   5
ENDBRANCH  12   7
BRANCH  15  17
ATOM     17  C   UNL     1      -0.707   0.879  24.715  0.00  0.00    +0.138 C 
ATOM     18  C   UNL     1      -0.036   0.754  24.253  0.00  0.00    +0.027 C 
ATOM     19  C   UNL     1       0.315   1.486  24.109  0.00  0.00    +0.019 C 
ATOM     20  C   UNL     1      -0.140   2.065  24.482  0.00  0.00    +0.073 C 
ATOM     21  N   UNL     1      -0.772   1.689  24.857  0.00  0.00    -0.262 NA
BRANCH  21  22
ATOM     22  C   UNL     1      -1.365   2.059  25.296  0.00  0.00    +0.106 C 
BRANCH  22  23
ATOM     23  C   UNL     1      -1.461   2.877  25.253  0.00  0.00    +0.023 A 
ATOM     24  C   UNL     1      -1.025   3.439  25.672  0.00  0.00    +0.004 A 
ATOM     25  C   UNL     1      -1.304   4.186  25.461  0.00  0.00    +0.007 A 
ATOM     26  C   UNL     1      -1.911   4.087  24.912  0.00  0.00    +0.035 A 
ATOM     27  S   UNL     1      -2.008   3.277  24.783  0.00  0.00    -0.089 S 
ENDBRANCH  22  23
ENDBRANCH  21  22
ENDBRANCH  15  17
TORSDOF 8
ENDMDL
MODEL 7
REMARK VINA RESULT:      -8.8      2.088      3.552
REMARK  Name = 
REMARK  8 active torsions:
REMARK  status: ('A' for Active; 'I' for Inactive)
REMARK    1  A    between atoms: O_2  and  C_3
REMARK    2  A    between atoms: C_3  and  C_4
REMARK    3  A    between atoms: C_4  and  N_5
REMARK    4  A    between atoms: N_5  and  C_6
REMARK    5  A    between atoms: C_7  and  C_12
REMARK    6  A    between atoms: C_15  and  C_17
REMARK    7  A    between atoms: N_21  and  C_22
REMARK    8  A    between atoms: C_22  and  C_23
REMARK                            x       y       z     vdW  Elec       q    Type
REMARK                         _______ _______ _______ _____ _____    ______ ____
ROOT
ATOM     12  C   UNL     1      -1.485   0.658  24.846  0.00  0.00    +0.206 A 
ATOM     13  N   UNL     1      -1.158   1.364  25.118  0.00  0.00    -0.056 NA
ATOM     14  O   UNL     1      -1.596   1.987  24.801  0.00  0.00    -0.336 OA
ATOM     15  C   UNL     1      -2.194   1.666  24.333  0.00  0.00    +0.251 A 
ATOM     16  N   UNL     1      -2.126   0.844  24.361  0.00  0.00    -0.190 NA
ENDROOT
BRANCH  12   7
ATOM      6  C   UNL     1      -0.584  -0.426  24.612  0.00  0.00    +0.151 A 
ATOM      7  C   UNL     1      -1.219  -0.101  25.027  0.00  0.00    +0.072 A 
ATOM      8  C   UNL     1      -1.587  -0.537  25.624  0.00  0.00    +0.008 A 
ATOM      9  C   UNL     1      -1.321  -1.296  25.805  0.00  0.00    +0.021 A 
ATOM     10  C   UNL     1      -0.686  -1.620  25.389  0.00  0.00    +0.100 A 
ATOM     11  N   UNL     1      -0.318  -1.186  24.793  0.00  0.00    -0.228 NA
BRANCH   6   5
ATOM      5  N   UNL     1      -0.216   0.009  24.015  0.00  0.00    -0.218 NA
BRANCH   5   4
ATOM      4  C   UNL     1       0.385  -0.334  23.566  0.00  0.00    +0.146 C 
BRANCH   4   3
ATOM      3  C   UNL     1       0.877   0.141  23.103  0.00  0.00    +0.166 C 
BRANCH   3   2
ATOM      1  C   UNL     1       2.142   0.076  22.442  0.00  0.00    +0.174 C 
ATOM      2  O   UNL     1       1.371  -0.203  22.540  0.00  0.00    -0.349 OA
ENDBRANCH   3   2
ENDBRANCH   4   3
ENDBRANCH   5   4
ENDBRANCH   6   5
ENDBRANCH  12   7
BRANCH  15  17
ATOM     17  C   UNL     1      -2.762   2.092  23.911  0.00  0.00    +0.138 C 
ATOM     18  C   UNL     1      -2.733   2.273  23.108  0.00  0.00    +0.027 C 
ATOM     19  C   UNL     1      -3.411   2.704  22.919  0.00  0.00    +0.019 C 
ATOM     20  C   UNL     1      -3.859   2.789  23.607  0.00  0.00    +0.073 C 
ATOM     21  N   UNL     1      -3.457   2.410  24.220  0.00  0.00    -0.262 NA
BRANCH  21  22
ATOM     22  C   UNL     1      -3.708   2.359  25.005  0.00  0.00    +0.106 C 
BRANCH  22  23
ATOM     23  C   UNL     1      -4.489   2.535  25.201  0.00  0.00    +0.023 A 
ATOM     24  C   UNL     1      -5.129   2.014  25.157  0.00  0.00    +0.004 A 
ATOM     25  C   UNL     1      -5.803   2.419  25.404  0.00  0.00    +0.007 A 
ATOM     26  C   UNL     1      -5.582   3.189  25.601  0.00  0.00    +0.035 A 
ATOM     27  S   UNL     1      -4.769   3.260  25.475  0.00  0.00    -0.089 S 
ENDBRANCH  22  23
ENDBRANCH  21  22
ENDBRANCH  15  17
TORSDOF 8
ENDMDL
MODEL 8
REMARK VINA RESULT:      -8.7      1.816      3.978
REMARK  Name = 
REMARK  8 active torsions:
REMARK  status: ('A' for Active; 'I' for Inactive)
REMARK    1  A    between atoms: O_2  and  C_3
REMARK    2  A    between atoms: C_3  and  C_4
REMARK    3  A    between atoms: C_4  and  N_5
REMARK    4  A    between atoms: N_5  and  C_6
REMARK    5  A    between atoms: C_7  and  C_12
REMARK    6  A    between atoms: C_15  and  C_17
REMARK    7  A    between atoms: N_21  and  C_22
REMARK    8  A    between atoms: C_22  and  C_23
REMARK                            x       y       z     vdW  Elec       q    Type
REMARK                         _______ _______ _______ _____ _____    ______ ____
ROOT
ATOM     12  C   UNL     1      -0.347   1.692  24.849  0.00  0.00    +0.206 A 
ATOM     13  N   UNL     1      -0.229   1.774  25.660  0.00  0.00    -0.056 NA
ATOM     14  O   UNL     1      -0.558   2.494  25.894  0.00  0.00    -0.336 OA
ATOM     15  C   UNL     1      -0.880   2.856  25.225  0.00  0.00    +0.251 A 
ATOM     16  N   UNL     1      -0.749   2.359  24.579  0.00  0.00    -0.190 NA
ENDROOT
BRANCH  12   7
ATOM      6  C   UNL     1      -0.522   0.341  24.415  0.00  0.00    +0.151 A 
ATOM      7  C   UNL     1      -0.105   1.052  24.387  0.00  0.00    +0.072 A 
ATOM      8  C   UNL     1       0.554   1.124  23.895  0.00  0.00    +0.008 A 
ATOM      9  C   UNL     1       0.796   0.485  23.433  0.00  0.00    +0.021 A 
ATOM     10  C   UNL     1       0.378  -0.226  23.462  0.00  0.00    +0.100 A 
ATOM     11  N   UNL     1      -0.280  -0.298  23.953  0.00  0.00    -0.228 NA
BRANCH   6   5
ATOM      5  N   UNL     1      -1.182   0.269  24.907  0.00  0.00    -0.218 NA
BRANCH   5   4
ATOM      4  C   UNL     1      -1.690  -0.374  24.821  0.00  0.00    +0.146 C 
BRANCH   4   3
ATOM      3  C   UNL     1      -2.239  -0.547  25.414  0.00  0.00    +0.166 C 
BRANCH   3   2
ATOM      1  C   UNL     1      -3.545  -1.061  25.680  0.00  0.00    +0.174 C 
ATOM      2  O   UNL     1      -3.043  -0.584  25.232  0.00  0.00    -0.349 OA
ENDBRANCH   3   2
ENDBRANCH   4   3
ENDBRANCH   5   4
ENDBRANCH   6   5
ENDBRANCH  12   7
BRANCH  15  17
ATOM     17  C   UNL     1      -1.265   3.586  25.207  0.00  0.00    +0.138 C 
ATOM     18  C   UNL     1      -0.907   4.319  25.090  0.00  0.00    +0.027 C 
ATOM     19  C   UNL     1      -1.496   4.896  25.113  0.00  0.00    +0.019 C 
ATOM     20  C   UNL     1      -2.218   4.519  25.244  0.00  0.00    +0.073 C 
ATOM     21  N   UNL     1      -2.075   3.709  25.302  0.00  0.00    -0.262 NA
BRANCH  21  22
ATOM     22  C   UNL     1      -2.643   3.124  25.432  0.00  0.00    +0.106 C 
BRANCH  22  23
ATOM     23  C   UNL     1      -3.436   3.275  25.263  0.00  0.00    +0.023 A 
ATOM     24  C   UNL     1      -3.808   3.157  24.536  0.00  0.00    +0.004 A 
ATOM     25  C   UNL     1      -4.598   3.379  24.616  0.00  0.00    +0.007 A 
ATOM     26  C   UNL     1      -4.715   3.633  25.392  0.00  0.00    +0.035 A 
ATOM     27  S   UNL     1      -3.996   3.569  25.792  0.00  0.00    -0.089 S 
ENDBRANCH  22  23
ENDBRANCH  21  22
ENDBRANCH  15  17
TORSDOF 8
ENDMDL
