MODEL 1
REMARK VINA RESULT:     -12.5      0.000      0.000
REMARK  Name = 
REMARK  6 active torsions:
REMARK  status: ('A' for Active; 'I' for Inactive)
REMARK    1  A    between atoms: C_2  and  C_4
REMARK    2  A    between atoms: C_4  and  C_5
REMARK    3  A    between atoms: C_10  and  C_11
REMARK    4  A    between atoms: C_11  and  C_12
REMARK    5  A    between atoms: C_12  and  N_13
REMARK    6  A    between atoms: C_25  and  C_27
REMARK                            x       y       z     vdW  Elec       q    Type
REMARK                         _______ _______ _______ _____ _____    ______ ____
ROOT
ATOM      5  C   UNL     1      -4.083   3.380  25.277  0.00  0.00    +0.015 C 
ATOM      6  C   UNL     1      -3.913   4.182  25.365  0.00  0.00    +0.022 C 
ATOM      7  C   UNL     1      -3.129   4.438  25.386  0.00  0.00    +0.094 C 
ATOM      8  N   UNL     1      -2.515   3.890  25.318  0.00  0.00    -0.276 N 
ATOM      9  C   UNL     1      -2.686   3.088  25.230  0.00  0.00    +0.094 C 
ATOM     10  C   UNL     1      -3.470   2.833  25.209  0.00  0.00    +0.022 C 
ATOM     25  C   UNL     1      -1.732   4.145  25.339  0.00  0.00    +0.249 C 
ATOM     26  O   UNL     1      -1.561   4.948  25.427  0.00  0.00    -0.270 OA
ENDROOT
BRANCH  25  27
ATOM     27  C   UNL     1      -1.117   3.599  25.271  0.00  0.00    +0.054 A 
ATOM     28  C   UNL     1      -0.838   3.206  25.941  0.00  0.00    +0.007 A 
ATOM     29  C   UNL     1      -0.224   2.660  25.872  0.00  0.00    +0.030 A 
ATOM     30  C   UNL     1       0.111   2.506  25.134  0.00  0.00    +0.140 A 
ATOM     31  F   UNL     1       0.726   1.959  25.065  0.00  0.00    -0.204 F 
ATOM     32  C   UNL     1      -0.168   2.898  24.464  0.00  0.00    +0.030 A 
ATOM     33  C   UNL     1      -0.783   3.445  24.533  0.00  0.00    +0.007 A 
ENDBRANCH  25  27
BRANCH   5   4
ATOM      4  C   UNL     1      -4.869   3.124  25.256  0.00  0.00    +0.114 C 
BRANCH   4   2
ATOM      1  O   UNL     1      -5.815   4.158  25.533  0.00  0.00    -0.246 OA
ATOM      2  C   UNL     1      -5.426   3.466  25.759  0.00  0.00    +0.365 C 
ATOM      3  O   UNL     1      -5.595   3.117  26.486  0.00  0.00    -0.246 OA
ENDBRANCH   4   2
ENDBRANCH   5   4
BRANCH  10  11
ATOM     11  C   UNL     1      -3.640   2.031  25.121  0.00  0.00    +0.019 C 
BRANCH  11  12
ATOM     12  C   UNL     1      -3.333   1.612  24.479  0.00  0.00    +0.072 C 
BRANCH  12  13
ATOM     13  N   UNL     1      -3.394   0.789  24.456  0.00  0.00    -0.270 NA
ATOM     14  C   UNL     1      -2.915   0.325  24.941  0.00  0.00    +0.094 C 
ATOM     15  C   UNL     1      -2.976  -0.496  24.919  0.00  0.00    +0.109 C 
ATOM     16  N   UNL     1      -3.518  -0.855  24.410  0.00  0.00    -0.290 N 
ATOM     17  C   UNL     1      -3.998  -0.393  23.924  0.00  0.00    +0.109 C 
ATOM     18  C   UNL     1      -3.936   0.430  23.948  0.00  0.00    +0.094 C 
ATOM     19  C   UNL     1      -3.580  -1.677  24.387  0.00  0.00    +0.132 A 
ATOM     20  N   UNL     1      -3.099  -2.141  24.873  0.00  0.00    -0.229 NA
ATOM     21  C   UNL     1      -3.161  -2.963  24.849  0.00  0.00    +0.100 A 
ATOM     22  C   UNL     1      -3.702  -3.322  24.341  0.00  0.00    +0.021 A 
ATOM     23  C   UNL     1      -4.182  -2.859  23.856  0.00  0.00    +0.004 A 
ATOM     24  C   UNL     1      -4.120  -2.036  23.879  0.00  0.00    +0.034 A 
ENDBRANCH  12  13
ENDBRANCH  11  12
ENDBRANCH  10  11
TORSDOF 6
ENDMDL
MODEL 2
REMARK VINA RESULT:     -11.5      2.555      4.562
REMARK  Name = 
REMARK  6 active torsions:
REMARK  status: ('A' for Active; 'I' for Inactive)
REMARK    1  A    between atoms: C_2  and  C_4
REMARK    2  A    between atoms: C_4  and  C_5
REMARK    3  A    between atoms: C_10  and  C_11
REMARK    4  A    between atoms: C_11  and  C_12
REMARK    5  A    between atoms: C_12  and  N_13
REMARK    6  A    between atoms: C_25  and  C_27
REMARK                            x       y       z     vdW  Elec       q    Type
REMARK                         _______ _______ _______ _____ _____    ______ ____
ROOT
ATOM      5  C   UNL     1      -3.208   2.409  24.695  0.00  0.00    +0.015 C 
ATOM      6  C   UNL     1      -3.974   2.455  24.997  0.00  0.00    +0.022 C 
ATOM      7  C   UNL     1      -4.397   1.764  25.153  0.00  0.00    +0.094 C 
ATOM      8  N   UNL     1      -4.054   1.027  25.006  0.00  0.00    -0.276 N 
ATOM      9  C   UNL     1      -3.288   0.983  24.703  0.00  0.00    +0.094 C 
ATOM     10  C   UNL     1      -2.865   1.674  24.548  0.00  0.00    +0.022 C 
ATOM     25  C   UNL     1      -4.477   0.337  25.161  0.00  0.00    +0.249 C 
ATOM     26  O   UNL     1      -5.243   0.382  25.464  0.00  0.00    -0.270 OA
ENDROOT
BRANCH  25  27
ATOM     27  C   UNL     1      -4.134  -0.399  25.015  0.00  0.00    +0.054 A 
ATOM     28  C   UNL     1      -3.718  -0.787  25.612  0.00  0.00    +0.007 A 
ATOM     29  C   UNL     1      -3.376  -1.523  25.464  0.00  0.00    +0.030 A 
ATOM     30  C   UNL     1      -3.449  -1.871  24.720  0.00  0.00    +0.140 A 
ATOM     31  F   UNL     1      -3.107  -2.607  24.572  0.00  0.00    -0.204 F 
ATOM     32  C   UNL     1      -3.865  -1.482  24.122  0.00  0.00    +0.030 A 
ATOM     33  C   UNL     1      -4.208  -0.745  24.270  0.00  0.00    +0.007 A 
ENDBRANCH  25  27
BRANCH   5   4
ATOM      4  C   UNL     1      -2.784   3.101  24.539  0.00  0.00    +0.114 C 
BRANCH   4   2
ATOM      1  O   UNL     1      -2.949   4.222  25.410  0.00  0.00    -0.246 OA
ATOM      2  C   UNL     1      -3.122   3.836  24.701  0.00  0.00    +0.365 C 
ATOM      3  O   UNL     1      -3.632   4.186  24.156  0.00  0.00    -0.246 OA
ENDBRANCH   4   2
ENDBRANCH   5   4
BRANCH  10  11
ATOM     11  C   UNL     1      -2.099   1.629  24.246  0.00  0.00    +0.019 C 
BRANCH  11  12
ATOM     12  C   UNL     1      -1.509   1.240  24.672  0.00  0.00    +0.072 C 
BRANCH  12  13
ATOM     13  N   UNL     1      -0.778   1.088  24.321  0.00  0.00    -0.270 NA
ATOM     14  C   UNL     1      -0.141   1.596  24.455  0.00  0.00    +0.094 C 
ATOM     15  C   UNL     1       0.589   1.443  24.103  0.00  0.00    +0.109 C 
ATOM     16  N   UNL     1       0.683   0.784  23.617  0.00  0.00    -0.290 N 
ATOM     17  C   UNL     1       0.047   0.276  23.482  0.00  0.00    +0.109 C 
ATOM     18  C   UNL     1      -0.684   0.429  23.834  0.00  0.00    +0.094 C 
ATOM     19  C   UNL     1       1.413   0.631  23.264  0.00  0.00    +0.132 A 
ATOM     20  N   UNL     1       2.050   1.139  23.399  0.00  0.00    -0.229 NA
ATOM     21  C   UNL     1       2.780   0.986  23.047  0.00  0.00    +0.100 A 
ATOM     22  C   UNL     1       2.874   0.327  22.561  0.00  0.00    +0.021 A 
ATOM     23  C   UNL     1       2.238  -0.181  22.426  0.00  0.00    +0.004 A 
ATOM     24  C   UNL     1       1.507  -0.028  22.779  0.00  0.00    +0.034 A 
ENDBRANCH  12  13
ENDBRANCH  11  12
ENDBRANCH  10  11
TORSDOF 6
ENDMDL
MODEL 3
REMARK VINA RESULT:     -11.5      1.643      3.224
REMARK  Name = 
REMARK  6 active torsions:
REMARK  status: ('A' for Active; 'I' for Inactive)
REMARK    1  A    between atoms: C_2  and  C_4
REMARK    2  A    between atoms: C_4  and  C_5
REMARK    3  A    between atoms: C_10  and  C_11
REMARK    4  A    between atoms: C_11  and  C_12
REMARK    5  A    between atoms: C_12  and  N_13
REMARK    6  A    between atoms: C_25  and  C_27
REMARK                            x       y       z     vdW  Elec       q    Type
REMARK                         _______ _______ _______ _____ _____    ______ ____
ROOT
ATOM      5  C   UNL     1      -0.845   2.518  25.030  0.00  0.00    +0.015 C 
ATOM      6  C   UNL     1      -0.629   3.293  25.215  0.00  0.00    +0.022 C 
ATOM      7  C   UNL     1      -1.212   3.861  25.352  0.00  0.00    +0.094 C 
ATOM      8  N   UNL     1      -2.010   3.654  25.305  0.00  0.00    -0.276 N 
ATOM      9  C   UNL     1      -2.224   2.879  25.120  0.00  0.00    +0.094 C 
ATOM     10  C   UNL     1      -1.641   2.311  24.983  0.00  0.00    +0.022 C 
ATOM     25  C   UNL     1      -2.591   4.221  25.442  0.00  0.00    +0.249 C 
ATOM     26  O   UNL     1      -2.377   4.997  25.627  0.00  0.00    -0.270 OA
ENDROOT
BRANCH  25  27
ATOM     27  C   UNL     1      -3.389   4.015  25.395  0.00  0.00    +0.054 A 
ATOM     28  C   UNL     1      -3.774   4.017  24.665  0.00  0.00    +0.007 A 
ATOM     29  C   UNL     1      -4.570   3.811  24.619  0.00  0.00    +0.030 A 
ATOM     30  C   UNL     1      -4.984   3.602  25.302  0.00  0.00    +0.140 A 
ATOM     31  F   UNL     1      -5.781   3.396  25.256  0.00  0.00    -0.204 F 
ATOM     32  C   UNL     1      -4.599   3.600  26.032  0.00  0.00    +0.030 A 
ATOM     33  C   UNL     1      -3.801   3.807  26.078  0.00  0.00    +0.007 A 
ENDBRANCH  25  27
BRANCH   5   4
ATOM      4  C   UNL     1      -0.262   1.949  24.893  0.00  0.00    +0.114 C 
BRANCH   4   2
ATOM      1  O   UNL     1       0.952   2.262  24.208  0.00  0.00    -0.246 OA
ATOM      2  C   UNL     1       0.535   2.163  24.912  0.00  0.00    +0.365 C 
ATOM      3  O   UNL     1       0.914   2.278  25.635  0.00  0.00    -0.246 OA
ENDBRANCH   4   2
ENDBRANCH   5   4
BRANCH  10  11
ATOM     11  C   UNL     1      -1.856   1.537  24.799  0.00  0.00    +0.019 C 
BRANCH  11  12
ATOM     12  C   UNL     1      -2.311   1.097  25.330  0.00  0.00    +0.072 C 
BRANCH  12  13
ATOM     13  N   UNL     1      -2.613   0.363  25.104  0.00  0.00    -0.270 NA
ATOM     14  C   UNL     1      -2.277  -0.331  25.398  0.00  0.00    +0.094 C 
ATOM     15  C   UNL     1      -2.579  -1.064  25.173  0.00  0.00    +0.109 C 
ATOM     16  N   UNL     1      -3.218  -1.104  24.652  0.00  0.00    -0.290 N 
ATOM     17  C   UNL     1      -3.555  -0.411  24.357  0.00  0.00    +0.109 C 
ATOM     18  C   UNL     1      -3.252   0.323  24.583  0.00  0.00    +0.094 C 
ATOM     19  C   UNL     1      -3.520  -1.837  24.425  0.00  0.00    +0.132 A 
ATOM     20  N   UNL     1      -3.184  -2.531  24.721  0.00  0.00    -0.229 NA
ATOM     21  C   UNL     1      -3.486  -3.264  24.494  0.00  0.00    +0.100 A 
ATOM     22  C   UNL     1      -4.124  -3.305  23.974  0.00  0.00    +0.021 A 
ATOM     23  C   UNL     1      -4.461  -2.612  23.679  0.00  0.00    +0.004 A 
ATOM     24  C   UNL     1      -4.158  -1.878  23.905  0.00  0.00    +0.034 A 
ENDBRANCH  12  13
ENDBRANCH  11  12
ENDBRANCH  10  11
TORSDOF 6
ENDMDL
MODEL 4
REMARK VINA RESULT:     -10.9      2.745      4.602
REMARK  Name = 
REMARK  6 active torsions:
REMARK  status: ('A' for Active; 'I' for Inactive)
REMARK    1  A    between atoms: C_2  and  C_4
REMARK    2  A    between atoms: C_4  and  C_5
REMARK    3  A    between atoms: C_10  and  C_11
REMARK    4  A    between atoms: C_11  and  C_12
REMARK    5  A    between atoms: C_12  and  N_13
REMARK    6  A    between atoms: C_25  and  C_27
REMARK                            x       y       z     vdW  Elec       q    Type
REMARK                         _______ _______ _______ _____ _____    ______ ____
ROOT
ATOM      5  C   UNL     1      -3.607  -0.460  24.547  0.00  0.00    +0.015 C 
ATOM      6  C   UNL     1      -4.379  -0.391  24.830  0.00  0.00    +0.022 C 
ATOM      7  C   UNL     1      -4.697   0.355  24.984  0.00  0.00    +0.094 C 
ATOM      8  N   UNL     1      -4.242   1.032  24.854  0.00  0.00    -0.276 N 
ATOM      9  C   UNL     1      -3.471   0.962  24.571  0.00  0.00    +0.094 C 
ATOM     10  C   UNL     1      -3.153   0.216  24.418  0.00  0.00    +0.022 C 
ATOM     25  C   UNL     1      -4.560   1.777  25.007  0.00  0.00    +0.249 C 
ATOM     26  O   UNL     1      -5.332   1.846  25.291  0.00  0.00    -0.270 OA
ENDROOT
BRANCH  25  27
ATOM     27  C   UNL     1      -4.106   2.453  24.878  0.00  0.00    +0.054 A 
ATOM     28  C   UNL     1      -4.079   2.795  24.128  0.00  0.00    +0.007 A 
ATOM     29  C   UNL     1      -3.625   3.472  24.000  0.00  0.00    +0.030 A 
ATOM     30  C   UNL     1      -3.198   3.807  24.621  0.00  0.00    +0.140 A 
ATOM     31  F   UNL     1      -2.743   4.484  24.493  0.00  0.00    -0.204 F 
ATOM     32  C   UNL     1      -3.225   3.464  25.371  0.00  0.00    +0.030 A 
ATOM     33  C   UNL     1      -3.679   2.787  25.500  0.00  0.00    +0.007 A 
ENDBRANCH  25  27
BRANCH   5   4
ATOM      4  C   UNL     1      -3.289  -1.207  24.394  0.00  0.00    +0.114 C 
BRANCH   4   2
ATOM      1  O   UNL     1      -3.734  -2.328  25.159  0.00  0.00    -0.246 OA
ATOM      2  C   UNL     1      -3.762  -1.879  24.468  0.00  0.00    +0.365 C 
ATOM      3  O   UNL     1      -4.262  -2.102  23.852  0.00  0.00    -0.246 OA
ENDBRANCH   4   2
ENDBRANCH   5   4
BRANCH  10  11
ATOM     11  C   UNL     1      -2.382   0.147  24.135  0.00  0.00    +0.019 C 
BRANCH  11  12
ATOM     12  C   UNL     1      -1.747   0.396  24.602  0.00  0.00    +0.072 C 
BRANCH  12  13
ATOM     13  N   UNL     1      -0.987   0.426  24.282  0.00  0.00    -0.270 NA
ATOM     14  C   UNL     1      -0.508   1.084  24.415  0.00  0.00    +0.094 C 
ATOM     15  C   UNL     1       0.251   1.113  24.095  0.00  0.00    +0.109 C 
ATOM     16  N   UNL     1       0.532   0.485  23.641  0.00  0.00    -0.290 N 
ATOM     17  C   UNL     1       0.053  -0.174  23.506  0.00  0.00    +0.109 C 
ATOM     18  C   UNL     1      -0.707  -0.203  23.827  0.00  0.00    +0.094 C 
ATOM     19  C   UNL     1       1.291   0.513  23.320  0.00  0.00    +0.132 A 
ATOM     20  N   UNL     1       1.771   1.172  23.455  0.00  0.00    -0.229 NA
ATOM     21  C   UNL     1       2.530   1.201  23.134  0.00  0.00    +0.100 A 
ATOM     22  C   UNL     1       2.810   0.573  22.680  0.00  0.00    +0.021 A 
ATOM     23  C   UNL     1       2.332  -0.085  22.545  0.00  0.00    +0.004 A 
ATOM     24  C   UNL     1       1.572  -0.114  22.866  0.00  0.00    +0.034 A 
ENDBRANCH  12  13
ENDBRANCH  11  12
ENDBRANCH  10  11
TORSDOF 6
ENDMDL
MODEL 5
REMARK VINA RESULT:     -10.5      2.494      4.808
REMARK  Name = 
REMARK  6 active torsions:
REMARK  status: ('A' for Active; 'I' for Inactive)
REMARK    1  A    between atoms: C_2  and  C_4
REMARK    2  A    between atoms: C_4  and  C_5
REMARK    3  A    between atoms: C_10  and  C_11
REMARK    4  A    between atoms: C_11  and  C_12
REMARK    5  A    between atoms: C_12  and  N_13
REMARK    6  A    between atoms: C_25  and  C_27
REMARK                            x       y       z     vdW  Elec       q    Type
REMARK                         _______ _______ _______ _____ _____    ______ ____
ROOT
ATOM      5  C   UNL     1      -2.823  -1.721  24.571  0.00  0.00    +0.015 C 
ATOM      6  C   UNL     1      -2.166  -2.203  24.445  0.00  0.00    +0.022 C 
ATOM      7  C   UNL     1      -1.409  -1.875  24.437  0.00  0.00    +0.094 C 
ATOM      8  N   UNL     1      -1.310  -1.063  24.555  0.00  0.00    -0.276 N 
ATOM      9  C   UNL     1      -1.968  -0.582  24.681  0.00  0.00    +0.094 C 
ATOM     10  C   UNL     1      -2.725  -0.911  24.689  0.00  0.00    +0.022 C 
ATOM     25  C   UNL     1      -0.554  -0.735  24.547  0.00  0.00    +0.249 C 
ATOM     26  O   UNL     1       0.104  -1.217  24.420  0.00  0.00    -0.270 OA
ENDROOT
BRANCH  25  27
ATOM     27  C   UNL     1      -0.454   0.075  24.665  0.00  0.00    +0.054 A 
ATOM     28  C   UNL     1      -0.510   0.392  25.424  0.00  0.00    +0.007 A 
ATOM     29  C   UNL     1      -0.410   1.202  25.541  0.00  0.00    +0.030 A 
ATOM     30  C   UNL     1      -0.255   1.696  24.899  0.00  0.00    +0.140 A 
ATOM     31  F   UNL     1      -0.155   2.507  25.015  0.00  0.00    -0.204 F 
ATOM     32  C   UNL     1      -0.200   1.379  24.139  0.00  0.00    +0.030 A 
ATOM     33  C   UNL     1      -0.299   0.568  24.022  0.00  0.00    +0.007 A 
ENDBRANCH  25  27
BRANCH   5   4
ATOM      4  C   UNL     1      -3.581  -2.050  24.580  0.00  0.00    +0.114 C 
BRANCH   4   2
ATOM      1  O   UNL     1      -3.844  -3.262  23.872  0.00  0.00    -0.246 OA
ATOM      2  C   UNL     1      -3.674  -2.869  24.577  0.00  0.00    +0.365 C 
ATOM      3  O   UNL     1      -3.598  -3.296  25.278  0.00  0.00    -0.246 OA
ENDBRANCH   4   2
ENDBRANCH   5   4
BRANCH  10  11
ATOM     11  C   UNL     1      -3.382  -0.429  24.815  0.00  0.00    +0.019 C 
BRANCH  11  12
ATOM     12  C   UNL     1      -3.611   0.115  24.238  0.00  0.00    +0.072 C 
BRANCH  12  13
ATOM     13  N   UNL     1      -3.963   0.828  24.460  0.00  0.00    -0.270 NA
ATOM     14  C   UNL     1      -4.598   0.830  24.987  0.00  0.00    +0.094 C 
ATOM     15  C   UNL     1      -4.948   1.542  25.209  0.00  0.00    +0.109 C 
ATOM     16  N   UNL     1      -4.664   2.254  24.904  0.00  0.00    -0.290 N 
ATOM     17  C   UNL     1      -4.029   2.254  24.377  0.00  0.00    +0.109 C 
ATOM     18  C   UNL     1      -3.678   1.540  24.155  0.00  0.00    +0.094 C 
ATOM     19  C   UNL     1      -5.014   2.967  25.125  0.00  0.00    +0.132 A 
ATOM     20  N   UNL     1      -5.650   2.968  25.652  0.00  0.00    -0.229 NA
ATOM     21  C   UNL     1      -6.000   3.682  25.874  0.00  0.00    +0.100 A 
ATOM     22  C   UNL     1      -5.716   4.393  25.569  0.00  0.00    +0.021 A 
ATOM     23  C   UNL     1      -5.082   4.392  25.042  0.00  0.00    +0.004 A 
ATOM     24  C   UNL     1      -4.731   3.678  24.820  0.00  0.00    +0.034 A 
ENDBRANCH  12  13
ENDBRANCH  11  12
ENDBRANCH  10  11
TORSDOF 6
ENDMDL
