MODEL 1
REMARK VINA RESULT:     -10.9      0.000      0.000
REMARK  Name = 
REMARK  8 active torsions:
REMARK  status: ('A' for Active; 'I' for Inactive)
REMARK    1  A    between atoms: O_2  and  C_3
REMARK    2  A    between atoms: C_6  and  C_9
REMARK    3  A    between atoms: N_11  and  C_12
REMARK    4  A    between atoms: C_12  and  C_13
REMARK    5  A    between atoms: C_15  and  C_16
REMARK    6  A    between atoms: C_16  and  C_17
REMARK    7  A    between atoms: N_19  and  C_20
REMARK    8  A    between atoms: C_20  and  C_21
REMARK                            x       y       z     vdW  Elec       q    Type
REMARK                         _______ _______ _______ _____ _____    ______ ____
ROOT
ATOM     13  C   UNL     1      -0.905   1.672  25.556  0.00  0.00    +0.170 C 
ATOM     14  O   UNL     1      -1.624   2.074  25.495  0.00  0.00    -0.351 OA
ATOM     15  C   UNL     1      -1.463   2.882  25.483  0.00  0.00    +0.157 C 
ATOM     27  C   UNL     1      -0.646   2.981  25.537  0.00  0.00    +0.212 C 
ATOM     28  O   UNL     1      -0.244   3.702  25.545  0.00  0.00    -0.218 OA
ATOM     29  C   UNL     1      -0.301   2.232  25.582  0.00  0.00    +0.213 C 
ATOM     30  O   UNL     1       0.506   2.074  25.643  0.00  0.00    -0.218 OA
ENDROOT
BRANCH  13  12
ATOM     12  C   UNL     1      -0.808   0.853  25.586  0.00  0.00    +0.148 C 
BRANCH  12  11
ATOM      9  C   UNL     1      -1.380  -0.455  25.515  0.00  0.00    +0.265 C 
ATOM     10  O   UNL     1      -0.712  -0.767  25.885  0.00  0.00    -0.268 OA
ATOM     11  N   UNL     1      -1.428   0.356  25.365  0.00  0.00    -0.199 NA
BRANCH   9   6
ATOM      3  C   UNL     1      -3.241  -1.947  24.855  0.00  0.00    +0.139 A 
ATOM      4  C   UNL     1      -2.509  -2.008  24.478  0.00  0.00    +0.037 A 
ATOM      5  C   UNL     1      -1.889  -1.511  24.698  0.00  0.00    +0.008 A 
ATOM      6  C   UNL     1      -2.000  -0.952  25.295  0.00  0.00    +0.055 A 
ATOM      7  C   UNL     1      -2.732  -0.890  25.672  0.00  0.00    +0.008 A 
ATOM      8  C   UNL     1      -3.352  -1.389  25.451  0.00  0.00    +0.037 A 
BRANCH   3   2
ATOM      1  C   UNL     1      -4.251  -2.324  23.917  0.00  0.00    +0.252 C 
ATOM      2  O   UNL     1      -3.861  -2.445  24.634  0.00  0.00    -0.471 OA
ENDBRANCH   3   2
ENDBRANCH   9   6
ENDBRANCH  12  11
ENDBRANCH  13  12
BRANCH  15  16
ATOM     16  C   UNL     1      -2.022   3.487  25.428  0.00  0.00    +0.119 C 
BRANCH  16  17
ATOM     17  C   UNL     1      -2.677   3.399  24.933  0.00  0.00    +0.244 C 
ATOM     18  O   UNL     1      -2.600   3.517  24.120  0.00  0.00    -0.273 OA
ATOM     19  N   UNL     1      -3.409   3.191  25.253  0.00  0.00    -0.199 NA
BRANCH  19  20
ATOM     20  C   UNL     1      -4.064   3.102  24.758  0.00  0.00    +0.160 C 
BRANCH  20  21
ATOM     21  C   UNL     1      -4.737   2.713  25.033  0.00  0.00    +0.081 A 
ATOM     22  N   UNL     1      -5.189   3.048  25.637  0.00  0.00    -0.246 NA
ATOM     23  C   UNL     1      -5.863   2.659  25.912  0.00  0.00    +0.099 A 
ATOM     24  C   UNL     1      -6.084   1.936  25.584  0.00  0.00    +0.021 A 
ATOM     25  C   UNL     1      -5.632   1.600  24.981  0.00  0.00    +0.003 A 
ATOM     26  C   UNL     1      -4.958   1.990  24.705  0.00  0.00    +0.017 A 
ENDBRANCH  20  21
ENDBRANCH  19  20
ENDBRANCH  16  17
ENDBRANCH  15  16
TORSDOF 8
ENDMDL
MODEL 2
REMARK VINA RESULT:     -10.7      1.332      4.162
REMARK  Name = 
REMARK  8 active torsions:
REMARK  status: ('A' for Active; 'I' for Inactive)
REMARK    1  A    between atoms: O_2  and  C_3
REMARK    2  A    between atoms: C_6  and  C_9
REMARK    3  A    between atoms: N_11  and  C_12
REMARK    4  A    between atoms: C_12  and  C_13
REMARK    5  A    between atoms: C_15  and  C_16
REMARK    6  A    between atoms: C_16  and  C_17
REMARK    7  A    between atoms: N_19  and  C_20
REMARK    8  A    between atoms: C_20  and  C_21
REMARK                            x       y       z     vdW  Elec       q    Type
REMARK                         _______ _______ _______ _____ _____    ______ ____
ROOT
ATOM     13  C   UNL     1      -1.177   2.188  24.457  0.00  0.00    +0.170 C 
ATOM     14  O   UNL     1      -1.325   1.382  24.557  0.00  0.00    -0.351 OA
ATOM     15  C   UNL     1      -0.617   0.976  24.441  0.00  0.00    +0.157 C 
ATOM     27  C   UNL     1      -0.030   1.531  24.269  0.00  0.00    +0.212 C 
ATOM     28  O   UNL     1       0.763   1.364  24.114  0.00  0.00    -0.218 OA
ATOM     29  C   UNL     1      -0.377   2.280  24.279  0.00  0.00    +0.213 C 
ATOM     30  O   UNL     1       0.010   2.994  24.136  0.00  0.00    -0.218 OA
ENDROOT
BRANCH  13  12
ATOM     12  C   UNL     1      -1.731   2.796  24.524  0.00  0.00    +0.148 C 
BRANCH  12  11
ATOM      9  C   UNL     1      -3.080   3.222  24.726  0.00  0.00    +0.265 C 
ATOM     10  O   UNL     1      -2.860   3.998  24.555  0.00  0.00    -0.268 OA
ATOM     11  N   UNL     1      -2.515   2.621  24.710  0.00  0.00    -0.199 NA
BRANCH   9   6
ATOM      3  C   UNL     1      -5.433   2.696  25.286  0.00  0.00    +0.139 A 
ATOM      4  C   UNL     1      -5.082   2.359  24.618  0.00  0.00    +0.037 A 
ATOM      5  C   UNL     1      -4.298   2.535  24.432  0.00  0.00    +0.008 A 
ATOM      6  C   UNL     1      -3.864   3.047  24.912  0.00  0.00    +0.055 A 
ATOM      7  C   UNL     1      -4.215   3.383  25.579  0.00  0.00    +0.008 A 
ATOM      8  C   UNL     1      -5.000   3.207  25.765  0.00  0.00    +0.037 A 
BRANCH   3   2
ATOM      1  C   UNL     1      -6.387   1.938  26.032  0.00  0.00    +0.252 C 
ATOM      2  O   UNL     1      -6.217   2.520  25.472  0.00  0.00    -0.471 OA
ENDBRANCH   3   2
ENDBRANCH   9   6
ENDBRANCH  12  11
ENDBRANCH  13  12
BRANCH  15  16
ATOM     16  C   UNL     1      -0.513   0.159  24.488  0.00  0.00    +0.119 C 
BRANCH  16  17
ATOM     17  C   UNL     1      -1.019  -0.294  24.957  0.00  0.00    +0.244 C 
ATOM     18  O   UNL     1      -0.922  -0.306  25.776  0.00  0.00    -0.273 OA
ATOM     19  N   UNL     1      -1.621  -0.735  24.606  0.00  0.00    -0.199 NA
BRANCH  19  20
ATOM     20  C   UNL     1      -2.127  -1.189  25.074  0.00  0.00    +0.160 C 
BRANCH  20  21
ATOM     21  C   UNL     1      -2.777  -1.565  24.734  0.00  0.00    +0.081 A 
ATOM     22  N   UNL     1      -2.731  -2.364  24.529  0.00  0.00    -0.246 NA
ATOM     23  C   UNL     1      -3.381  -2.740  24.188  0.00  0.00    +0.099 A 
ATOM     24  C   UNL     1      -4.076  -2.319  24.052  0.00  0.00    +0.021 A 
ATOM     25  C   UNL     1      -4.123  -1.522  24.257  0.00  0.00    +0.003 A 
ATOM     26  C   UNL     1      -3.473  -1.145  24.598  0.00  0.00    +0.017 A 
ENDBRANCH  20  21
ENDBRANCH  19  20
ENDBRANCH  16  17
ENDBRANCH  15  16
TORSDOF 8
ENDMDL
MODEL 3
REMARK VINA RESULT:     -10.7      1.601      3.685
REMARK  Name = 
REMARK  8 active torsions:
REMARK  status: ('A' for Active; 'I' for Inactive)
REMARK    1  A    between atoms: O_2  and  C_3
REMARK    2  A    between atoms: C_6  and  C_9
REMARK    3  A    between atoms: N_11  and  C_12
REMARK    4  A    between atoms: C_12  and  C_13
REMARK    5  A    between atoms: C_15  and  C_16
REMARK    6  A    between atoms: C_16  and  C_17
REMARK    7  A    between atoms: N_19  and  C_20
REMARK    8  A    between atoms: C_20  and  C_21
REMARK                            x       y       z     vdW  Elec       q    Type
REMARK                         _______ _______ _______ _____ _____    ______ ____
ROOT
ATOM     13  C   UNL     1      -4.899   1.774  25.146  0.00  0.00    +0.170 C 
ATOM     14  O   UNL     1      -4.237   2.261  25.224  0.00  0.00    -0.351 OA
ATOM     15  C   UNL     1      -4.497   3.009  25.455  0.00  0.00    +0.157 C 
ATOM     27  C   UNL     1      -5.319   2.985  25.521  0.00  0.00    +0.212 C 
ATOM     28  O   UNL     1      -5.807   3.614  25.739  0.00  0.00    -0.218 OA
ATOM     29  C   UNL     1      -5.567   2.221  25.329  0.00  0.00    +0.213 C 
ATOM     30  O   UNL     1      -6.347   1.953  25.322  0.00  0.00    -0.218 OA
ENDROOT
BRANCH  13  12
ATOM     12  C   UNL     1      -4.893   0.979  24.923  0.00  0.00    +0.148 C 
BRANCH  12  11
ATOM      9  C   UNL     1      -4.160  -0.223  24.678  0.00  0.00    +0.265 C 
ATOM     10  O   UNL     1      -4.802  -0.527  24.258  0.00  0.00    -0.268 OA
ATOM     11  N   UNL     1      -4.207   0.531  25.010  0.00  0.00    -0.199 NA
BRANCH   9   6
ATOM      3  C   UNL     1      -2.100  -1.567  24.939  0.00  0.00    +0.139 A 
ATOM      4  C   UNL     1      -2.085  -0.872  24.494  0.00  0.00    +0.037 A 
ATOM      5  C   UNL     1      -2.772  -0.424  24.407  0.00  0.00    +0.008 A 
ATOM      6  C   UNL     1      -3.474  -0.671  24.765  0.00  0.00    +0.055 A 
ATOM      7  C   UNL     1      -3.488  -1.366  25.210  0.00  0.00    +0.008 A 
ATOM      8  C   UNL     1      -2.800  -1.814  25.297  0.00  0.00    +0.037 A 
BRANCH   3   2
ATOM      1  C   UNL     1      -0.699  -1.643  25.216  0.00  0.00    +0.252 C 
ATOM      2  O   UNL     1      -1.411  -2.015  25.026  0.00  0.00    -0.471 OA
ENDBRANCH   3   2
ENDBRANCH   9   6
ENDBRANCH  12  11
ENDBRANCH  13  12
BRANCH  15  16
ATOM     16  C   UNL     1      -4.018   3.666  25.597  0.00  0.00    +0.119 C 
BRANCH  16  17
ATOM     17  C   UNL     1      -3.321   3.769  25.168  0.00  0.00    +0.244 C 
ATOM     18  O   UNL     1      -3.344   4.122  24.422  0.00  0.00    -0.273 OA
ATOM     19  N   UNL     1      -2.602   3.517  25.484  0.00  0.00    -0.199 NA
BRANCH  19  20
ATOM     20  C   UNL     1      -1.905   3.620  25.054  0.00  0.00    +0.160 C 
BRANCH  20  21
ATOM     21  C   UNL     1      -1.248   3.148  25.216  0.00  0.00    +0.081 A 
ATOM     22  N   UNL     1      -0.868   2.745  24.604  0.00  0.00    -0.246 NA
ATOM     23  C   UNL     1      -0.211   2.273  24.766  0.00  0.00    +0.099 A 
ATOM     24  C   UNL     1       0.066   2.203  25.539  0.00  0.00    +0.021 A 
ATOM     25  C   UNL     1      -0.314   2.605  26.151  0.00  0.00    +0.003 A 
ATOM     26  C   UNL     1      -0.971   3.078  25.989  0.00  0.00    +0.017 A 
ENDBRANCH  20  21
ENDBRANCH  19  20
ENDBRANCH  16  17
ENDBRANCH  15  16
TORSDOF 8
ENDMDL
MODEL 4
REMARK VINA RESULT:     -10.6      1.555      3.665
REMARK  Name = 
REMARK  8 active torsions:
REMARK  status: ('A' for Active; 'I' for Inactive)
REMARK    1  A    between atoms: O_2  and  C_3
REMARK    2  A    between atoms: C_6  and  C_9
REMARK    3  A    between atoms: N_11  and  C_12
REMARK    4  A    between atoms: C_12  and  C_13
REMARK    5  A    between atoms: C_15  and  C_16
REMARK    6  A    between atoms: C_16  and  C_17
REMARK    7  A    between atoms: N_19  and  C_20
REMARK    8  A    between atoms: C_20  and  C_21
REMARK                            x       y       z     vdW  Elec       q    Type
REMARK                         _______ _______ _______ _____ _____    ______ ____
ROOT
ATOM     13  C   UNL     1      -3.458   2.604  24.980  0.00  0.00    +0.170 C 
ATOM     14  O   UNL     1      -2.645   2.466  24.993  0.00  0.00    -0.351 OA
ATOM     15  C   UNL     1      -2.261   3.196  24.993  0.00  0.00    +0.157 C 
ATOM     27  C   UNL     1      -2.837   3.787  24.979  0.00  0.00    +0.212 C 
ATOM     28  O   UNL     1      -2.698   4.600  24.975  0.00  0.00    -0.218 OA
ATOM     29  C   UNL     1      -3.577   3.421  24.971  0.00  0.00    +0.213 C 
ATOM     30  O   UNL     1      -4.307   3.805  24.957  0.00  0.00    -0.218 OA
ENDROOT
BRANCH  13  12
ATOM     12  C   UNL     1      -4.049   2.028  24.976  0.00  0.00    +0.148 C 
BRANCH  12  11
ATOM      9  C   UNL     1      -4.431   0.652  24.925  0.00  0.00    +0.265 C 
ATOM     10  O   UNL     1      -5.206   0.861  25.116  0.00  0.00    -0.268 OA
ATOM     11  N   UNL     1      -3.853   1.237  24.855  0.00  0.00    -0.199 NA
BRANCH   9   6
ATOM      3  C   UNL     1      -3.842  -1.723  24.562  0.00  0.00    +0.139 A 
ATOM      4  C   UNL     1      -4.163  -1.279  23.945  0.00  0.00    +0.037 A 
ATOM      5  C   UNL     1      -4.359  -0.487  24.066  0.00  0.00    +0.008 A 
ATOM      6  C   UNL     1      -4.235  -0.139  24.804  0.00  0.00    +0.055 A 
ATOM      7  C   UNL     1      -3.914  -0.584  25.421  0.00  0.00    +0.008 A 
ATOM      8  C   UNL     1      -3.718  -1.376  25.299  0.00  0.00    +0.037 A 
BRANCH   3   2
ATOM      1  C   UNL     1      -2.887  -2.785  24.625  0.00  0.00    +0.252 C 
ATOM      2  O   UNL     1      -3.645  -2.516  24.440  0.00  0.00    -0.471 OA
ENDBRANCH   3   2
ENDBRANCH   9   6
ENDBRANCH  12  11
ENDBRANCH  13  12
BRANCH  15  16
ATOM     16  C   UNL     1      -1.444   3.315  25.004  0.00  0.00    +0.119 C 
BRANCH  16  17
ATOM     17  C   UNL     1      -0.943   2.708  25.252  0.00  0.00    +0.244 C 
ATOM     18  O   UNL     1      -0.729   2.648  26.046  0.00  0.00    -0.273 OA
ATOM     19  N   UNL     1      -0.656   2.162  24.704  0.00  0.00    -0.199 NA
BRANCH  19  20
ATOM     20  C   UNL     1      -0.155   1.555  24.952  0.00  0.00    +0.160 C 
BRANCH  20  21
ATOM     21  C   UNL     1      -0.030   0.900  24.466  0.00  0.00    +0.081 A 
ATOM     22  N   UNL     1       0.425   0.977  23.780  0.00  0.00    -0.246 NA
ATOM     23  C   UNL     1       0.550   0.322  23.294  0.00  0.00    +0.099 A 
ATOM     24  C   UNL     1       0.222  -0.407  23.492  0.00  0.00    +0.021 A 
ATOM     25  C   UNL     1      -0.232  -0.484  24.177  0.00  0.00    +0.003 A 
ATOM     26  C   UNL     1      -0.357   0.171  24.663  0.00  0.00    +0.017 A 
ENDBRANCH  20  21
ENDBRANCH  19  20
ENDBRANCH  16  17
ENDBRANCH  15  16
TORSDOF 8
ENDMDL
MODEL 5
REMARK VINA RESULT:     -10.6      1.221      4.058
REMARK  Name = 
REMARK  8 active torsions:
REMARK  status: ('A' for Active; 'I' for Inactive)
REMARK    1  A    between atoms: O_2  and  C_3
REMARK    2  A    between atoms: C_6  and  C_9
REMARK    3  A    between atoms: N_11  and  C_12
REMARK    4  A    between atoms: C_12  and  C_13
REMARK    5  A    between atoms: C_15  and  C_16
REMARK    6  A    between atoms: C_16  and  C_17
REMARK    7  A    between atoms: N_19  and  C_20
REMARK    8  A    between atoms: C_20  and  C_21
REMARK                            x       y       z     vdW  Elec       q    Type
REMARK                         _______ _______ _______ _____ _____    ______ ____
ROOT
ATOM     13  C   UNL     1      -1.382  -0.177  25.086  0.00  0.00    +0.170 C 
ATOM     14  O   UNL     1      -2.190  -0.016  25.114  0.00  0.00    -0.351 OA
ATOM     15  C   UNL     1      -2.594  -0.735  25.120  0.00  0.00    +0.157 C 
ATOM     27  C   UNL     1      -2.035  -1.342  25.096  0.00  0.00    +0.212 C 
ATOM     28  O   UNL     1      -2.197  -2.151  25.093  0.00  0.00    -0.218 OA
ATOM     29  C   UNL     1      -1.285  -0.996  25.074  0.00  0.00    +0.213 C 
ATOM     30  O   UNL     1      -0.567  -1.400  25.046  0.00  0.00    -0.218 OA
ENDROOT
BRANCH  13  12
ATOM     12  C   UNL     1      -0.775   0.383  25.071  0.00  0.00    +0.148 C 
BRANCH  12  11
ATOM      9  C   UNL     1      -0.350   1.746  25.034  0.00  0.00    +0.265 C 
ATOM     10  O   UNL     1       0.437   1.500  25.007  0.00  0.00    -0.268 OA
ATOM     11  N   UNL     1      -0.956   1.187  25.065  0.00  0.00    -0.199 NA
BRANCH   9   6
ATOM      3  C   UNL     1      -0.893   4.160  25.016  0.00  0.00    +0.139 A 
ATOM      4  C   UNL     1      -0.600   3.798  24.335  0.00  0.00    +0.037 A 
ATOM      5  C   UNL     1      -0.419   2.994  24.340  0.00  0.00    +0.008 A 
ATOM      6  C   UNL     1      -0.531   2.551  25.028  0.00  0.00    +0.055 A 
ATOM      7  C   UNL     1      -0.824   2.913  25.709  0.00  0.00    +0.008 A 
ATOM      8  C   UNL     1      -1.005   3.718  25.703  0.00  0.00    +0.037 A 
BRANCH   3   2
ATOM      1  C   UNL     1      -1.809   5.225  25.281  0.00  0.00    +0.252 C 
ATOM      2  O   UNL     1      -1.074   4.966  25.010  0.00  0.00    -0.471 OA
ENDBRANCH   3   2
ENDBRANCH   9   6
ENDBRANCH  12  11
ENDBRANCH  13  12
BRANCH  15  16
ATOM     16  C   UNL     1      -3.413  -0.831  25.147  0.00  0.00    +0.119 C 
BRANCH  16  17
ATOM     17  C   UNL     1      -3.902  -0.325  24.716  0.00  0.00    +0.244 C 
ATOM     18  O   UNL     1      -4.048  -0.473  23.918  0.00  0.00    -0.273 OA
ATOM     19  N   UNL     1      -4.243   0.329  25.084  0.00  0.00    -0.199 NA
BRANCH  19  20
ATOM     20  C   UNL     1      -4.732   0.836  24.654  0.00  0.00    +0.160 C 
BRANCH  20  21
ATOM     21  C   UNL     1      -4.946   1.568  24.969  0.00  0.00    +0.081 A 
ATOM     22  N   UNL     1      -5.579   1.620  25.496  0.00  0.00    -0.246 NA
ATOM     23  C   UNL     1      -5.793   2.351  25.812  0.00  0.00    +0.099 A 
ATOM     24  C   UNL     1      -5.376   3.030  25.600  0.00  0.00    +0.021 A 
ATOM     25  C   UNL     1      -4.744   2.978  25.073  0.00  0.00    +0.003 A 
ATOM     26  C   UNL     1      -4.529   2.246  24.757  0.00  0.00    +0.017 A 
ENDBRANCH  20  21
ENDBRANCH  19  20
ENDBRANCH  16  17
ENDBRANCH  15  16
TORSDOF 8
ENDMDL
MODEL 6
REMARK VINA RESULT:     -10.3      1.780      4.652
REMARK  Name = 
REMARK  8 active torsions:
REMARK  status: ('A' for Active; 'I' for Inactive)
REMARK    1  A    between atoms: O_2  and  C_3
REMARK    2  A    between atoms: C_6  and  C_9
REMARK    3  A    between atoms: N_11  and  C_12
REMARK    4  A    between atoms: C_12  and  C_13
REMARK    5  A    between atoms: C_15  and  C_16
REMARK    6  A    between atoms: C_16  and  C_17
REMARK    7  A    between atoms: N_19  and  C_20
REMARK    8  A    between atoms: C_20  and  C_21
REMARK                            x       y       z     vdW  Elec       q    Type
REMARK                         _______ _______ _______ _____ _____    ______ ____
ROOT
ATOM     13  C   UNL     1      -2.764  -1.187  24.674  0.00  0.00    +0.170 C 
ATOM     14  O   UNL     1      -2.089  -0.717  24.738  0.00  0.00    -0.351 OA
ATOM     15  C   UNL     1      -1.434  -1.217  24.787  0.00  0.00    +0.157 C 
ATOM     27  C   UNL     1      -1.704  -1.996  24.753  0.00  0.00    +0.212 C 
ATOM     28  O   UNL     1      -1.234  -2.673  24.783  0.00  0.00    -0.218 OA
ATOM     29  C   UNL     1      -2.527  -1.977  24.683  0.00  0.00    +0.213 C 
ATOM     30  O   UNL     1      -3.022  -2.634  24.631  0.00  0.00    -0.218 OA
ENDROOT
BRANCH  13  12
ATOM     12  C   UNL     1      -3.541  -0.916  24.611  0.00  0.00    +0.148 C 
BRANCH  12  11
ATOM      9  C   UNL     1      -4.463   0.176  24.587  0.00  0.00    +0.265 C 
ATOM     10  O   UNL     1      -5.037  -0.316  24.258  0.00  0.00    -0.268 OA
ATOM     11  N   UNL     1      -3.714  -0.124  24.763  0.00  0.00    -0.199 NA
BRANCH   9   6
ATOM      3  C   UNL     1      -4.983   2.552  25.044  0.00  0.00    +0.139 A 
ATOM      4  C   UNL     1      -5.334   1.958  25.497  0.00  0.00    +0.037 A 
ATOM      5  C   UNL     1      -5.161   1.166  25.344  0.00  0.00    +0.008 A 
ATOM      6  C   UNL     1      -4.636   0.968  24.739  0.00  0.00    +0.055 A 
ATOM      7  C   UNL     1      -4.285   1.562  24.286  0.00  0.00    +0.008 A 
ATOM      8  C   UNL     1      -4.459   2.354  24.439  0.00  0.00    +0.037 A 
BRANCH   3   2
ATOM      1  C   UNL     1      -4.591   3.829  25.552  0.00  0.00    +0.252 C 
ATOM      2  O   UNL     1      -5.157   3.344  25.197  0.00  0.00    -0.471 OA
ENDBRANCH   3   2
ENDBRANCH   9   6
ENDBRANCH  12  11
ENDBRANCH  13  12
BRANCH  15  16
ATOM     16  C   UNL     1      -0.647  -0.979  24.857  0.00  0.00    +0.119 C 
BRANCH  16  17
ATOM     17  C   UNL     1      -0.392  -0.285  24.492  0.00  0.00    +0.244 C 
ATOM     18  O   UNL     1      -0.129  -0.302  23.710  0.00  0.00    -0.273 OA
ATOM     19  N   UNL     1      -0.400   0.427  24.909  0.00  0.00    -0.199 NA
BRANCH  19  20
ATOM     20  C   UNL     1      -0.145   1.122  24.543  0.00  0.00    +0.160 C 
BRANCH  20  21
ATOM     21  C   UNL     1      -0.302   1.852  24.892  0.00  0.00    +0.081 A 
ATOM     22  N   UNL     1      -0.051   2.003  25.664  0.00  0.00    -0.246 NA
ATOM     23  C   UNL     1      -0.209   2.733  26.013  0.00  0.00    +0.099 A 
ATOM     24  C   UNL     1      -0.615   3.313  25.592  0.00  0.00    +0.021 A 
ATOM     25  C   UNL     1      -0.866   3.163  24.820  0.00  0.00    +0.003 A 
ATOM     26  C   UNL     1      -0.709   2.432  24.470  0.00  0.00    +0.017 A 
ENDBRANCH  20  21
ENDBRANCH  19  20
ENDBRANCH  16  17
ENDBRANCH  15  16
TORSDOF 8
ENDMDL
