MODEL 1
REMARK VINA RESULT:     -11.1      0.000      0.000
REMARK  Name = 
REMARK  7 active torsions:
REMARK  status: ('A' for Active; 'I' for Inactive)
REMARK    1  A    between atoms: C_2  and  C_4
REMARK    2  A    between atoms: C_6  and  C_7
REMARK    3  A    between atoms: C_7  and  C_8
REMARK    4  A    between atoms: N_10  and  C_11
REMARK    5  A    between atoms: C_20  and  C_21
REMARK    6  A    between atoms: C_21  and  N_22
REMARK    7  A    between atoms: C_23  and  C_25
REMARK                            x       y       z     vdW  Elec       q    Type
REMARK                         _______ _______ _______ _____ _____    ______ ____
ROOT
ATOM      4  C   UNL     1      -4.436   1.676  24.758  0.00  0.00    +0.006 C 
ATOM      5  C   UNL     1      -4.505   0.952  24.368  0.00  0.00    +0.005 C 
ATOM      6  C   UNL     1      -3.906   0.696  23.864  0.00  0.00    +0.027 C 
ATOM     17  C   UNL     1      -3.236   1.163  23.749  0.00  0.00    -0.048 C 
ATOM     18  C   UNL     1      -2.635   0.906  23.244  0.00  0.00    +0.026 C 
ATOM     19  C   UNL     1      -3.166   1.887  24.139  0.00  0.00    -0.033 C 
ATOM     20  C   UNL     1      -3.765   2.143  24.643  0.00  0.00    +0.043 C 
ENDROOT
BRANCH   4   2
ATOM      1  C   UNL     1      -5.036   1.700  26.055  0.00  0.00    +0.000 C 
ATOM      2  C   UNL     1      -5.036   1.932  25.263  0.00  0.00    +0.000 C 
ATOM      3  C   UNL     1      -5.636   2.420  24.976  0.00  0.00    +0.000 C 
ENDBRANCH   4   2
BRANCH   6   7
ATOM      7  C   UNL     1      -3.976  -0.028  23.474  0.00  0.00    +0.091 C 
BRANCH   7   8
ATOM      8  C   UNL     1      -4.010  -0.729  23.908  0.00  0.00    +0.247 C 
ATOM      9  O   UNL     1      -4.729  -0.984  24.223  0.00  0.00    -0.273 OA
ATOM     10  N   UNL     1      -3.327  -1.174  24.026  0.00  0.00    -0.160 NA
BRANCH  10  11
ATOM     11  C   UNL     1      -3.361  -1.876  24.461  0.00  0.00    +0.154 A 
ATOM     12  C   UNL     1      -3.566  -2.583  24.087  0.00  0.00    +0.036 A 
ATOM     13  C   UNL     1      -3.600  -3.283  24.521  0.00  0.00    +0.005 A 
ATOM     14  C   UNL     1      -3.430  -3.278  25.329  0.00  0.00    +0.021 A 
ATOM     15  C   UNL     1      -3.226  -2.571  25.701  0.00  0.00    +0.100 A 
ATOM     16  N   UNL     1      -3.191  -1.870  25.267  0.00  0.00    -0.227 NA
ENDBRANCH  10  11
ENDBRANCH   7   8
ENDBRANCH   6   7
BRANCH  20  21
ATOM     21  C   UNL     1      -3.696   2.867  25.033  0.00  0.00    +0.120 C 
BRANCH  21  22
ATOM     22  N   UNL     1      -3.053   3.360  24.878  0.00  0.00    -0.201 NA
ATOM     23  C   UNL     1      -2.796   3.894  25.451  0.00  0.00    +0.265 C 
ATOM     24  O   UNL     1      -3.182   3.937  26.179  0.00  0.00    -0.268 OA
BRANCH  23  25
ATOM     25  C   UNL     1      -2.152   4.388  25.296  0.00  0.00    +0.055 A 
ATOM     26  C   UNL     1      -1.389   4.074  25.272  0.00  0.00    +0.007 A 
ATOM     27  C   UNL     1      -0.746   4.567  25.117  0.00  0.00    +0.030 A 
ATOM     28  C   UNL     1      -0.866   5.373  24.986  0.00  0.00    +0.140 A 
ATOM     29  F   UNL     1      -0.223   5.866  24.831  0.00  0.00    -0.204 F 
ATOM     30  C   UNL     1      -1.629   5.686  25.009  0.00  0.00    +0.030 A 
ATOM     31  C   UNL     1      -2.272   5.193  25.164  0.00  0.00    +0.007 A 
ENDBRANCH  23  25
ENDBRANCH  21  22
ENDBRANCH  20  21
TORSDOF 7
ENDMDL
MODEL 2
REMARK VINA RESULT:     -10.9      1.978      5.953
REMARK  Name = 
REMARK  7 active torsions:
REMARK  status: ('A' for Active; 'I' for Inactive)
REMARK    1  A    between atoms: C_2  and  C_4
REMARK    2  A    between atoms: C_6  and  C_7
REMARK    3  A    between atoms: C_7  and  C_8
REMARK    4  A    between atoms: N_10  and  C_11
REMARK    5  A    between atoms: C_20  and  C_21
REMARK    6  A    between atoms: C_21  and  N_22
REMARK    7  A    between atoms: C_23  and  C_25
REMARK                            x       y       z     vdW  Elec       q    Type
REMARK                         _______ _______ _______ _____ _____    ______ ____
ROOT
ATOM      4  C   UNL     1      -3.243   1.784  23.719  0.00  0.00    +0.006 C 
ATOM      5  C   UNL     1      -3.259   2.533  24.063  0.00  0.00    +0.005 C 
ATOM      6  C   UNL     1      -3.781   2.694  24.680  0.00  0.00    +0.027 C 
ATOM     17  C   UNL     1      -4.289   2.105  24.954  0.00  0.00    -0.048 C 
ATOM     18  C   UNL     1      -4.813   2.265  25.571  0.00  0.00    +0.026 C 
ATOM     19  C   UNL     1      -4.274   1.354  24.610  0.00  0.00    -0.033 C 
ATOM     20  C   UNL     1      -3.752   1.194  23.993  0.00  0.00    +0.043 C 
ENDROOT
BRANCH   4   2
ATOM      1  C   UNL     1      -2.954   1.748  22.320  0.00  0.00    +0.000 C 
ATOM      2  C   UNL     1      -2.720   1.623  23.102  0.00  0.00    +0.000 C 
ATOM      3  C   UNL     1      -1.964   1.338  23.266  0.00  0.00    +0.000 C 
ENDBRANCH   4   2
BRANCH   6   7
ATOM      7  C   UNL     1      -3.796   3.444  25.024  0.00  0.00    +0.091 C 
BRANCH   7   8
ATOM      8  C   UNL     1      -3.190   3.982  24.868  0.00  0.00    +0.247 C 
ATOM      9  O   UNL     1      -3.211   4.439  24.182  0.00  0.00    -0.273 OA
ATOM     10  N   UNL     1      -2.563   4.061  25.398  0.00  0.00    -0.160 NA
BRANCH  10  11
ATOM     11  C   UNL     1      -1.957   4.599  25.242  0.00  0.00    +0.154 A 
ATOM     12  C   UNL     1      -1.192   4.326  25.095  0.00  0.00    +0.036 A 
ATOM     13  C   UNL     1      -0.585   4.864  24.939  0.00  0.00    +0.005 A 
ATOM     14  C   UNL     1      -0.744   5.674  24.930  0.00  0.00    +0.021 A 
ATOM     15  C   UNL     1      -1.509   5.945  25.077  0.00  0.00    +0.100 A 
ATOM     16  N   UNL     1      -2.115   5.408  25.233  0.00  0.00    -0.227 NA
ENDBRANCH  10  11
ENDBRANCH   7   8
ENDBRANCH   6   7
BRANCH  20  21
ATOM     21  C   UNL     1      -3.737   0.444  23.649  0.00  0.00    +0.120 C 
BRANCH  21  22
ATOM     22  N   UNL     1      -3.616  -0.223  24.119  0.00  0.00    -0.201 NA
ATOM     23  C   UNL     1      -3.837  -0.967  23.842  0.00  0.00    +0.265 C 
ATOM     24  O   UNL     1      -4.180  -1.045  23.095  0.00  0.00    -0.268 OA
BRANCH  23  25
ATOM     25  C   UNL     1      -3.717  -1.636  24.312  0.00  0.00    +0.055 A 
ATOM     26  C   UNL     1      -3.864  -2.387  24.005  0.00  0.00    +0.007 A 
ATOM     27  C   UNL     1      -3.743  -3.055  24.475  0.00  0.00    +0.030 A 
ATOM     28  C   UNL     1      -3.476  -2.971  25.251  0.00  0.00    +0.140 A 
ATOM     29  F   UNL     1      -3.355  -3.637  25.720  0.00  0.00    -0.204 F 
ATOM     30  C   UNL     1      -3.329  -2.219  25.557  0.00  0.00    +0.030 A 
ATOM     31  C   UNL     1      -3.449  -1.551  25.087  0.00  0.00    +0.007 A 
ENDBRANCH  23  25
ENDBRANCH  21  22
ENDBRANCH  20  21
TORSDOF 7
ENDMDL
MODEL 3
REMARK VINA RESULT:     -10.7      1.330      2.062
REMARK  Name = 
REMARK  7 active torsions:
REMARK  status: ('A' for Active; 'I' for Inactive)
REMARK    1  A    between atoms: C_2  and  C_4
REMARK    2  A    between atoms: C_6  and  C_7
REMARK    3  A    between atoms: C_7  and  C_8
REMARK    4  A    between atoms: N_10  and  C_11
REMARK    5  A    between atoms: C_20  and  C_21
REMARK    6  A    between atoms: C_21  and  N_22
REMARK    7  A    between atoms: C_23  and  C_25
REMARK                            x       y       z     vdW  Elec       q    Type
REMARK                         _______ _______ _______ _____ _____    ______ ____
ROOT
ATOM      4  C   UNL     1      -2.116   0.707  24.948  0.00  0.00    +0.006 C 
ATOM      5  C   UNL     1      -2.754   0.210  24.783  0.00  0.00    +0.005 C 
ATOM      6  C   UNL     1      -3.508   0.526  24.682  0.00  0.00    +0.027 C 
ATOM     17  C   UNL     1      -3.627   1.340  24.745  0.00  0.00    -0.048 C 
ATOM     18  C   UNL     1      -4.382   1.656  24.644  0.00  0.00    +0.026 C 
ATOM     19  C   UNL     1      -2.989   1.838  24.910  0.00  0.00    -0.033 C 
ATOM     20  C   UNL     1      -2.235   1.522  25.011  0.00  0.00    +0.043 C 
ENDROOT
BRANCH   4   2
ATOM      1  C   UNL     1      -0.842   0.350  24.409  0.00  0.00    +0.000 C 
ATOM      2  C   UNL     1      -1.361   0.391  25.049  0.00  0.00    +0.000 C 
ATOM      3  C   UNL     1      -1.126   0.115  25.789  0.00  0.00    +0.000 C 
ENDBRANCH   4   2
BRANCH   6   7
ATOM      7  C   UNL     1      -4.146   0.028  24.517  0.00  0.00    +0.091 C 
BRANCH   7   8
ATOM      8  C   UNL     1      -4.011  -0.738  24.241  0.00  0.00    +0.247 C 
ATOM      9  O   UNL     1      -3.734  -0.856  23.473  0.00  0.00    -0.273 OA
ATOM     10  N   UNL     1      -4.152  -1.383  24.733  0.00  0.00    -0.160 NA
BRANCH  10  11
ATOM     11  C   UNL     1      -4.017  -2.150  24.458  0.00  0.00    +0.154 A 
ATOM     12  C   UNL     1      -3.449  -2.625  24.822  0.00  0.00    +0.036 A 
ATOM     13  C   UNL     1      -3.314  -3.391  24.546  0.00  0.00    +0.005 A 
ATOM     14  C   UNL     1      -3.747  -3.682  23.907  0.00  0.00    +0.021 A 
ATOM     15  C   UNL     1      -4.315  -3.206  23.543  0.00  0.00    +0.100 A 
ATOM     16  N   UNL     1      -4.450  -2.441  23.819  0.00  0.00    -0.227 NA
ENDBRANCH  10  11
ENDBRANCH   7   8
ENDBRANCH   6   7
BRANCH  20  21
ATOM     21  C   UNL     1      -1.597   2.019  25.176  0.00  0.00    +0.120 C 
BRANCH  21  22
ATOM     22  N   UNL     1      -1.654   2.827  25.023  0.00  0.00    -0.201 NA
ATOM     23  C   UNL     1      -1.136   3.353  25.390  0.00  0.00    +0.265 C 
ATOM     24  O   UNL     1      -0.561   3.072  25.911  0.00  0.00    -0.268 OA
BRANCH  23  25
ATOM     25  C   UNL     1      -1.192   4.163  25.237  0.00  0.00    +0.055 A 
ATOM     26  C   UNL     1      -1.850   4.587  25.499  0.00  0.00    +0.007 A 
ATOM     27  C   UNL     1      -1.906   5.396  25.346  0.00  0.00    +0.030 A 
ATOM     28  C   UNL     1      -1.305   5.780  24.931  0.00  0.00    +0.140 A 
ATOM     29  F   UNL     1      -1.361   6.588  24.778  0.00  0.00    -0.204 F 
ATOM     30  C   UNL     1      -0.648   5.355  24.669  0.00  0.00    +0.030 A 
ATOM     31  C   UNL     1      -0.592   4.547  24.823  0.00  0.00    +0.007 A 
ENDBRANCH  23  25
ENDBRANCH  21  22
ENDBRANCH  20  21
TORSDOF 7
ENDMDL
MODEL 4
REMARK VINA RESULT:     -10.5      2.240      3.144
REMARK  Name = 
REMARK  7 active torsions:
REMARK  status: ('A' for Active; 'I' for Inactive)
REMARK    1  A    between atoms: C_2  and  C_4
REMARK    2  A    between atoms: C_6  and  C_7
REMARK    3  A    between atoms: C_7  and  C_8
REMARK    4  A    between atoms: N_10  and  C_11
REMARK    5  A    between atoms: C_20  and  C_21
REMARK    6  A    between atoms: C_21  and  N_22
REMARK    7  A    between atoms: C_23  and  C_25
REMARK                            x       y       z     vdW  Elec       q    Type
REMARK                         _______ _______ _______ _____ _____    ______ ____
ROOT
ATOM      4  C   UNL     1      -0.399   0.175  24.289  0.00  0.00    +0.006 C 
ATOM      5  C   UNL     1      -0.683  -0.585  24.439  0.00  0.00    +0.005 C 
ATOM      6  C   UNL     1      -1.014  -0.765  25.172  0.00  0.00    +0.027 C 
ATOM     17  C   UNL     1      -1.063  -0.185  25.756  0.00  0.00    -0.048 C 
ATOM     18  C   UNL     1      -1.395  -0.365  26.490  0.00  0.00    +0.026 C 
ATOM     19  C   UNL     1      -0.779   0.576  25.607  0.00  0.00    -0.033 C 
ATOM     20  C   UNL     1      -0.448   0.756  24.874  0.00  0.00    +0.043 C 
ENDROOT
BRANCH   4   2
ATOM      1  C   UNL     1       0.734   0.210  23.419  0.00  0.00    +0.000 C 
ATOM      2  C   UNL     1      -0.067   0.355  23.555  0.00  0.00    +0.000 C 
ATOM      3  C   UNL     1      -0.536   0.678  22.959  0.00  0.00    +0.000 C 
ENDBRANCH   4   2
BRANCH   6   7
ATOM      7  C   UNL     1      -1.298  -1.526  25.321  0.00  0.00    +0.091 C 
BRANCH   7   8
ATOM      8  C   UNL     1      -1.901  -1.841  24.854  0.00  0.00    +0.247 C 
ATOM      9  O   UNL     1      -1.715  -2.244  24.159  0.00  0.00    -0.273 OA
ATOM     10  N   UNL     1      -2.688  -1.752  25.083  0.00  0.00    -0.160 NA
BRANCH  10  11
ATOM     11  C   UNL     1      -3.291  -2.067  24.615  0.00  0.00    +0.154 A 
ATOM     12  C   UNL     1      -3.795  -1.564  24.198  0.00  0.00    +0.036 A 
ATOM     13  C   UNL     1      -4.397  -1.879  23.731  0.00  0.00    +0.005 A 
ATOM     14  C   UNL     1      -4.497  -2.697  23.681  0.00  0.00    +0.021 A 
ATOM     15  C   UNL     1      -3.993  -3.199  24.099  0.00  0.00    +0.100 A 
ATOM     16  N   UNL     1      -3.390  -2.884  24.566  0.00  0.00    -0.227 NA
ENDBRANCH  10  11
ENDBRANCH   7   8
ENDBRANCH   6   7
BRANCH  20  21
ATOM     21  C   UNL     1      -0.164   1.516  24.724  0.00  0.00    +0.120 C 
BRANCH  21  22
ATOM     22  N   UNL     1      -0.649   2.170  24.854  0.00  0.00    -0.201 NA
ATOM     23  C   UNL     1      -0.314   2.900  25.042  0.00  0.00    +0.265 C 
ATOM     24  O   UNL     1       0.505   2.976  25.100  0.00  0.00    -0.268 OA
BRANCH  23  25
ATOM     25  C   UNL     1      -0.800   3.556  25.171  0.00  0.00    +0.055 A 
ATOM     26  C   UNL     1      -1.477   3.481  25.637  0.00  0.00    +0.007 A 
ATOM     27  C   UNL     1      -1.962   4.136  25.767  0.00  0.00    +0.030 A 
ATOM     28  C   UNL     1      -1.769   4.865  25.431  0.00  0.00    +0.140 A 
ATOM     29  F   UNL     1      -2.253   5.519  25.561  0.00  0.00    -0.204 F 
ATOM     30  C   UNL     1      -1.092   4.938  24.966  0.00  0.00    +0.030 A 
ATOM     31  C   UNL     1      -0.607   4.283  24.836  0.00  0.00    +0.007 A 
ENDBRANCH  23  25
ENDBRANCH  21  22
ENDBRANCH  20  21
TORSDOF 7
ENDMDL
MODEL 5
REMARK VINA RESULT:      -9.9      3.275      5.191
REMARK  Name = 
REMARK  7 active torsions:
REMARK  status: ('A' for Active; 'I' for Inactive)
REMARK    1  A    between atoms: C_2  and  C_4
REMARK    2  A    between atoms: C_6  and  C_7
REMARK    3  A    between atoms: C_7  and  C_8
REMARK    4  A    between atoms: N_10  and  C_11
REMARK    5  A    between atoms: C_20  and  C_21
REMARK    6  A    between atoms: C_21  and  N_22
REMARK    7  A    between atoms: C_23  and  C_25
REMARK                            x       y       z     vdW  Elec       q    Type
REMARK                         _______ _______ _______ _____ _____    ______ ____
ROOT
ATOM      4  C   UNL     1      -1.381   1.042  24.770  0.00  0.00    +0.006 C 
ATOM      5  C   UNL     1      -1.823   1.676  25.059  0.00  0.00    +0.005 C 
ATOM      6  C   UNL     1      -1.595   2.449  24.891  0.00  0.00    +0.027 C 
ATOM     17  C   UNL     1      -0.923   2.592  24.435  0.00  0.00    -0.048 C 
ATOM     18  C   UNL     1      -0.694   3.366  24.267  0.00  0.00    +0.026 C 
ATOM     19  C   UNL     1      -0.479   1.958  24.146  0.00  0.00    -0.033 C 
ATOM     20  C   UNL     1      -0.708   1.184  24.313  0.00  0.00    +0.043 C 
ENDROOT
BRANCH   4   2
ATOM      1  C   UNL     1      -2.117  -0.132  24.425  0.00  0.00    +0.000 C 
ATOM      2  C   UNL     1      -1.609   0.268  24.938  0.00  0.00    +0.000 C 
ATOM      3  C   UNL     1      -1.332  -0.106  25.619  0.00  0.00    +0.000 C 
ENDBRANCH   4   2
BRANCH   6   7
ATOM      7  C   UNL     1      -2.038   3.083  25.180  0.00  0.00    +0.091 C 
BRANCH   7   8
ATOM      8  C   UNL     1      -2.856   3.100  25.068  0.00  0.00    +0.247 C 
ATOM      9  O   UNL     1      -3.166   3.111  24.303  0.00  0.00    -0.273 OA
ATOM     10  N   UNL     1      -3.361   3.106  25.719  0.00  0.00    -0.160 NA
BRANCH  10  11
ATOM     11  C   UNL     1      -4.179   3.123  25.606  0.00  0.00    +0.154 A 
ATOM     12  C   UNL     1      -4.604   2.416  25.566  0.00  0.00    +0.036 A 
ATOM     13  C   UNL     1      -5.421   2.433  25.453  0.00  0.00    +0.005 A 
ATOM     14  C   UNL     1      -5.813   3.156  25.382  0.00  0.00    +0.021 A 
ATOM     15  C   UNL     1      -5.387   3.861  25.423  0.00  0.00    +0.100 A 
ATOM     16  N   UNL     1      -4.570   3.845  25.535  0.00  0.00    -0.227 NA
ENDBRANCH  10  11
ENDBRANCH   7   8
ENDBRANCH   6   7
BRANCH  20  21
ATOM     21  C   UNL     1      -0.265   0.551  24.025  0.00  0.00    +0.120 C 
BRANCH  21  22
ATOM     22  N   UNL     1       0.471   0.686  23.678  0.00  0.00    -0.201 NA
ATOM     23  C   UNL     1       0.882   0.063  23.327  0.00  0.00    +0.265 C 
ATOM     24  O   UNL     1       0.557  -0.696  23.323  0.00  0.00    -0.268 OA
BRANCH  23  25
ATOM     25  C   UNL     1       1.619   0.198  22.980  0.00  0.00    +0.055 A 
ATOM     26  C   UNL     1       1.793  -0.127  22.242  0.00  0.00    +0.007 A 
ATOM     27  C   UNL     1       2.529   0.008  21.895  0.00  0.00    +0.030 A 
ATOM     28  C   UNL     1       3.092   0.468  22.286  0.00  0.00    +0.140 A 
ATOM     29  F   UNL     1       3.827   0.602  21.940  0.00  0.00    -0.204 F 
ATOM     30  C   UNL     1       2.917   0.792  23.024  0.00  0.00    +0.030 A 
ATOM     31  C   UNL     1       2.181   0.657  23.371  0.00  0.00    +0.007 A 
ENDBRANCH  23  25
ENDBRANCH  21  22
ENDBRANCH  20  21
TORSDOF 7
ENDMDL
MODEL 6
REMARK VINA RESULT:      -9.7      3.360      4.813
REMARK  Name = 
REMARK  7 active torsions:
REMARK  status: ('A' for Active; 'I' for Inactive)
REMARK    1  A    between atoms: C_2  and  C_4
REMARK    2  A    between atoms: C_6  and  C_7
REMARK    3  A    between atoms: C_7  and  C_8
REMARK    4  A    between atoms: N_10  and  C_11
REMARK    5  A    between atoms: C_20  and  C_21
REMARK    6  A    between atoms: C_21  and  N_22
REMARK    7  A    between atoms: C_23  and  C_25
REMARK                            x       y       z     vdW  Elec       q    Type
REMARK                         _______ _______ _______ _____ _____    ______ ____
ROOT
ATOM      4  C   UNL     1      -0.859   1.953  24.643  0.00  0.00    +0.006 C 
ATOM      5  C   UNL     1      -0.321   1.360  24.448  0.00  0.00    +0.005 C 
ATOM      6  C   UNL     1      -0.592   0.609  24.242  0.00  0.00    +0.027 C 
ATOM     17  C   UNL     1      -1.401   0.451  24.230  0.00  0.00    -0.048 C 
ATOM     18  C   UNL     1      -1.672  -0.301  24.024  0.00  0.00    +0.026 C 
ATOM     19  C   UNL     1      -1.940   1.045  24.426  0.00  0.00    -0.033 C 
ATOM     20  C   UNL     1      -1.669   1.795  24.632  0.00  0.00    +0.043 C 
ENDROOT
BRANCH   4   2
ATOM      1  C   UNL     1      -0.514   3.289  24.272  0.00  0.00    +0.000 C 
ATOM      2  C   UNL     1      -0.588   2.705  24.850  0.00  0.00    +0.000 C 
ATOM      3  C   UNL     1      -0.392   2.871  25.633  0.00  0.00    +0.000 C 
ENDBRANCH   4   2
BRANCH   6   7
ATOM      7  C   UNL     1      -0.053   0.015  24.046  0.00  0.00    +0.091 C 
BRANCH   7   8
ATOM      8  C   UNL     1       0.541   0.163  23.493  0.00  0.00    +0.247 C 
ATOM      9  O   UNL     1       0.350   0.496  22.762  0.00  0.00    -0.273 OA
ATOM     10  N   UNL     1       1.325  -0.023  23.670  0.00  0.00    -0.160 NA
BRANCH  10  11
ATOM     11  C   UNL     1       1.919   0.125  23.116  0.00  0.00    +0.154 A 
ATOM     12  C   UNL     1       2.504   0.684  23.279  0.00  0.00    +0.036 A 
ATOM     13  C   UNL     1       3.098   0.831  22.726  0.00  0.00    +0.005 A 
ATOM     14  C   UNL     1       3.107   0.420  22.010  0.00  0.00    +0.021 A 
ATOM     15  C   UNL     1       2.522  -0.138  21.848  0.00  0.00    +0.100 A 
ATOM     16  N   UNL     1       1.928  -0.286  22.401  0.00  0.00    -0.227 NA
ENDBRANCH  10  11
ENDBRANCH   7   8
ENDBRANCH   6   7
BRANCH  20  21
ATOM     21  C   UNL     1      -2.208   2.389  24.828  0.00  0.00    +0.120 C 
BRANCH  21  22
ATOM     22  N   UNL     1      -2.999   2.201  24.966  0.00  0.00    -0.201 NA
ATOM     23  C   UNL     1      -3.571   2.794  24.957  0.00  0.00    +0.265 C 
ATOM     24  O   UNL     1      -3.354   3.576  24.810  0.00  0.00    -0.268 OA
BRANCH  23  25
ATOM     25  C   UNL     1      -4.363   2.605  25.095  0.00  0.00    +0.055 A 
ATOM     26  C   UNL     1      -4.763   2.100  24.579  0.00  0.00    +0.007 A 
ATOM     27  C   UNL     1      -5.554   1.911  24.717  0.00  0.00    +0.030 A 
ATOM     28  C   UNL     1      -5.946   2.228  25.371  0.00  0.00    +0.140 A 
ATOM     29  F   UNL     1      -6.736   2.039  25.509  0.00  0.00    -0.204 F 
ATOM     30  C   UNL     1      -5.546   2.732  25.886  0.00  0.00    +0.030 A 
ATOM     31  C   UNL     1      -4.754   2.921  25.748  0.00  0.00    +0.007 A 
ENDBRANCH  23  25
ENDBRANCH  21  22
ENDBRANCH  20  21
TORSDOF 7
ENDMDL
MODEL 7
REMARK VINA RESULT:      -9.5      2.775      4.196
REMARK  Name = 
REMARK  7 active torsions:
REMARK  status: ('A' for Active; 'I' for Inactive)
REMARK    1  A    between atoms: C_2  and  C_4
REMARK    2  A    between atoms: C_6  and  C_7
REMARK    3  A    between atoms: C_7  and  C_8
REMARK    4  A    between atoms: N_10  and  C_11
REMARK    5  A    between atoms: C_20  and  C_21
REMARK    6  A    between atoms: C_21  and  N_22
REMARK    7  A    between atoms: C_23  and  C_25
REMARK                            x       y       z     vdW  Elec       q    Type
REMARK                         _______ _______ _______ _____ _____    ______ ____
ROOT
ATOM      4  C   UNL     1      -2.794  -0.661  24.633  0.00  0.00    +0.006 C 
ATOM      5  C   UNL     1      -1.999  -0.877  24.672  0.00  0.00    +0.005 C 
ATOM      6  C   UNL     1      -1.449  -0.367  25.014  0.00  0.00    +0.027 C 
ATOM     17  C   UNL     1      -1.694   0.359  25.319  0.00  0.00    -0.048 C 
ATOM     18  C   UNL     1      -1.144   0.869  25.663  0.00  0.00    +0.026 C 
ATOM     19  C   UNL     1      -2.490   0.575  25.281  0.00  0.00    -0.033 C 
ATOM     20  C   UNL     1      -3.039   0.066  24.938  0.00  0.00    +0.043 C 
ENDROOT
BRANCH   4   2
ATOM      1  C   UNL     1      -3.588  -1.051  23.511  0.00  0.00    +0.000 C 
ATOM      2  C   UNL     1      -3.344  -1.172  24.290  0.00  0.00    +0.000 C 
ATOM      3  C   UNL     1      -3.650  -1.801  24.726  0.00  0.00    +0.000 C 
ENDBRANCH   4   2
BRANCH   6   7
ATOM      7  C   UNL     1      -0.653  -0.584  25.053  0.00  0.00    +0.091 C 
BRANCH   7   8
ATOM      8  C   UNL     1      -0.217  -0.675  24.359  0.00  0.00    +0.247 C 
ATOM      9  O   UNL     1      -0.223  -1.398  23.961  0.00  0.00    -0.273 OA
ATOM     10  N   UNL     1       0.226  -0.045  24.064  0.00  0.00    -0.160 NA
BRANCH  10  11
ATOM     11  C   UNL     1       0.663  -0.137  23.369  0.00  0.00    +0.154 A 
ATOM     12  C   UNL     1       0.275  -0.205  22.644  0.00  0.00    +0.036 A 
ATOM     13  C   UNL     1       0.712  -0.297  21.950  0.00  0.00    +0.005 A 
ATOM     14  C   UNL     1       1.536  -0.321  21.982  0.00  0.00    +0.021 A 
ATOM     15  C   UNL     1       1.923  -0.253  22.707  0.00  0.00    +0.100 A 
ATOM     16  N   UNL     1       1.486  -0.161  23.401  0.00  0.00    -0.227 NA
ENDBRANCH  10  11
ENDBRANCH   7   8
ENDBRANCH   6   7
BRANCH  20  21
ATOM     21  C   UNL     1      -3.834   0.281  24.900  0.00  0.00    +0.120 C 
BRANCH  21  22
ATOM     22  N   UNL     1      -4.057   1.065  25.030  0.00  0.00    -0.201 NA
ATOM     23  C   UNL     1      -4.855   1.266  25.067  0.00  0.00    +0.265 C 
ATOM     24  O   UNL     1      -5.433   0.684  24.973  0.00  0.00    -0.268 OA
BRANCH  23  25
ATOM     25  C   UNL     1      -5.078   2.050  25.197  0.00  0.00    +0.055 A 
ATOM     26  C   UNL     1      -4.709   2.658  24.778  0.00  0.00    +0.007 A 
ATOM     27  C   UNL     1      -4.932   3.442  24.908  0.00  0.00    +0.030 A 
ATOM     28  C   UNL     1      -5.523   3.618  25.457  0.00  0.00    +0.140 A 
ATOM     29  F   UNL     1      -5.745   4.401  25.587  0.00  0.00    -0.204 F 
ATOM     30  C   UNL     1      -5.891   3.009  25.875  0.00  0.00    +0.030 A 
ATOM     31  C   UNL     1      -5.668   2.226  25.745  0.00  0.00    +0.007 A 
ENDBRANCH  23  25
ENDBRANCH  21  22
ENDBRANCH  20  21
TORSDOF 7
ENDMDL
