REMARK  Name = 
REMARK  5 active torsions:
REMARK  status: ('A' for Active; 'I' for Inactive)
REMARK    1  A    between atoms: N_7  and  C_10
REMARK    2  A    between atoms: C_12  and  C_16
REMARK    3  A    between atoms: C_19  and  C_21
REMARK    4  A    between atoms: N_25  and  C_26
REMARK    5  A    between atoms: C_26  and  C_27
REMARK                            x       y       z     vdW  Elec       q    Type
REMARK                         _______ _______ _______ _____ _____    ______ ____
ROOT
ATOM     10  C   UNL     1      -1.259  -0.200   0.000  0.00  0.00    +0.132 A 
ATOM     11  C   UNL     1      -1.595   0.554   0.000  0.00  0.00    +0.037 A 
ATOM     12  C   UNL     1      -1.110   1.221   0.000  0.00  0.00    +0.043 A 
ATOM     13  C   UNL     1      -0.289   1.135   0.000  0.00  0.00    +0.024 A 
ATOM     14  C   UNL     1       0.046   0.381   0.000  0.00  0.00    +0.100 A 
ATOM     15  N   UNL     1      -0.439  -0.286   0.000  0.00  0.00    -0.229 NA
ENDROOT
BRANCH  10   7
ATOM      1  C   UNL     1      -2.863  -3.623   0.000  0.00  0.00    +0.095 C 
ATOM      2  C   UNL     1      -3.199  -2.870   0.000  0.00  0.00    +0.226 C 
ATOM      3  O   UNL     1      -4.019  -2.784   0.000  0.00  0.00    -0.275 OA
ATOM      4  N   UNL     1      -2.714  -2.202   0.000  0.00  0.00    -0.276 N 
ATOM      5  C   UNL     1      -3.050  -1.449   0.000  0.00  0.00    +0.115 C 
ATOM      6  C   UNL     1      -2.565  -0.781   0.000  0.00  0.00    +0.114 C 
ATOM      7  N   UNL     1      -1.744  -0.867   0.000  0.00  0.00    -0.290 N 
ATOM      8  C   UNL     1      -1.409  -1.621   0.000  0.00  0.00    +0.114 C 
ATOM      9  C   UNL     1      -1.894  -2.288   0.000  0.00  0.00    +0.115 C 
ENDBRANCH  10   7
BRANCH  12  16
ATOM     16  C   UNL     1      -1.446   1.975   0.000  0.00  0.00    +0.203 A 
ATOM     17  N   UNL     1      -2.252   2.146   0.000  0.00  0.00    -0.056 NA
ATOM     18  O   UNL     1      -2.339   2.967   0.000  0.00  0.00    -0.336 OA
ATOM     19  C   UNL     1      -1.585   3.302   0.000  0.00  0.00    +0.251 A 
ATOM     20  N   UNL     1      -1.033   2.689   0.000  0.00  0.00    -0.190 NA
BRANCH  19  21
ATOM     21  C   UNL     1      -1.413   4.109   0.000  0.00  0.00    +0.138 C 
ATOM     22  C   UNL     1      -1.966   4.723   0.000  0.00  0.00    +0.027 C 
ATOM     23  C   UNL     1      -1.553   5.437   0.000  0.00  0.00    +0.019 C 
ATOM     24  C   UNL     1      -0.746   5.265   0.000  0.00  0.00    +0.073 C 
ATOM     25  N   UNL     1      -0.660   4.445   0.000  0.00  0.00    -0.266 NA
BRANCH  25  26
ATOM     26  C   UNL     1       0.055   4.032   0.000  0.00  0.00    +0.072 C 
BRANCH  26  27
ATOM     27  C   UNL     1       0.055   3.207   0.000  0.00  0.00    +0.016 C 
ATOM     28  C   UNL     1       0.467   2.493   0.000  0.00  0.00    +0.001 C 
ATOM     29  C   UNL     1      -0.358   2.493   0.000  0.00  0.00    +0.001 C 
ENDBRANCH  26  27
ENDBRANCH  25  26
ENDBRANCH  19  21
ENDBRANCH  12  16
TORSDOF 5
