REMARK  Name = 
REMARK  7 active torsions:
REMARK  status: ('A' for Active; 'I' for Inactive)
REMARK    1  A    between atoms: N_4  and  C_5
REMARK    2  A    between atoms: C_5  and  C_6
REMARK    3  A    between atoms: C_6  and  C_7
REMARK    4  A    between atoms: C_11  and  C_12
REMARK    5  A    between atoms: C_14  and  N_15
REMARK    6  A    between atoms: N_15  and  C_16
REMARK    7  A    between atoms: C_16  and  C_17
REMARK                            x       y       z     vdW  Elec       q    Type
REMARK                         _______ _______ _______ _____ _____    ______ ____
ROOT
ATOM     12  C   UNL     1      -1.333  -4.508   0.000  0.00  0.00    +0.048 C 
ATOM     13  C   UNL     1      -2.001  -4.993   0.000  0.00  0.00    +0.031 C 
ATOM     14  C   UNL     1      -2.668  -4.508   0.000  0.00  0.00    +0.095 C 
ATOM     24  C   UNL     1      -2.413  -3.723   0.000  0.00  0.00    -0.013 C 
ATOM     25  C   UNL     1      -1.588  -3.723   0.000  0.00  0.00    -0.025 C 
ENDROOT
BRANCH  12  11
ATOM      1  C   UNL     1       0.119  -3.453   0.000  0.00  0.00    +0.054 C 
ATOM      2  C   UNL     1       0.119  -4.278   0.000  0.00  0.00    +0.076 A 
ATOM      3  N   UNL     1       0.786  -4.763   0.000  0.00  0.00    -0.174 NA
ATOM      4  N   UNL     1       0.531  -5.548   0.000  0.00  0.00    -0.254 N 
ATOM      9  C   UNL     1      -0.293  -5.548   0.000  0.00  0.00    +0.053 A 
ATOM     10  C   UNL     1      -0.778  -6.215   0.000  0.00  0.00    +0.051 C 
ATOM     11  C   UNL     1      -0.548  -4.763   0.000  0.00  0.00    +0.010 A 
BRANCH   4   5
ATOM      5  C   UNL     1       1.016  -6.215   0.000  0.00  0.00    +0.143 C 
BRANCH   5   6
ATOM      6  C   UNL     1       1.837  -6.129   0.000  0.00  0.00    +0.132 C 
BRANCH   6   7
ATOM      7  C   UNL     1       2.322  -6.796   0.000  0.00  0.00    +0.075 C 
ATOM      8  N   UNL     1       2.807  -7.464   0.000  0.00  0.00    -0.196 NA
ENDBRANCH   6   7
ENDBRANCH   5   6
ENDBRANCH   4   5
ENDBRANCH  12  11
BRANCH  14  15
ATOM     15  N   UNL     1      -3.453  -4.763   0.000  0.00  0.00    -0.210 NA
BRANCH  15  16
ATOM     16  C   UNL     1      -3.624  -5.570   0.000  0.00  0.00    +0.115 C 
BRANCH  16  17
ATOM     17  C   UNL     1      -4.409  -5.825   0.000  0.00  0.00    -0.004 A 
ATOM     18  C   UNL     1      -4.580  -6.632   0.000  0.00  0.00    -0.003 A 
ATOM     19  C   UNL     1      -5.365  -6.887   0.000  0.00  0.00    +0.001 A 
ATOM     20  C   UNL     1      -5.978  -6.335   0.000  0.00  0.00    +0.011 A 
ATOM     21  C   UNL     1      -5.806  -5.528   0.000  0.00  0.00    +0.057 A 
ATOM     22 CL   UNL     1      -6.420  -4.976   0.000  0.00  0.00    -0.082 Cl
ATOM     23  C   UNL     1      -5.022  -5.273   0.000  0.00  0.00    +0.009 A 
ENDBRANCH  16  17
ENDBRANCH  15  16
ENDBRANCH  14  15
TORSDOF 7
