REMARK  Name = 
REMARK  7 active torsions:
REMARK  status: ('A' for Active; 'I' for Inactive)
REMARK    1  A    between atoms: C_2  and  C_3
REMARK    2  A    between atoms: C_3  and  C_4
REMARK    3  A    between atoms: C_3  and  C_6
REMARK    4  A    between atoms: N_8  and  C_9
REMARK    5  A    between atoms: C_9  and  C_10
REMARK    6  A    between atoms: C_12  and  C_13
REMARK    7  A    between atoms: C_13  and  C_14
REMARK                            x       y       z     vdW  Elec       q    Type
REMARK                         _______ _______ _______ _____ _____    ______ ____
ROOT
ATOM     10  C   UNL     1       4.426  -9.863   0.000  0.00  0.00    +0.170 C 
ATOM     11  O   UNL     1       5.246  -9.949   0.000  0.00  0.00    -0.351 OA
ATOM     12  C   UNL     1       5.418 -10.756   0.000  0.00  0.00    +0.157 C 
ATOM     28  C   UNL     1       4.703 -11.168   0.000  0.00  0.00    +0.212 C 
ATOM     29  O   UNL     1       4.617 -11.989   0.000  0.00  0.00    -0.218 OA
ATOM     30  C   UNL     1       4.090 -10.616   0.000  0.00  0.00    +0.213 C 
ATOM     31  O   UNL     1       3.283 -10.788   0.000  0.00  0.00    -0.218 OA
ENDROOT
BRANCH  10   9
ATOM      9  C   UNL     1       4.013  -9.148   0.000  0.00  0.00    +0.147 C 
BRANCH   9   8
ATOM      6  C   UNL     1       2.776  -8.434   0.000  0.00  0.00    +0.241 C 
ATOM      7  O   UNL     1       3.188  -7.719   0.000  0.00  0.00    -0.273 OA
ATOM      8  N   UNL     1       3.188  -9.148   0.000  0.00  0.00    -0.203 NA
BRANCH   6   3
ATOM      3  C   UNL     1       1.951  -8.434   0.000  0.00  0.00    +0.078 C 
BRANCH   3   2
ATOM      1  C   UNL     1       0.713  -7.719   0.000  0.00  0.00    +0.001 C 
ATOM      2  C   UNL     1       1.538  -7.719   0.000  0.00  0.00    +0.009 C 
ENDBRANCH   3   2
BRANCH   3   4
ATOM      4  C   UNL     1       1.538  -9.148   0.000  0.00  0.00    +0.009 C 
ATOM      5  C   UNL     1       0.713  -9.148   0.000  0.00  0.00    +0.001 C 
ENDBRANCH   3   4
ENDBRANCH   6   3
ENDBRANCH   9   8
ENDBRANCH  10   9
BRANCH  12  13
ATOM     13  C   UNL     1       6.171 -11.091   0.000  0.00  0.00    +0.117 C 
BRANCH  13  14
ATOM     14  C   UNL     1       6.839 -10.606   0.000  0.00  0.00    +0.228 C 
ATOM     15  O   UNL     1       6.753  -9.786   0.000  0.00  0.00    -0.275 OA
ATOM     16  N   UNL     1       7.593 -10.942   0.000  0.00  0.00    -0.276 N 
ATOM     17  C   UNL     1       8.260 -10.457   0.000  0.00  0.00    +0.115 C 
ATOM     18  C   UNL     1       9.014 -10.793   0.000  0.00  0.00    +0.114 C 
ATOM     19  N   UNL     1       9.100 -11.613   0.000  0.00  0.00    -0.290 N 
ATOM     20  C   UNL     1       8.432 -12.098   0.000  0.00  0.00    +0.114 C 
ATOM     21  C   UNL     1       7.679 -11.762   0.000  0.00  0.00    +0.115 C 
ATOM     22  C   UNL     1       9.854 -11.949   0.000  0.00  0.00    +0.132 A 
ATOM     23  N   UNL     1      10.521 -11.464   0.000  0.00  0.00    -0.229 NA
ATOM     24  C   UNL     1      11.275 -11.799   0.000  0.00  0.00    +0.100 A 
ATOM     25  C   UNL     1      11.361 -12.620   0.000  0.00  0.00    +0.021 A 
ATOM     26  C   UNL     1      10.693 -13.105   0.000  0.00  0.00    +0.004 A 
ATOM     27  C   UNL     1       9.940 -12.769   0.000  0.00  0.00    +0.034 A 
ENDBRANCH  13  14
ENDBRANCH  12  13
TORSDOF 7
