MODEL 1
REMARK VINA RESULT:     -11.1      0.000      0.000
REMARK  Name = 
REMARK  7 active torsions:
REMARK  status: ('A' for Active; 'I' for Inactive)
REMARK    1  A    between atoms: C_4  and  C_27
REMARK    2  A    between atoms: C_6  and  C_7
REMARK    3  A    between atoms: C_14  and  C_15
REMARK    4  A    between atoms: C_15  and  N_16
REMARK    5  A    between atoms: C_17  and  C_19
REMARK    6  A    between atoms: C_19  and  O_20
REMARK    7  A    between atoms: O_20  and  C_21
REMARK                            x       y       z     vdW  Elec       q    Type
REMARK                         _______ _______ _______ _____ _____    ______ ____
ROOT
ATOM      7  C   UNL     1      -0.466   1.569  25.248  0.00  0.00    +0.056 C 
ATOM      8  C   UNL     1      -0.738   1.038  25.748  0.00  0.00    +0.078 C 
ATOM      9  N   UNL     1      -0.380   0.884  25.020  0.00  0.00    -0.272 NA
ATOM     10  C   UNL     1      -0.130   1.809  24.596  0.00  0.00    +0.072 C 
ATOM     11  C   UNL     1       0.129   2.159  24.109  0.00  0.00    +0.018 C 
ATOM     12  C   UNL     1      -0.116   1.409  24.536  0.00  0.00    +0.010 C 
ATOM     13  C   UNL     1       0.060   0.655  24.122  0.00  0.00    +0.018 C 
ATOM     14  C   UNL     1      -0.195   0.104  24.585  0.00  0.00    +0.079 C 
ENDROOT
BRANCH   7   6
ATOM      1  C   UNL     1       0.362   2.374  26.623  0.00  0.00    +0.153 C 
ATOM      2  N   UNL     1      -0.160   2.732  26.094  0.00  0.00    -0.253 N 
ATOM      3  N   UNL     1      -0.393   3.524  26.104  0.00  0.00    -0.174 NA
ATOM      4  C   UNL     1      -0.917   3.643  25.479  0.00  0.00    +0.079 A 
ATOM      5  C   UNL     1      -1.008   2.926  25.082  0.00  0.00    +0.031 A 
ATOM      6  C   UNL     1      -0.540   2.363  25.463  0.00  0.00    +0.058 A 
BRANCH   4  27
ATOM     27  C   UNL     1      -1.285   4.355  25.284  0.00  0.00    +0.042 C 
ATOM     28  C   UNL     1      -2.083   4.534  25.391  0.00  0.00    +0.006 C 
ATOM     29  C   UNL     1      -2.211   5.303  25.122  0.00  0.00    +0.000 C 
ATOM     30  C   UNL     1      -1.491   5.600  24.848  0.00  0.00    +0.000 C 
ATOM     31  C   UNL     1      -0.919   5.014  24.948  0.00  0.00    +0.006 C 
ENDBRANCH   4  27
ENDBRANCH   7   6
BRANCH  14  15
ATOM     15  C   UNL     1      -0.262  -0.715  24.651  0.00  0.00    +0.131 C 
BRANCH  15  16
ATOM     16  N   UNL     1      -0.948  -1.096  24.395  0.00  0.00    -0.201 NA
ATOM     17  C   UNL     1      -1.123  -1.855  24.666  0.00  0.00    +0.286 C 
ATOM     18  O   UNL     1      -0.613  -2.234  25.192  0.00  0.00    -0.269 OA
BRANCH  17  19
ATOM     19  C   UNL     1      -1.809  -2.235  24.410  0.00  0.00    +0.291 C 
BRANCH  19  20
ATOM     20  O   UNL     1      -2.503  -2.176  24.853  0.00  0.00    -0.466 OA
BRANCH  20  21
ATOM     21  C   UNL     1      -3.237  -2.219  24.478  0.00  0.00    +0.139 A 
ATOM     22  C   UNL     1      -3.534  -2.948  24.234  0.00  0.00    +0.037 A 
ATOM     23  C   UNL     1      -4.268  -2.991  23.859  0.00  0.00    +0.003 A 
ATOM     24  C   UNL     1      -4.704  -2.303  23.728  0.00  0.00    +0.000 A 
ATOM     25  C   UNL     1      -4.407  -1.573  23.971  0.00  0.00    +0.003 A 
ATOM     26  C   UNL     1      -3.673  -1.531  24.346  0.00  0.00    +0.037 A 
ENDBRANCH  20  21
ENDBRANCH  19  20
ENDBRANCH  17  19
ENDBRANCH  15  16
ENDBRANCH  14  15
TORSDOF 7
ENDMDL
MODEL 2
REMARK VINA RESULT:     -11.0      3.109      4.977
REMARK  Name = 
REMARK  7 active torsions:
REMARK  status: ('A' for Active; 'I' for Inactive)
REMARK    1  A    between atoms: C_4  and  C_27
REMARK    2  A    between atoms: C_6  and  C_7
REMARK    3  A    between atoms: C_14  and  C_15
REMARK    4  A    between atoms: C_15  and  N_16
REMARK    5  A    between atoms: C_17  and  C_19
REMARK    6  A    between atoms: C_19  and  O_20
REMARK    7  A    between atoms: O_20  and  C_21
REMARK                            x       y       z     vdW  Elec       q    Type
REMARK                         _______ _______ _______ _____ _____    ______ ____
ROOT
ATOM      7  C   UNL     1      -1.516   1.342  24.040  0.00  0.00    +0.056 C 
ATOM      8  C   UNL     1      -1.275   1.503  23.318  0.00  0.00    +0.078 C 
ATOM      9  N   UNL     1      -0.937   0.954  23.834  0.00  0.00    -0.272 NA
ATOM     10  C   UNL     1      -1.495   0.978  24.721  0.00  0.00    +0.072 C 
ATOM     11  C   UNL     1      -1.606   0.764  25.328  0.00  0.00    +0.018 C 
ATOM     12  C   UNL     1      -1.180   0.801  24.540  0.00  0.00    +0.010 C 
ATOM     13  C   UNL     1      -0.492   0.263  24.448  0.00  0.00    +0.018 C 
ATOM     14  C   UNL     1      -0.224   0.392  23.745  0.00  0.00    +0.079 C 
ENDROOT
BRANCH   7   6
ATOM      1  C   UNL     1      -1.548   3.075  24.507  0.00  0.00    +0.153 C 
ATOM      2  N   UNL     1      -2.186   2.554  24.535  0.00  0.00    -0.253 N 
ATOM      3  N   UNL     1      -2.952   2.737  24.783  0.00  0.00    -0.174 NA
ATOM      4  C   UNL     1      -3.410   2.054  24.722  0.00  0.00    +0.079 A 
ATOM      5  C   UNL     1      -2.929   1.449  24.436  0.00  0.00    +0.031 A 
ATOM      6  C   UNL     1      -2.172   1.758  24.321  0.00  0.00    +0.058 A 
BRANCH   4  27
ATOM     27  C   UNL     1      -4.210   1.989  24.913  0.00  0.00    +0.042 C 
ATOM     28  C   UNL     1      -4.716   1.380  24.682  0.00  0.00    +0.006 C 
ATOM     29  C   UNL     1      -5.463   1.536  24.995  0.00  0.00    +0.000 C 
ATOM     30  C   UNL     1      -5.418   2.242  25.420  0.00  0.00    +0.000 C 
ATOM     31  C   UNL     1      -4.644   2.522  25.370  0.00  0.00    +0.006 C 
ENDBRANCH   4  27
ENDBRANCH   7   6
BRANCH  14  15
ATOM     15  C   UNL     1       0.365   0.159  23.217  0.00  0.00    +0.131 C 
BRANCH  15  16
ATOM     16  N   UNL     1       1.156   0.330  23.378  0.00  0.00    -0.201 NA
ATOM     17  C   UNL     1       1.740   0.136  22.829  0.00  0.00    +0.286 C 
ATOM     18  O   UNL     1       1.533  -0.227  22.117  0.00  0.00    -0.269 OA
BRANCH  17  19
ATOM     19  C   UNL     1       2.530   0.307  22.990  0.00  0.00    +0.291 C 
BRANCH  19  20
ATOM     20  O   UNL     1       3.119  -0.238  22.794  0.00  0.00    -0.466 OA
BRANCH  20  21
ATOM     21  C   UNL     1       3.882  -0.147  23.094  0.00  0.00    +0.139 A 
ATOM     22  C   UNL     1       4.232  -0.759  23.521  0.00  0.00    +0.037 A 
ATOM     23  C   UNL     1       4.996  -0.669  23.822  0.00  0.00    +0.003 A 
ATOM     24  C   UNL     1       5.408   0.034  23.695  0.00  0.00    +0.000 A 
ATOM     25  C   UNL     1       5.057   0.647  23.267  0.00  0.00    +0.003 A 
ATOM     26  C   UNL     1       4.294   0.556  22.967  0.00  0.00    +0.037 A 
ENDBRANCH  20  21
ENDBRANCH  19  20
ENDBRANCH  17  19
ENDBRANCH  15  16
ENDBRANCH  14  15
TORSDOF 7
ENDMDL
MODEL 3
REMARK VINA RESULT:     -10.3      2.741      6.415
REMARK  Name = 
REMARK  7 active torsions:
REMARK  status: ('A' for Active; 'I' for Inactive)
REMARK    1  A    between atoms: C_4  and  C_27
REMARK    2  A    between atoms: C_6  and  C_7
REMARK    3  A    between atoms: C_14  and  C_15
REMARK    4  A    between atoms: C_15  and  N_16
REMARK    5  A    between atoms: C_17  and  C_19
REMARK    6  A    between atoms: C_19  and  O_20
REMARK    7  A    between atoms: O_20  and  C_21
REMARK                            x       y       z     vdW  Elec       q    Type
REMARK                         _______ _______ _______ _____ _____    ______ ____
ROOT
ATOM      7  C   UNL     1      -4.069   0.935  24.770  0.00  0.00    +0.056 C 
ATOM      8  C   UNL     1      -3.485   1.424  24.929  0.00  0.00    +0.078 C 
ATOM      9  N   UNL     1      -4.287   1.562  25.067  0.00  0.00    -0.272 NA
ATOM     10  C   UNL     1      -4.808   0.712  24.743  0.00  0.00    +0.072 C 
ATOM     11  C   UNL     1      -5.368   0.388  24.655  0.00  0.00    +0.018 C 
ATOM     12  C   UNL     1      -4.854   1.078  24.909  0.00  0.00    +0.010 C 
ATOM     13  C   UNL     1      -5.275   1.767  25.253  0.00  0.00    +0.018 C 
ATOM     14  C   UNL     1      -4.731   2.274  25.424  0.00  0.00    +0.079 C 
ENDROOT
BRANCH   7   6
ATOM      1  C   UNL     1      -3.305   0.692  23.163  0.00  0.00    +0.153 C 
ATOM      2  N   UNL     1      -3.521   0.097  23.692  0.00  0.00    -0.253 N 
ATOM      3  N   UNL     1      -3.425  -0.714  23.576  0.00  0.00    -0.174 NA
ATOM      4  C   UNL     1      -3.716  -1.104  24.243  0.00  0.00    +0.079 A 
ATOM      5  C   UNL     1      -3.992  -0.534  24.770  0.00  0.00    +0.031 A 
ATOM      6  C   UNL     1      -3.872   0.208  24.430  0.00  0.00    +0.058 A 
BRANCH   4  27
ATOM     27  C   UNL     1      -3.728  -1.920  24.360  0.00  0.00    +0.042 C 
ATOM     28  C   UNL     1      -4.127  -2.472  23.894  0.00  0.00    +0.006 C 
ATOM     29  C   UNL     1      -3.988  -3.221  24.210  0.00  0.00    +0.000 C 
ATOM     30  C   UNL     1      -3.503  -3.132  24.871  0.00  0.00    +0.000 C 
ATOM     31  C   UNL     1      -3.342  -2.329  24.964  0.00  0.00    +0.006 C 
ENDBRANCH   4  27
ENDBRANCH   7   6
BRANCH  14  15
ATOM     15  C   UNL     1      -4.614   3.025  25.744  0.00  0.00    +0.131 C 
BRANCH  15  16
ATOM     16  N   UNL     1      -3.989   3.494  25.480  0.00  0.00    -0.201 NA
ATOM     17  C   UNL     1      -3.694   4.096  25.961  0.00  0.00    +0.286 C 
ATOM     18  O   UNL     1      -4.025   4.230  26.704  0.00  0.00    -0.269 OA
BRANCH  17  19
ATOM     19  C   UNL     1      -3.069   4.565  25.697  0.00  0.00    +0.291 C 
BRANCH  19  20
ATOM     20  O   UNL     1      -2.300   4.409  25.952  0.00  0.00    -0.466 OA
BRANCH  20  21
ATOM     21  C   UNL     1      -1.658   4.597  25.469  0.00  0.00    +0.139 A 
ATOM     22  C   UNL     1      -1.570   5.363  25.177  0.00  0.00    +0.037 A 
ATOM     23  C   UNL     1      -0.929   5.550  24.694  0.00  0.00    +0.003 A 
ATOM     24  C   UNL     1      -0.374   4.970  24.501  0.00  0.00    +0.000 A 
ATOM     25  C   UNL     1      -0.461   4.203  24.793  0.00  0.00    +0.003 A 
ATOM     26  C   UNL     1      -1.103   4.017  25.277  0.00  0.00    +0.037 A 
ENDBRANCH  20  21
ENDBRANCH  19  20
ENDBRANCH  17  19
ENDBRANCH  15  16
ENDBRANCH  14  15
TORSDOF 7
ENDMDL
MODEL 4
REMARK VINA RESULT:      -9.4      1.713      5.642
REMARK  Name = 
REMARK  7 active torsions:
REMARK  status: ('A' for Active; 'I' for Inactive)
REMARK    1  A    between atoms: C_4  and  C_27
REMARK    2  A    between atoms: C_6  and  C_7
REMARK    3  A    between atoms: C_14  and  C_15
REMARK    4  A    between atoms: C_15  and  N_16
REMARK    5  A    between atoms: C_17  and  C_19
REMARK    6  A    between atoms: C_19  and  O_20
REMARK    7  A    between atoms: O_20  and  C_21
REMARK                            x       y       z     vdW  Elec       q    Type
REMARK                         _______ _______ _______ _____ _____    ______ ____
ROOT
ATOM      7  C   UNL     1      -1.423  -0.363  24.725  0.00  0.00    +0.056 C 
ATOM      8  C   UNL     1      -1.528   0.365  24.979  0.00  0.00    +0.078 C 
ATOM      9  N   UNL     1      -0.870   0.082  24.570  0.00  0.00    -0.272 NA
ATOM     10  C   UNL     1      -1.040  -0.934  24.375  0.00  0.00    +0.072 C 
ATOM     11  C   UNL     1      -0.847  -1.504  24.120  0.00  0.00    +0.018 C 
ATOM     12  C   UNL     1      -0.774  -0.634  24.324  0.00  0.00    +0.010 C 
ATOM     13  C   UNL     1      -0.036  -0.237  24.063  0.00  0.00    +0.018 C 
ATOM     14  C   UNL     1      -0.100   0.488  24.295  0.00  0.00    +0.079 C 
ENDROOT
BRANCH   7   6
ATOM      1  C   UNL     1      -1.912  -0.972  26.342  0.00  0.00    +0.153 C 
ATOM      2  N   UNL     1      -2.250  -1.186  25.621  0.00  0.00    -0.253 N 
ATOM      3  N   UNL     1      -2.873  -1.718  25.515  0.00  0.00    -0.174 NA
ATOM      4  C   UNL     1      -3.033  -1.766  24.708  0.00  0.00    +0.079 A 
ATOM      5  C   UNL     1      -2.510  -1.265  24.314  0.00  0.00    +0.031 A 
ATOM      6  C   UNL     1      -2.026  -0.906  24.878  0.00  0.00    +0.058 A 
BRANCH   4  27
ATOM     27  C   UNL     1      -3.615  -2.234  24.357  0.00  0.00    +0.042 C 
ATOM     28  C   UNL     1      -3.662  -3.057  24.391  0.00  0.00    +0.006 C 
ATOM     29  C   UNL     1      -4.328  -3.292  23.965  0.00  0.00    +0.000 C 
ATOM     30  C   UNL     1      -4.692  -2.614  23.667  0.00  0.00    +0.000 C 
ATOM     31  C   UNL     1      -4.251  -1.960  23.908  0.00  0.00    +0.006 C 
ENDBRANCH   4  27
ENDBRANCH   7   6
BRANCH  14  15
ATOM     15  C   UNL     1       0.295   1.211  24.297  0.00  0.00    +0.131 C 
BRANCH  15  16
ATOM     16  N   UNL     1      -0.133   1.916  24.301  0.00  0.00    -0.201 NA
ATOM     17  C   UNL     1       0.241   2.625  24.495  0.00  0.00    +0.286 C 
ATOM     18  O   UNL     1       1.044   2.630  24.685  0.00  0.00    -0.269 OA
BRANCH  17  19
ATOM     19  C   UNL     1      -0.187   3.330  24.498  0.00  0.00    +0.291 C 
BRANCH  19  20
ATOM     20  O   UNL     1      -0.395   3.683  25.215  0.00  0.00    -0.466 OA
BRANCH  20  21
ATOM     21  C   UNL     1      -1.010   4.232  25.241  0.00  0.00    +0.139 A 
ATOM     22  C   UNL     1      -0.900   4.990  24.936  0.00  0.00    +0.037 A 
ATOM     23  C   UNL     1      -1.515   5.540  24.963  0.00  0.00    +0.003 A 
ATOM     24  C   UNL     1      -2.240   5.330  25.295  0.00  0.00    +0.000 A 
ATOM     25  C   UNL     1      -2.351   4.572  25.600  0.00  0.00    +0.003 A 
ATOM     26  C   UNL     1      -1.736   4.023  25.573  0.00  0.00    +0.037 A 
ENDBRANCH  20  21
ENDBRANCH  19  20
ENDBRANCH  17  19
ENDBRANCH  15  16
ENDBRANCH  14  15
TORSDOF 7
ENDMDL
MODEL 5
REMARK VINA RESULT:      -9.1      2.426      4.350
REMARK  Name = 
REMARK  7 active torsions:
REMARK  status: ('A' for Active; 'I' for Inactive)
REMARK    1  A    between atoms: C_4  and  C_27
REMARK    2  A    between atoms: C_6  and  C_7
REMARK    3  A    between atoms: C_14  and  C_15
REMARK    4  A    between atoms: C_15  and  N_16
REMARK    5  A    between atoms: C_17  and  C_19
REMARK    6  A    between atoms: C_19  and  O_20
REMARK    7  A    between atoms: O_20  and  C_21
REMARK                            x       y       z     vdW  Elec       q    Type
REMARK                         _______ _______ _______ _____ _____    ______ ____
ROOT
ATOM      7  C   UNL     1      -0.791   0.103  24.059  0.00  0.00    +0.056 C 
ATOM      8  C   UNL     1      -1.413   0.496  23.807  0.00  0.00    +0.078 C 
ATOM      9  N   UNL     1      -1.423  -0.193  24.262  0.00  0.00    -0.272 NA
ATOM     10  C   UNL     1      -0.426  -0.467  24.430  0.00  0.00    +0.072 C 
ATOM     11  C   UNL     1       0.016  -0.871  24.692  0.00  0.00    +0.018 C 
ATOM     12  C   UNL     1      -0.809  -0.573  24.505  0.00  0.00    +0.010 C 
ATOM     13  C   UNL     1      -1.473  -1.047  24.827  0.00  0.00    +0.018 C 
ATOM     14  C   UNL     1      -2.109  -0.691  24.600  0.00  0.00    +0.079 C 
ENDROOT
BRANCH   7   6
ATOM      1  C   UNL     1      -0.102   1.678  24.577  0.00  0.00    +0.153 C 
ATOM      2  N   UNL     1       0.268   1.123  24.091  0.00  0.00    -0.253 N 
ATOM      3  N   UNL     1       1.020   1.194  23.759  0.00  0.00    -0.174 NA
ATOM      4  C   UNL     1       1.168   0.515  23.315  0.00  0.00    +0.079 A 
ATOM      5  C   UNL     1       0.508   0.023  23.374  0.00  0.00    +0.031 A 
ATOM      6  C   UNL     1      -0.048   0.399  23.853  0.00  0.00    +0.058 A 
BRANCH   4  27
ATOM     27  C   UNL     1       1.856   0.355  22.889  0.00  0.00    +0.042 C 
ATOM     28  C   UNL     1       1.905  -0.089  22.195  0.00  0.00    +0.006 C 
ATOM     29  C   UNL     1       2.695  -0.107  21.959  0.00  0.00    +0.000 C 
ATOM     30  C   UNL     1       3.134   0.326  22.507  0.00  0.00    +0.000 C 
ATOM     31  C   UNL     1       2.617   0.612  23.082  0.00  0.00    +0.006 C 
ENDBRANCH   4  27
ENDBRANCH   7   6
BRANCH  14  15
ATOM     15  C   UNL     1      -2.931  -0.733  24.638  0.00  0.00    +0.131 C 
BRANCH  15  16
ATOM     16  N   UNL     1      -3.362  -0.108  24.961  0.00  0.00    -0.201 NA
ATOM     17  C   UNL     1      -4.180  -0.075  24.858  0.00  0.00    +0.286 C 
ATOM     18  O   UNL     1      -4.567  -0.665  24.432  0.00  0.00    -0.269 OA
BRANCH  17  19
ATOM     19  C   UNL     1      -4.611   0.550  25.181  0.00  0.00    +0.291 C 
BRANCH  19  20
ATOM     20  O   UNL     1      -4.920   1.137  24.690  0.00  0.00    -0.466 OA
BRANCH  20  21
ATOM     21  C   UNL     1      -5.103   1.880  24.998  0.00  0.00    +0.139 A 
ATOM     22  C   UNL     1      -4.672   2.542  24.762  0.00  0.00    +0.037 A 
ATOM     23  C   UNL     1      -4.855   3.285  25.071  0.00  0.00    +0.003 A 
ATOM     24  C   UNL     1      -5.470   3.365  25.615  0.00  0.00    +0.000 A 
ATOM     25  C   UNL     1      -5.901   2.703  25.852  0.00  0.00    +0.003 A 
ATOM     26  C   UNL     1      -5.717   1.960  25.543  0.00  0.00    +0.037 A 
ENDBRANCH  20  21
ENDBRANCH  19  20
ENDBRANCH  17  19
ENDBRANCH  15  16
ENDBRANCH  14  15
TORSDOF 7
ENDMDL
MODEL 6
REMARK VINA RESULT:      -9.0      2.943      4.672
REMARK  Name = 
REMARK  7 active torsions:
REMARK  status: ('A' for Active; 'I' for Inactive)
REMARK    1  A    between atoms: C_4  and  C_27
REMARK    2  A    between atoms: C_6  and  C_7
REMARK    3  A    between atoms: C_14  and  C_15
REMARK    4  A    between atoms: C_15  and  N_16
REMARK    5  A    between atoms: C_17  and  C_19
REMARK    6  A    between atoms: C_19  and  O_20
REMARK    7  A    between atoms: O_20  and  C_21
REMARK                            x       y       z     vdW  Elec       q    Type
REMARK                         _______ _______ _______ _____ _____    ______ ____
ROOT
ATOM      7  C   UNL     1       0.686   0.101  23.338  0.00  0.00    +0.056 C 
ATOM      8  C   UNL     1       0.263  -0.552  23.318  0.00  0.00    +0.078 C 
ATOM      9  N   UNL     1       0.036   0.166  23.657  0.00  0.00    -0.272 NA
ATOM     10  C   UNL     1       0.827   0.839  23.516  0.00  0.00    +0.072 C 
ATOM     11  C   UNL     1       1.088   1.433  23.592  0.00  0.00    +0.018 C 
ATOM     12  C   UNL     1       0.456   0.802  23.673  0.00  0.00    +0.010 C 
ATOM     13  C   UNL     1      -0.279   1.042  24.088  0.00  0.00    +0.018 C 
ATOM     14  C   UNL     1      -0.726   0.423  24.089  0.00  0.00    +0.079 C 
ENDROOT
BRANCH   7   6
ATOM      1  C   UNL     1       1.042  -0.325  21.631  0.00  0.00    +0.153 C 
ATOM      2  N   UNL     1       1.598  -0.118  22.205  0.00  0.00    -0.253 N 
ATOM      3  N   UNL     1       2.414  -0.070  22.095  0.00  0.00    -0.174 NA
ATOM      4  C   UNL     1       2.755   0.155  22.811  0.00  0.00    +0.079 A 
ATOM      5  C   UNL     1       2.150   0.246  23.364  0.00  0.00    +0.031 A 
ATOM      6  C   UNL     1       1.435   0.078  22.989  0.00  0.00    +0.058 A 
BRANCH   4  27
ATOM     27  C   UNL     1       3.560   0.268  22.950  0.00  0.00    +0.042 C 
ATOM     28  C   UNL     1       4.007   0.920  22.713  0.00  0.00    +0.006 C 
ATOM     29  C   UNL     1       4.783   0.804  22.967  0.00  0.00    +0.000 C 
ATOM     30  C   UNL     1       4.816   0.080  23.361  0.00  0.00    +0.000 C 
ATOM     31  C   UNL     1       4.061  -0.252  23.351  0.00  0.00    +0.006 C 
ENDBRANCH   4  27
ENDBRANCH   7   6
BRANCH  14  15
ATOM     15  C   UNL     1      -1.463   0.148  24.335  0.00  0.00    +0.131 C 
BRANCH  15  16
ATOM     16  N   UNL     1      -2.123   0.642  24.293  0.00  0.00    -0.201 NA
ATOM     17  C   UNL     1      -2.851   0.381  24.579  0.00  0.00    +0.286 C 
ATOM     18  O   UNL     1      -2.920  -0.372  24.909  0.00  0.00    -0.269 OA
BRANCH  17  19
ATOM     19  C   UNL     1      -3.511   0.874  24.537  0.00  0.00    +0.291 C 
BRANCH  19  20
ATOM     20  O   UNL     1      -3.990   0.982  25.200  0.00  0.00    -0.466 OA
BRANCH  20  21
ATOM     21  C   UNL     1      -4.590   1.548  25.189  0.00  0.00    +0.139 A 
ATOM     22  C   UNL     1      -5.374   1.316  25.081  0.00  0.00    +0.037 A 
ATOM     23  C   UNL     1      -5.974   1.881  25.070  0.00  0.00    +0.003 A 
ATOM     24  C   UNL     1      -5.790   2.680  25.166  0.00  0.00    +0.000 A 
ATOM     25  C   UNL     1      -5.006   2.912  25.273  0.00  0.00    +0.003 A 
ATOM     26  C   UNL     1      -4.406   2.346  25.285  0.00  0.00    +0.037 A 
ENDBRANCH  20  21
ENDBRANCH  19  20
ENDBRANCH  17  19
ENDBRANCH  15  16
ENDBRANCH  14  15
TORSDOF 7
ENDMDL
