MODEL 1
REMARK VINA RESULT:     -11.2      0.000      0.000
REMARK  Name = 
REMARK  2 active torsions:
REMARK  status: ('A' for Active; 'I' for Inactive)
REMARK    1  A    between atoms: C_2  and  N_4
REMARK    2  A    between atoms: C_10  and  C_12
REMARK                            x       y       z     vdW  Elec       q    Type
REMARK                         _______ _______ _______ _____ _____    ______ ____
ROOT
ATOM      4  N   UNL     1      -2.124   3.735  24.689  0.00  0.00    -0.190 NA
ATOM      5  C   UNL     1      -2.158   2.975  25.009  0.00  0.00    +0.323 C 
ATOM      6  O   UNL     1      -1.826   2.825  25.750  0.00  0.00    -0.251 OA
ATOM      7  N   UNL     1      -2.522   2.366  24.588  0.00  0.00    -0.262 N 
ATOM      8  C   UNL     1      -2.875   2.433  23.846  0.00  0.00    +0.096 C 
ATOM      9  C   UNL     1      -3.168   1.691  23.635  0.00  0.00    +0.031 C 
ATOM     10  C   UNL     1      -2.996   1.166  24.248  0.00  0.00    +0.080 C 
ATOM     11  C   UNL     1      -2.597   1.583  24.837  0.00  0.00    +0.103 C 
ENDROOT
BRANCH  10  12
ATOM     12  C   UNL     1      -3.190   0.364  24.268  0.00  0.00    +0.140 A 
ATOM     13  N   UNL     1      -2.764  -0.229  24.652  0.00  0.00    -0.229 NA
ATOM     14  C   UNL     1      -3.154  -0.944  24.529  0.00  0.00    +0.100 A 
ATOM     15  C   UNL     1      -3.822  -0.794  24.068  0.00  0.00    +0.100 A 
ATOM     16  N   UNL     1      -3.844   0.014  23.907  0.00  0.00    -0.229 NA
ATOM     17  C   UNL     1      -4.323  -1.414  23.855  0.00  0.00    +0.020 A 
ATOM     18  C   UNL     1      -4.157  -2.183  24.102  0.00  0.00    -0.003 A 
ATOM     19  C   UNL     1      -3.490  -2.333  24.563  0.00  0.00    -0.020 A 
ATOM     20  C   UNL     1      -3.323  -3.102  24.811  0.00  0.00    +0.031 C 
ATOM     21  C   UNL     1      -2.988  -1.714  24.776  0.00  0.00    +0.016 A 
ENDBRANCH  10  12
BRANCH   4   2
ATOM      1  C   UNL     1      -0.958   4.503  24.993  0.00  0.00    +0.023 C 
ATOM      2  C   UNL     1      -1.760   4.344  25.110  0.00  0.00    +0.097 C 
ATOM      3  C   UNL     1      -2.196   4.793  25.646  0.00  0.00    +0.023 C 
ENDBRANCH   4   2
TORSDOF 2
ENDMDL
MODEL 2
REMARK VINA RESULT:     -11.0      1.155      5.060
REMARK  Name = 
REMARK  2 active torsions:
REMARK  status: ('A' for Active; 'I' for Inactive)
REMARK    1  A    between atoms: C_2  and  N_4
REMARK    2  A    between atoms: C_10  and  C_12
REMARK                            x       y       z     vdW  Elec       q    Type
REMARK                         _______ _______ _______ _____ _____    ______ ____
ROOT
ATOM      4  N   UNL     1      -4.015  -1.216  24.489  0.00  0.00    -0.190 NA
ATOM      5  C   UNL     1      -3.380  -0.697  24.578  0.00  0.00    +0.323 C 
ATOM      6  O   UNL     1      -2.607  -0.987  24.572  0.00  0.00    -0.251 OA
ATOM      7  N   UNL     1      -3.518   0.111  24.673  0.00  0.00    -0.262 N 
ATOM      8  C   UNL     1      -4.256   0.478  24.690  0.00  0.00    +0.096 C 
ATOM      9  C   UNL     1      -4.136   1.288  24.795  0.00  0.00    +0.031 C 
ATOM     10  C   UNL     1      -3.322   1.420  24.843  0.00  0.00    +0.080 C 
ATOM     11  C   UNL     1      -2.941   0.693  24.767  0.00  0.00    +0.103 C 
ENDROOT
BRANCH  10  12
ATOM     12  C   UNL     1      -2.955   2.152  24.948  0.00  0.00    +0.140 A 
ATOM     13  N   UNL     1      -2.231   2.381  24.628  0.00  0.00    -0.229 NA
ATOM     14  C   UNL     1      -2.077   3.153  24.874  0.00  0.00    +0.100 A 
ATOM     15  C   UNL     1      -2.707   3.401  25.345  0.00  0.00    +0.100 A 
ATOM     16  N   UNL     1      -3.250   2.783  25.391  0.00  0.00    -0.229 NA
ATOM     17  C   UNL     1      -2.703   4.159  25.672  0.00  0.00    +0.020 A 
ATOM     18  C   UNL     1      -2.071   4.668  25.527  0.00  0.00    -0.003 A 
ATOM     19  C   UNL     1      -1.441   4.420  25.056  0.00  0.00    -0.020 A 
ATOM     20  C   UNL     1      -0.809   4.929  24.910  0.00  0.00    +0.031 C 
ATOM     21  C   UNL     1      -1.444   3.663  24.729  0.00  0.00    +0.016 A 
ENDBRANCH  10  12
BRANCH   4   2
ATOM      1  C   UNL     1      -4.092  -2.399  23.690  0.00  0.00    +0.023 C 
ATOM      2  C   UNL     1      -3.878  -2.024  24.394  0.00  0.00    +0.097 C 
ATOM      3  C   UNL     1      -3.526  -2.457  25.001  0.00  0.00    +0.023 C 
ENDBRANCH   4   2
TORSDOF 2
ENDMDL
MODEL 3
REMARK VINA RESULT:      -9.5      2.095      4.979
REMARK  Name = 
REMARK  2 active torsions:
REMARK  status: ('A' for Active; 'I' for Inactive)
REMARK    1  A    between atoms: C_2  and  N_4
REMARK    2  A    between atoms: C_10  and  C_12
REMARK                            x       y       z     vdW  Elec       q    Type
REMARK                         _______ _______ _______ _____ _____    ______ ____
ROOT
ATOM      4  N   UNL     1      -3.069  -1.867  24.255  0.00  0.00    -0.190 NA
ATOM      5  C   UNL     1      -3.357  -1.302  24.783  0.00  0.00    +0.323 C 
ATOM      6  O   UNL     1      -3.498  -1.507  25.570  0.00  0.00    -0.251 OA
ATOM      7  N   UNL     1      -3.504  -0.533  24.524  0.00  0.00    -0.262 N 
ATOM      8  C   UNL     1      -3.390  -0.248  23.758  0.00  0.00    +0.096 C 
ATOM      9  C   UNL     1      -3.606   0.548  23.747  0.00  0.00    +0.031 C 
ATOM     10  C   UNL     1      -3.853   0.756  24.507  0.00  0.00    +0.080 C 
ATOM     11  C   UNL     1      -3.790   0.088  24.987  0.00  0.00    +0.103 C 
ENDROOT
BRANCH  10  12
ATOM     12  C   UNL     1      -4.117   1.500  24.744  0.00  0.00    +0.140 A 
ATOM     13  N   UNL     1      -4.900   1.712  24.894  0.00  0.00    -0.229 NA
ATOM     14  C   UNL     1      -4.911   2.506  25.115  0.00  0.00    +0.100 A 
ATOM     15  C   UNL     1      -4.135   2.786  25.103  0.00  0.00    +0.100 A 
ATOM     16  N   UNL     1      -3.644   2.164  24.873  0.00  0.00    -0.229 NA
ATOM     17  C   UNL     1      -3.976   3.571  25.302  0.00  0.00    +0.020 A 
ATOM     18  C   UNL     1      -4.593   4.076  25.514  0.00  0.00    -0.003 A 
ATOM     19  C   UNL     1      -5.369   3.796  25.526  0.00  0.00    -0.020 A 
ATOM     20  C   UNL     1      -5.986   4.301  25.738  0.00  0.00    +0.031 C 
ATOM     21  C   UNL     1      -5.529   3.012  25.327  0.00  0.00    +0.016 A 
ENDBRANCH  10  12
BRANCH   4   2
ATOM      1  C   UNL     1      -3.542  -3.181  24.559  0.00  0.00    +0.023 C 
ATOM      2  C   UNL     1      -2.923  -2.636  24.513  0.00  0.00    +0.097 C 
ATOM      3  C   UNL     1      -2.159  -2.862  24.725  0.00  0.00    +0.023 C 
ENDBRANCH   4   2
TORSDOF 2
ENDMDL
