MODEL 1
REMARK VINA RESULT:     -11.2      0.000      0.000
REMARK  Name = 
REMARK  9 active torsions:
REMARK  status: ('A' for Active; 'I' for Inactive)
REMARK    1  A    between atoms: N_2  and  C_3
REMARK    2  A    between atoms: N_2  and  C_11
REMARK    3  A    between atoms: C_3  and  C_4
REMARK    4  A    between atoms: C_4  and  C_5
REMARK    5  A    between atoms: C_12  and  C_13
REMARK    6  A    between atoms: C_13  and  N_14
REMARK    7  A    between atoms: N_14  and  S_15
REMARK    8  A    between atoms: S_15  and  C_18
REMARK    9  A    between atoms: C_26  and  C_27
REMARK                            x       y       z     vdW  Elec       q    Type
REMARK                         _______ _______ _______ _____ _____    ______ ____
ROOT
ATOM     11  C   UNL     1      -1.604   2.390  25.011  0.00  0.00    +0.120 C 
ATOM     12  C   UNL     1      -1.342   1.627  25.182  0.00  0.00    +0.152 C 
ATOM     25  O   UNL     1      -0.653   1.689  25.631  0.00  0.00    -0.350 OA
ATOM     26  C   UNL     1      -0.490   2.490  25.738  0.00  0.00    +0.180 C 
ATOM     29  C   UNL     1      -1.077   2.924  25.355  0.00  0.00    +0.198 C 
ATOM     30  O   UNL     1      -1.129   3.746  25.322  0.00  0.00    -0.219 OA
ENDROOT
BRANCH  11   2
ATOM      1  C   UNL     1      -2.211   2.736  23.764  0.00  0.00    +0.090 C 
ATOM      2  N   UNL     1      -2.275   2.585  24.573  0.00  0.00    -0.268 NA
BRANCH   2   3
ATOM      3  C   UNL     1      -3.011   2.630  24.943  0.00  0.00    +0.077 C 
BRANCH   3   4
ATOM      4  C   UNL     1      -3.689   2.777  24.497  0.00  0.00    +0.044 C 
BRANCH   4   5
ATOM      5  C   UNL     1      -4.435   2.677  24.835  0.00  0.00    -0.021 A 
ATOM      6  C   UNL     1      -4.722   3.234  25.374  0.00  0.00    -0.004 A 
ATOM      7  C   UNL     1      -5.468   3.135  25.711  0.00  0.00    -0.000 A 
ATOM      8  C   UNL     1      -5.927   2.479  25.512  0.00  0.00    -0.000 A 
ATOM      9  C   UNL     1      -5.641   1.923  24.975  0.00  0.00    -0.000 A 
ATOM     10  C   UNL     1      -4.895   2.022  24.636  0.00  0.00    -0.004 A 
ENDBRANCH   4   5
ENDBRANCH   3   4
ENDBRANCH   2   3
ENDBRANCH  11   2
BRANCH  26  27
ATOM     27  C   UNL     1       0.150   2.803  26.156  0.00  0.00    +0.214 C 
ATOM     28  O   UNL     1       0.517   2.356  26.743  0.00  0.00    -0.218 OA
ENDBRANCH  26  27
BRANCH  12  13
ATOM     13  C   UNL     1      -1.705   0.925  24.944  0.00  0.00    +0.146 C 
BRANCH  13  14
ATOM     14  N   UNL     1      -1.464   0.205  25.268  0.00  0.00    -0.075 NA
BRANCH  14  15
ATOM     15  S   UNL     1      -1.892  -0.482  25.112  0.00  0.00    +0.077 S 
ATOM     16  O   UNL     1      -1.558  -0.518  24.358  0.00  0.00    -0.152 OA
ATOM     17  O   UNL     1      -2.225  -0.447  25.866  0.00  0.00    -0.152 OA
BRANCH  15  18
ATOM     18  C   UNL     1      -2.320  -1.170  24.955  0.00  0.00    +0.124 A 
ATOM     19  C   UNL     1      -3.135  -1.186  25.080  0.00  0.00    +0.020 A 
ATOM     20  C   UNL     1      -3.563  -1.874  24.923  0.00  0.00    -0.003 A 
ATOM     21  C   UNL     1      -3.176  -2.545  24.641  0.00  0.00    -0.022 A 
ATOM     22  C   UNL     1      -3.604  -3.233  24.484  0.00  0.00    +0.031 C 
ATOM     23  C   UNL     1      -2.360  -2.529  24.516  0.00  0.00    -0.003 A 
ATOM     24  C   UNL     1      -1.932  -1.841  24.672  0.00  0.00    +0.020 A 
ENDBRANCH  15  18
ENDBRANCH  14  15
ENDBRANCH  13  14
ENDBRANCH  12  13
TORSDOF 9
ENDMDL
MODEL 2
REMARK VINA RESULT:     -11.0      1.439      4.278
REMARK  Name = 
REMARK  9 active torsions:
REMARK  status: ('A' for Active; 'I' for Inactive)
REMARK    1  A    between atoms: N_2  and  C_3
REMARK    2  A    between atoms: N_2  and  C_11
REMARK    3  A    between atoms: C_3  and  C_4
REMARK    4  A    between atoms: C_4  and  C_5
REMARK    5  A    between atoms: C_12  and  C_13
REMARK    6  A    between atoms: C_13  and  N_14
REMARK    7  A    between atoms: N_14  and  S_15
REMARK    8  A    between atoms: S_15  and  C_18
REMARK    9  A    between atoms: C_26  and  C_27
REMARK                            x       y       z     vdW  Elec       q    Type
REMARK                         _______ _______ _______ _____ _____    ______ ____
ROOT
ATOM     11  C   UNL     1      -0.983   0.111  24.662  0.00  0.00    +0.120 C 
ATOM     12  C   UNL     1      -1.135   0.916  24.560  0.00  0.00    +0.152 C 
ATOM     25  O   UNL     1      -0.519   1.238  24.118  0.00  0.00    -0.350 OA
ATOM     26  C   UNL     1       0.015   0.633  23.946  0.00  0.00    +0.180 C 
ATOM     29  C   UNL     1      -0.272  -0.064  24.281  0.00  0.00    +0.198 C 
ATOM     30  O   UNL     1       0.088  -0.804  24.244  0.00  0.00    -0.219 OA
ENDROOT
BRANCH  11   2
ATOM      1  C   UNL     1      -1.354  -0.534  25.882  0.00  0.00    +0.090 C 
ATOM      2  N   UNL     1      -1.459  -0.424  25.071  0.00  0.00    -0.268 NA
BRANCH   2   3
ATOM      3  C   UNL     1      -2.040  -0.851  24.670  0.00  0.00    +0.077 C 
BRANCH   3   4
ATOM      4  C   UNL     1      -2.577  -1.312  25.091  0.00  0.00    +0.044 C 
BRANCH   4   5
ATOM      5  C   UNL     1      -3.162  -1.735  24.690  0.00  0.00    -0.021 A 
ATOM      6  C   UNL     1      -3.115  -2.557  24.637  0.00  0.00    -0.004 A 
ATOM      7  C   UNL     1      -3.700  -2.979  24.236  0.00  0.00    -0.000 A 
ATOM      8  C   UNL     1      -4.332  -2.579  23.888  0.00  0.00    -0.000 A 
ATOM      9  C   UNL     1      -4.379  -1.757  23.940  0.00  0.00    -0.000 A 
ATOM     10  C   UNL     1      -3.794  -1.335  24.341  0.00  0.00    -0.004 A 
ENDBRANCH   4   5
ENDBRANCH   3   4
ENDBRANCH   2   3
ENDBRANCH  11   2
BRANCH  26  27
ATOM     27  C   UNL     1       0.714   0.711  23.513  0.00  0.00    +0.214 C 
ATOM     28  O   UNL     1       1.188   1.378  23.612  0.00  0.00    -0.218 OA
ENDBRANCH  26  27
BRANCH  12  13
ATOM     13  C   UNL     1      -1.790   1.326  24.850  0.00  0.00    +0.146 C 
BRANCH  13  14
ATOM     14  N   UNL     1      -1.983   2.067  24.543  0.00  0.00    -0.075 NA
BRANCH  14  15
ATOM     15  S   UNL     1      -2.696   2.426  24.747  0.00  0.00    +0.077 S 
ATOM     16  O   UNL     1      -3.004   2.235  24.005  0.00  0.00    -0.152 OA
ATOM     17  O   UNL     1      -2.389   2.616  25.489  0.00  0.00    -0.152 OA
BRANCH  15  18
ATOM     18  C   UNL     1      -3.411   2.785  24.951  0.00  0.00    +0.124 A 
ATOM     19  C   UNL     1      -4.124   2.402  24.792  0.00  0.00    +0.020 A 
ATOM     20  C   UNL     1      -4.839   2.761  24.996  0.00  0.00    -0.003 A 
ATOM     21  C   UNL     1      -4.839   3.502  25.358  0.00  0.00    -0.022 A 
ATOM     22  C   UNL     1      -5.554   3.862  25.562  0.00  0.00    +0.031 C 
ATOM     23  C   UNL     1      -4.125   3.884  25.517  0.00  0.00    -0.003 A 
ATOM     24  C   UNL     1      -3.411   3.526  25.313  0.00  0.00    +0.020 A 
ENDBRANCH  15  18
ENDBRANCH  14  15
ENDBRANCH  13  14
ENDBRANCH  12  13
TORSDOF 9
ENDMDL
MODEL 3
REMARK VINA RESULT:     -10.9      1.795      3.492
REMARK  Name = 
REMARK  9 active torsions:
REMARK  status: ('A' for Active; 'I' for Inactive)
REMARK    1  A    between atoms: N_2  and  C_3
REMARK    2  A    between atoms: N_2  and  C_11
REMARK    3  A    between atoms: C_3  and  C_4
REMARK    4  A    between atoms: C_4  and  C_5
REMARK    5  A    between atoms: C_12  and  C_13
REMARK    6  A    between atoms: C_13  and  N_14
REMARK    7  A    between atoms: N_14  and  S_15
REMARK    8  A    between atoms: S_15  and  C_18
REMARK    9  A    between atoms: C_26  and  C_27
REMARK                            x       y       z     vdW  Elec       q    Type
REMARK                         _______ _______ _______ _____ _____    ______ ____
ROOT
ATOM     11  C   UNL     1      -4.020   2.579  24.755  0.00  0.00    +0.120 C 
ATOM     12  C   UNL     1      -4.435   1.879  24.888  0.00  0.00    +0.152 C 
ATOM     25  O   UNL     1      -5.154   2.073  25.243  0.00  0.00    -0.350 OA
ATOM     26  C   UNL     1      -5.183   2.892  25.330  0.00  0.00    +0.180 C 
ATOM     29  C   UNL     1      -4.483   3.206  25.028  0.00  0.00    +0.198 C 
ATOM     30  O   UNL     1      -4.280   4.005  25.004  0.00  0.00    -0.219 OA
ENDROOT
BRANCH  11   2
ATOM      1  C   UNL     1      -3.203   2.724  23.591  0.00  0.00    +0.090 C 
ATOM      2  N   UNL     1      -3.274   2.643  24.409  0.00  0.00    -0.268 NA
BRANCH   2   3
ATOM      3  C   UNL     1      -2.597   2.625  24.881  0.00  0.00    +0.077 C 
BRANCH   3   4
ATOM      4  C   UNL     1      -1.851   2.664  24.534  0.00  0.00    +0.044 C 
BRANCH   4   5
ATOM      5  C   UNL     1      -1.174   2.582  25.000  0.00  0.00    -0.021 A 
ATOM      6  C   UNL     1      -0.785   1.854  25.037  0.00  0.00    -0.004 A 
ATOM      7  C   UNL     1      -0.109   1.773  25.502  0.00  0.00    -0.000 A 
ATOM      8  C   UNL     1       0.179   2.417  25.930  0.00  0.00    -0.000 A 
ATOM      9  C   UNL     1      -0.210   3.143  25.893  0.00  0.00    -0.000 A 
ATOM     10  C   UNL     1      -0.887   3.226  25.428  0.00  0.00    -0.004 A 
ENDBRANCH   4   5
ENDBRANCH   3   4
ENDBRANCH   2   3
ENDBRANCH  11   2
BRANCH  26  27
ATOM     27  C   UNL     1      -5.805   3.323  25.660  0.00  0.00    +0.214 C 
ATOM     28  O   UNL     1      -6.201   3.032  26.322  0.00  0.00    -0.218 OA
ENDBRANCH  26  27
BRANCH  12  13
ATOM     13  C   UNL     1      -4.176   1.119  24.699  0.00  0.00    +0.146 C 
BRANCH  13  14
ATOM     14  N   UNL     1      -4.624   0.463  24.922  0.00  0.00    -0.075 NA
BRANCH  14  15
ATOM     15  S   UNL     1      -4.319  -0.297  24.825  0.00  0.00    +0.077 S 
ATOM     16  O   UNL     1      -4.151  -0.333  25.633  0.00  0.00    -0.152 OA
ATOM     17  O   UNL     1      -4.488  -0.262  24.018  0.00  0.00    -0.152 OA
BRANCH  15  18
ATOM     18  C   UNL     1      -4.015  -1.058  24.728  0.00  0.00    +0.124 A 
ATOM     19  C   UNL     1      -3.472  -1.357  25.273  0.00  0.00    +0.020 A 
ATOM     20  C   UNL     1      -3.167  -2.118  25.176  0.00  0.00    -0.003 A 
ATOM     21  C   UNL     1      -3.405  -2.579  24.535  0.00  0.00    -0.022 A 
ATOM     22  C   UNL     1      -3.100  -3.340  24.438  0.00  0.00    +0.031 C 
ATOM     23  C   UNL     1      -3.948  -2.279  23.990  0.00  0.00    -0.003 A 
ATOM     24  C   UNL     1      -4.253  -1.519  24.087  0.00  0.00    +0.020 A 
ENDBRANCH  15  18
ENDBRANCH  14  15
ENDBRANCH  13  14
ENDBRANCH  12  13
TORSDOF 9
ENDMDL
MODEL 4
REMARK VINA RESULT:     -10.3      2.000      3.494
REMARK  Name = 
REMARK  9 active torsions:
REMARK  status: ('A' for Active; 'I' for Inactive)
REMARK    1  A    between atoms: N_2  and  C_3
REMARK    2  A    between atoms: N_2  and  C_11
REMARK    3  A    between atoms: C_3  and  C_4
REMARK    4  A    between atoms: C_4  and  C_5
REMARK    5  A    between atoms: C_12  and  C_13
REMARK    6  A    between atoms: C_13  and  N_14
REMARK    7  A    between atoms: N_14  and  S_15
REMARK    8  A    between atoms: S_15  and  C_18
REMARK    9  A    between atoms: C_26  and  C_27
REMARK                            x       y       z     vdW  Elec       q    Type
REMARK                         _______ _______ _______ _____ _____    ______ ____
ROOT
ATOM     11  C   UNL     1      -0.311   1.469  24.598  0.00  0.00    +0.120 C 
ATOM     12  C   UNL     1      -0.945   0.999  24.359  0.00  0.00    +0.152 C 
ATOM     25  O   UNL     1      -0.674   0.481  23.778  0.00  0.00    -0.350 OA
ATOM     26  C   UNL     1       0.128   0.630  23.657  0.00  0.00    +0.180 C 
ATOM     29  C   UNL     1       0.353   1.240  24.164  0.00  0.00    +0.198 C 
ATOM     30  O   UNL     1       1.108   1.565  24.226  0.00  0.00    -0.219 OA
ENDROOT
BRANCH  11   2
ATOM      1  C   UNL     1      -0.132   1.891  25.952  0.00  0.00    +0.090 C 
ATOM      2  N   UNL     1      -0.335   2.062  25.171  0.00  0.00    -0.268 NA
BRANCH   2   3
ATOM      3  C   UNL     1      -0.562   2.827  24.963  0.00  0.00    +0.077 C 
BRANCH   3   4
ATOM      4  C   UNL     1      -0.654   3.403  25.545  0.00  0.00    +0.044 C 
BRANCH   4   5
ATOM      5  C   UNL     1      -1.032   4.115  25.366  0.00  0.00    -0.021 A 
ATOM      6  C   UNL     1      -0.636   4.694  24.930  0.00  0.00    -0.004 A 
ATOM      7  C   UNL     1      -1.013   5.405  24.751  0.00  0.00    -0.000 A 
ATOM      8  C   UNL     1      -1.786   5.538  25.008  0.00  0.00    -0.000 A 
ATOM      9  C   UNL     1      -2.181   4.961  25.444  0.00  0.00    -0.000 A 
ATOM     10  C   UNL     1      -1.804   4.249  25.623  0.00  0.00    -0.004 A 
ENDBRANCH   4   5
ENDBRANCH   3   4
ENDBRANCH   2   3
ENDBRANCH  11   2
BRANCH  26  27
ATOM     27  C   UNL     1       0.619   0.237  23.123  0.00  0.00    +0.214 C 
ATOM     28  O   UNL     1       0.598  -0.586  23.071  0.00  0.00    -0.218 OA
ENDBRANCH  26  27
BRANCH  12  13
ATOM     13  C   UNL     1      -1.716   1.041  24.650  0.00  0.00    +0.146 C 
BRANCH  13  14
ATOM     14  N   UNL     1      -2.342   0.730  24.211  0.00  0.00    -0.075 NA
BRANCH  14  15
ATOM     15  S   UNL     1      -3.118   0.943  24.389  0.00  0.00    +0.077 S 
ATOM     16  O   UNL     1      -3.170   1.351  23.673  0.00  0.00    -0.152 OA
ATOM     17  O   UNL     1      -3.066   0.536  25.105  0.00  0.00    -0.152 OA
BRANCH  15  18
ATOM     18  C   UNL     1      -3.895   1.157  24.567  0.00  0.00    +0.124 A 
ATOM     19  C   UNL     1      -4.406   0.606  24.908  0.00  0.00    +0.020 A 
ATOM     20  C   UNL     1      -5.183   0.820  25.086  0.00  0.00    -0.003 A 
ATOM     21  C   UNL     1      -5.448   1.584  24.923  0.00  0.00    -0.022 A 
ATOM     22  C   UNL     1      -6.225   1.797  25.101  0.00  0.00    +0.031 C 
ATOM     23  C   UNL     1      -4.937   2.134  24.582  0.00  0.00    -0.003 A 
ATOM     24  C   UNL     1      -4.160   1.921  24.404  0.00  0.00    +0.020 A 
ENDBRANCH  15  18
ENDBRANCH  14  15
ENDBRANCH  13  14
ENDBRANCH  12  13
TORSDOF 9
ENDMDL
MODEL 5
REMARK VINA RESULT:     -10.2      1.481      4.135
REMARK  Name = 
REMARK  9 active torsions:
REMARK  status: ('A' for Active; 'I' for Inactive)
REMARK    1  A    between atoms: N_2  and  C_3
REMARK    2  A    between atoms: N_2  and  C_11
REMARK    3  A    between atoms: C_3  and  C_4
REMARK    4  A    between atoms: C_4  and  C_5
REMARK    5  A    between atoms: C_12  and  C_13
REMARK    6  A    between atoms: C_13  and  N_14
REMARK    7  A    between atoms: N_14  and  S_15
REMARK    8  A    between atoms: S_15  and  C_18
REMARK    9  A    between atoms: C_26  and  C_27
REMARK                            x       y       z     vdW  Elec       q    Type
REMARK                         _______ _______ _______ _____ _____    ______ ____
ROOT
ATOM     11  C   UNL     1      -2.491   0.003  24.688  0.00  0.00    +0.120 C 
ATOM     12  C   UNL     1      -1.834   0.474  24.854  0.00  0.00    +0.152 C 
ATOM     25  O   UNL     1      -1.251  -0.009  25.181  0.00  0.00    -0.350 OA
ATOM     26  C   UNL     1      -1.547  -0.778  25.217  0.00  0.00    +0.180 C 
ATOM     29  C   UNL     1      -2.313  -0.771  24.912  0.00  0.00    +0.198 C 
ATOM     30  O   UNL     1      -2.814  -1.422  24.844  0.00  0.00    -0.219 OA
ENDROOT
BRANCH  11   2
ATOM      1  C   UNL     1      -3.344   0.151  23.551  0.00  0.00    +0.090 C 
ATOM      2  N   UNL     1      -3.201   0.261  24.356  0.00  0.00    -0.268 NA
BRANCH   2   3
ATOM      3  C   UNL     1      -3.768   0.628  24.828  0.00  0.00    +0.077 C 
BRANCH   3   4
ATOM      4  C   UNL     1      -4.472   0.897  24.494  0.00  0.00    +0.044 C 
BRANCH   4   5
ATOM      5  C   UNL     1      -4.944   1.436  24.903  0.00  0.00    -0.021 A 
ATOM      6  C   UNL     1      -5.400   1.182  25.544  0.00  0.00    -0.004 A 
ATOM      7  C   UNL     1      -5.872   1.721  25.953  0.00  0.00    -0.000 A 
ATOM      8  C   UNL     1      -5.889   2.513  25.723  0.00  0.00    -0.000 A 
ATOM      9  C   UNL     1      -5.434   2.766  25.083  0.00  0.00    -0.000 A 
ATOM     10  C   UNL     1      -4.961   2.228  24.673  0.00  0.00    -0.004 A 
ENDBRANCH   4   5
ENDBRANCH   3   4
ENDBRANCH   2   3
ENDBRANCH  11   2
BRANCH  26  27
ATOM     27  C   UNL     1      -1.147  -1.439  25.507  0.00  0.00    +0.214 C 
ATOM     28  O   UNL     1      -0.332  -1.507  25.401  0.00  0.00    -0.218 OA
ENDBRANCH  26  27
BRANCH  12  13
ATOM     13  C   UNL     1      -1.772   1.285  24.717  0.00  0.00    +0.146 C 
BRANCH  13  14
ATOM     14  N   UNL     1      -1.179   1.722  25.089  0.00  0.00    -0.075 NA
BRANCH  14  15
ATOM     15  S   UNL     1      -1.200   2.546  25.071  0.00  0.00    +0.077 S 
ATOM     16  O   UNL     1      -1.367   2.559  25.879  0.00  0.00    -0.152 OA
ATOM     17  O   UNL     1      -1.033   2.533  24.262  0.00  0.00    -0.152 OA
BRANCH  15  18
ATOM     18  C   UNL     1      -1.222   3.371  25.053  0.00  0.00    +0.124 A 
ATOM     19  C   UNL     1      -0.610   3.792  24.695  0.00  0.00    +0.020 A 
ATOM     20  C   UNL     1      -0.632   4.617  24.677  0.00  0.00    -0.003 A 
ATOM     21  C   UNL     1      -1.265   5.020  25.018  0.00  0.00    -0.022 A 
ATOM     22  C   UNL     1      -1.287   5.845  25.000  0.00  0.00    +0.031 C 
ATOM     23  C   UNL     1      -1.877   4.598  25.376  0.00  0.00    -0.003 A 
ATOM     24  C   UNL     1      -1.856   3.774  25.394  0.00  0.00    +0.020 A 
ENDBRANCH  15  18
ENDBRANCH  14  15
ENDBRANCH  13  14
ENDBRANCH  12  13
TORSDOF 9
ENDMDL
MODEL 6
REMARK VINA RESULT:      -9.8      1.940      4.956
REMARK  Name = 
REMARK  9 active torsions:
REMARK  status: ('A' for Active; 'I' for Inactive)
REMARK    1  A    between atoms: N_2  and  C_3
REMARK    2  A    between atoms: N_2  and  C_11
REMARK    3  A    between atoms: C_3  and  C_4
REMARK    4  A    between atoms: C_4  and  C_5
REMARK    5  A    between atoms: C_12  and  C_13
REMARK    6  A    between atoms: C_13  and  N_14
REMARK    7  A    between atoms: N_14  and  S_15
REMARK    8  A    between atoms: S_15  and  C_18
REMARK    9  A    between atoms: C_26  and  C_27
REMARK                            x       y       z     vdW  Elec       q    Type
REMARK                         _______ _______ _______ _____ _____    ______ ____
ROOT
ATOM     11  C   UNL     1      -2.730  -1.164  25.045  0.00  0.00    +0.120 C 
ATOM     12  C   UNL     1      -3.472  -0.839  24.888  0.00  0.00    +0.152 C 
ATOM     25  O   UNL     1      -3.916  -1.402  24.481  0.00  0.00    -0.350 OA
ATOM     26  C   UNL     1      -3.448  -2.076  24.386  0.00  0.00    +0.180 C 
ATOM     29  C   UNL     1      -2.716  -1.929  24.734  0.00  0.00    +0.198 C 
ATOM     30  O   UNL     1      -2.080  -2.453  24.767  0.00  0.00    -0.219 OA
ENDROOT
BRANCH  11   2
ATOM      1  C   UNL     1      -1.971  -0.958  26.238  0.00  0.00    +0.090 C 
ATOM      2  N   UNL     1      -2.111  -0.791  25.442  0.00  0.00    -0.268 NA
BRANCH   2   3
ATOM      3  C   UNL     1      -1.632  -0.250  25.045  0.00  0.00    +0.077 C 
BRANCH   3   4
ATOM      4  C   UNL     1      -1.012   0.122  25.442  0.00  0.00    +0.044 C 
BRANCH   4   5
ATOM      5  C   UNL     1      -0.659   0.794  25.118  0.00  0.00    -0.021 A 
ATOM      6  C   UNL     1      -0.680   1.510  25.530  0.00  0.00    -0.004 A 
ATOM      7  C   UNL     1      -0.327   2.181  25.206  0.00  0.00    -0.000 A 
ATOM      8  C   UNL     1       0.046   2.139  24.472  0.00  0.00    -0.000 A 
ATOM      9  C   UNL     1       0.066   1.424  24.061  0.00  0.00    -0.000 A 
ATOM     10  C   UNL     1      -0.286   0.752  24.383  0.00  0.00    -0.004 A 
ENDBRANCH   4   5
ENDBRANCH   3   4
ENDBRANCH   2   3
ENDBRANCH  11   2
BRANCH  26  27
ATOM     27  C   UNL     1      -3.675  -2.774  24.008  0.00  0.00    +0.214 C 
ATOM     28  O   UNL     1      -4.398  -2.813  23.614  0.00  0.00    -0.218 OA
ENDBRANCH  26  27
BRANCH  12  13
ATOM     13  C   UNL     1      -3.725  -0.083  25.101  0.00  0.00    +0.146 C 
BRANCH  13  14
ATOM     14  N   UNL     1      -4.403   0.237  24.757  0.00  0.00    -0.075 NA
BRANCH  14  15
ATOM     15  S   UNL     1      -4.619   1.016  24.920  0.00  0.00    +0.077 S 
ATOM     16  O   UNL     1      -4.941   0.776  25.641  0.00  0.00    -0.152 OA
ATOM     17  O   UNL     1      -4.298   1.256  24.198  0.00  0.00    -0.152 OA
BRANCH  15  18
ATOM     18  C   UNL     1      -4.836   1.796  25.082  0.00  0.00    +0.124 A 
ATOM     19  C   UNL     1      -5.607   1.968  25.322  0.00  0.00    +0.020 A 
ATOM     20  C   UNL     1      -5.824   2.747  25.484  0.00  0.00    -0.003 A 
ATOM     21  C   UNL     1      -5.270   3.354  25.408  0.00  0.00    -0.022 A 
ATOM     22  C   UNL     1      -5.487   4.133  25.571  0.00  0.00    +0.031 C 
ATOM     23  C   UNL     1      -4.499   3.181  25.168  0.00  0.00    -0.003 A 
ATOM     24  C   UNL     1      -4.283   2.402  25.006  0.00  0.00    +0.020 A 
ENDBRANCH  15  18
ENDBRANCH  14  15
ENDBRANCH  13  14
ENDBRANCH  12  13
TORSDOF 9
ENDMDL
