REMARK  Name = 
REMARK  3 active torsions:
REMARK  status: ('A' for Active; 'I' for Inactive)
REMARK    1  A    between atoms: O_2  and  C_3
REMARK    2  A    between atoms: C_3  and  C_5
REMARK    3  A    between atoms: N_10  and  C_11
REMARK                            x       y       z     vdW  Elec       q    Type
REMARK                         _______ _______ _______ _____ _____    ______ ____
ROOT
ATOM      5  C   UNL     1       2.070   1.110   0.000  0.00  0.00    +0.164 C 
ATOM      6  C   UNL     1       1.356   0.698   0.000  0.00  0.00    +0.074 C 
ATOM      7  C   UNL     1       0.641   1.110   0.000  0.00  0.00    +0.078 A 
ATOM      8  C   UNL     1       0.641   1.935   0.000  0.00  0.00    +0.090 A 
ATOM      9  C   UNL     1       1.356   2.348   0.000  0.00  0.00    +0.120 C 
ATOM     10  N   UNL     1       2.070   1.935   0.000  0.00  0.00    -0.261 NA
ATOM     17  N   UNL     1      -0.143   2.190   0.000  0.00  0.00    -0.226 NA
ATOM     18  C   UNL     1      -0.628   1.523   0.000  0.00  0.00    +0.198 A 
ATOM     19  N   UNL     1      -0.143   0.856   0.000  0.00  0.00    -0.227 NA
ENDROOT
BRANCH  10  11
ATOM     11  C   UNL     1       2.784   2.348   0.000  0.00  0.00    +0.063 C 
ATOM     12  C   UNL     1       2.784   3.173   0.000  0.00  0.00    +0.048 C 
ATOM     13  C   UNL     1       3.499   3.585   0.000  0.00  0.00    +0.144 C 
ATOM     14  O   UNL     1       4.213   3.173   0.000  0.00  0.00    -0.354 OA
ATOM     15  C   UNL     1       4.213   2.348   0.000  0.00  0.00    +0.144 C 
ATOM     16  C   UNL     1       3.499   1.935   0.000  0.00  0.00    +0.048 C 
ENDBRANCH  10  11
BRANCH   5   3
ATOM      3  C   UNL     1       2.784   0.698   0.000  0.00  0.00    +0.332 C 
ATOM      4  O   UNL     1       3.499   1.110   0.000  0.00  0.00    -0.249 OA
BRANCH   3   2
ATOM      1  C   UNL     1       3.499  -0.540   0.000  0.00  0.00    +0.256 C 
ATOM      2  O   UNL     1       2.784  -0.127   0.000  0.00  0.00    -0.443 OA
ENDBRANCH   3   2
ENDBRANCH   5   3
TORSDOF 3
