MODEL 1
REMARK VINA RESULT:     -10.7      0.000      0.000
REMARK  Name = 
REMARK  9 active torsions:
REMARK  status: ('A' for Active; 'I' for Inactive)
REMARK    1  A    between atoms: O_2  and  C_3
REMARK    2  A    between atoms: C_4  and  O_5
REMARK    3  A    between atoms: C_7  and  O_8
REMARK    4  A    between atoms: C_10  and  C_11
REMARK    5  A    between atoms: C_11  and  N_12
REMARK    6  A    between atoms: C_17  and  C_18
REMARK    7  A    between atoms: C_20  and  C_21
REMARK    8  A    between atoms: C_21  and  S_22
REMARK    9  A    between atoms: S_22  and  C_25
REMARK                            x       y       z     vdW  Elec       q    Type
REMARK                         _______ _______ _______ _____ _____    ______ ____
ROOT
ATOM     12  N   UNL     1      -1.169   2.043  24.980  0.00  0.00    -0.260 NA
ATOM     13  C   UNL     1      -0.947   2.763  25.317  0.00  0.00    +0.106 C 
ATOM     14  C   UNL     1      -0.279   2.630  25.785  0.00  0.00    +0.170 C 
ATOM     15  O   UNL     1       0.126   3.199  26.223  0.00  0.00    -0.222 OA
ATOM     16  C   UNL     1      -0.089   1.829  25.736  0.00  0.00    +0.060 C 
ATOM     17  C   UNL     1      -0.639   1.466  25.239  0.00  0.00    +0.140 C 
ENDROOT
BRANCH  17  18
ATOM     18  C   UNL     1      -0.655   0.666  25.036  0.00  0.00    +0.251 A 
ATOM     19  N   UNL     1      -1.073   0.075  25.430  0.00  0.00    -0.192 NA
ATOM     20  C   UNL     1      -0.933  -0.640  25.041  0.00  0.00    +0.205 A 
ATOM     32  N   UNL     1      -0.428  -0.489  24.406  0.00  0.00    -0.059 NA
ATOM     33  O   UNL     1      -0.256   0.318  24.403  0.00  0.00    -0.336 OA
BRANCH  20  21
ATOM     21  C   UNL     1      -1.243  -1.374  25.250  0.00  0.00    +0.224 C 
BRANCH  21  22
ATOM     22  S   UNL     1      -1.969  -1.619  24.942  0.00  0.00    +0.016 S 
ATOM     23  O   UNL     1      -2.353  -1.311  25.604  0.00  0.00    -0.168 OA
ATOM     24  O   UNL     1      -1.585  -1.927  24.280  0.00  0.00    -0.168 OA
BRANCH  22  25
ATOM     25  C   UNL     1      -2.695  -1.863  24.635  0.00  0.00    +0.106 A 
ATOM     26  C   UNL     1      -2.838  -2.665  24.505  0.00  0.00    +0.021 A 
ATOM     27  C   UNL     1      -3.564  -2.909  24.198  0.00  0.00    +0.031 A 
ATOM     28  C   UNL     1      -4.146  -2.352  24.022  0.00  0.00    +0.140 A 
ATOM     29  F   UNL     1      -4.872  -2.596  23.715  0.00  0.00    -0.204 F 
ATOM     30  C   UNL     1      -4.002  -1.550  24.152  0.00  0.00    +0.031 A 
ATOM     31  C   UNL     1      -3.276  -1.306  24.459  0.00  0.00    +0.021 A 
ENDBRANCH  22  25
ENDBRANCH  21  22
ENDBRANCH  20  21
ENDBRANCH  17  18
BRANCH  12  11
ATOM     11  C   UNL     1      -1.808   1.921  24.473  0.00  0.00    +0.103 C 
BRANCH  11  10
ATOM      3  C   UNL     1      -3.908   3.191  24.802  0.00  0.00    +0.175 A 
ATOM      4  C   UNL     1      -3.625   3.052  24.041  0.00  0.00    +0.206 A 
ATOM      7  C   UNL     1      -2.925   2.629  23.930  0.00  0.00    +0.173 A 
ATOM     10  C   UNL     1      -2.508   2.345  24.583  0.00  0.00    +0.031 A 
ATOM     34  C   UNL     1      -2.791   2.484  25.345  0.00  0.00    +0.003 A 
ATOM     35  C   UNL     1      -3.490   2.907  25.456  0.00  0.00    +0.040 A 
BRANCH   3   2
ATOM      1  C   UNL     1      -5.042   3.519  25.607  0.00  0.00    +0.253 C 
ATOM      2  O   UNL     1      -4.607   3.614  24.913  0.00  0.00    -0.468 OA
ENDBRANCH   3   2
BRANCH   4   5
ATOM      5  O   UNL     1      -4.042   3.336  23.388  0.00  0.00    -0.465 OA
ATOM      6  C   UNL     1      -3.973   4.127  23.166  0.00  0.00    +0.253 C 
ENDBRANCH   4   5
BRANCH   7   8
ATOM      8  O   UNL     1      -2.642   2.490  23.168  0.00  0.00    -0.469 OA
ATOM      9  C   UNL     1      -2.940   1.859  22.727  0.00  0.00    +0.253 C 
ENDBRANCH   7   8
ENDBRANCH  11  10
ENDBRANCH  12  11
TORSDOF 9
ENDMDL
MODEL 2
REMARK VINA RESULT:     -10.7      1.882      3.232
REMARK  Name = 
REMARK  9 active torsions:
REMARK  status: ('A' for Active; 'I' for Inactive)
REMARK    1  A    between atoms: O_2  and  C_3
REMARK    2  A    between atoms: C_4  and  O_5
REMARK    3  A    between atoms: C_7  and  O_8
REMARK    4  A    between atoms: C_10  and  C_11
REMARK    5  A    between atoms: C_11  and  N_12
REMARK    6  A    between atoms: C_17  and  C_18
REMARK    7  A    between atoms: C_20  and  C_21
REMARK    8  A    between atoms: C_21  and  S_22
REMARK    9  A    between atoms: S_22  and  C_25
REMARK                            x       y       z     vdW  Elec       q    Type
REMARK                         _______ _______ _______ _____ _____    ______ ____
ROOT
ATOM     12  N   UNL     1      -4.306   2.322  24.874  0.00  0.00    -0.260 NA
ATOM     13  C   UNL     1      -4.648   3.019  25.152  0.00  0.00    +0.106 C 
ATOM     14  C   UNL     1      -5.342   2.820  25.553  0.00  0.00    +0.170 C 
ATOM     15  O   UNL     1      -5.859   3.348  25.919  0.00  0.00    -0.222 OA
ATOM     16  C   UNL     1      -5.428   2.000  25.521  0.00  0.00    +0.060 C 
ATOM     17  C   UNL     1      -4.787   1.692  25.102  0.00  0.00    +0.140 C 
ENDROOT
BRANCH  17  18
ATOM     18  C   UNL     1      -4.652   0.895  24.939  0.00  0.00    +0.251 A 
ATOM     19  N   UNL     1      -4.246   0.364  25.422  0.00  0.00    -0.192 NA
ATOM     20  C   UNL     1      -4.243  -0.371  25.046  0.00  0.00    +0.205 A 
ATOM     32  N   UNL     1      -4.647  -0.294  24.331  0.00  0.00    -0.059 NA
ATOM     33  O   UNL     1      -4.900   0.489  24.265  0.00  0.00    -0.336 OA
BRANCH  20  21
ATOM     21  C   UNL     1      -3.896  -1.061  25.335  0.00  0.00    +0.224 C 
BRANCH  21  22
ATOM     22  S   UNL     1      -3.077  -1.162  25.292  0.00  0.00    +0.016 S 
ATOM     23  O   UNL     1      -3.009  -0.940  26.083  0.00  0.00    -0.168 OA
ATOM     24  O   UNL     1      -3.146  -1.384  24.500  0.00  0.00    -0.168 OA
BRANCH  22  25
ATOM     25  C   UNL     1      -2.260  -1.262  25.249  0.00  0.00    +0.106 A 
ATOM     26  C   UNL     1      -1.941  -1.840  24.755  0.00  0.00    +0.021 A 
ATOM     27  C   UNL     1      -1.123  -1.940  24.713  0.00  0.00    +0.031 A 
ATOM     28  C   UNL     1      -0.624  -1.463  25.164  0.00  0.00    +0.140 A 
ATOM     29  F   UNL     1       0.193  -1.563  25.122  0.00  0.00    -0.204 F 
ATOM     30  C   UNL     1      -0.944  -0.884  25.659  0.00  0.00    +0.031 A 
ATOM     31  C   UNL     1      -1.762  -0.784  25.701  0.00  0.00    +0.021 A 
ENDBRANCH  22  25
ENDBRANCH  21  22
ENDBRANCH  20  21
ENDBRANCH  17  18
BRANCH  12  11
ATOM     11  C   UNL     1      -3.604   2.265  24.443  0.00  0.00    +0.103 C 
BRANCH  11  10
ATOM      3  C   UNL     1      -1.747   3.840  24.886  0.00  0.00    +0.175 A 
ATOM      4  C   UNL     1      -1.621   3.176  24.414  0.00  0.00    +0.206 A 
ATOM      7  C   UNL     1      -2.240   2.651  24.266  0.00  0.00    +0.173 A 
ATOM     10  C   UNL     1      -2.985   2.790  24.591  0.00  0.00    +0.031 A 
ATOM     34  C   UNL     1      -3.111   3.454  25.063  0.00  0.00    +0.003 A 
ATOM     35  C   UNL     1      -2.493   3.979  25.211  0.00  0.00    +0.040 A 
BRANCH   3   2
ATOM      1  C   UNL     1      -1.287   5.166  25.154  0.00  0.00    +0.253 C 
ATOM      2  O   UNL     1      -1.128   4.365  25.033  0.00  0.00    -0.468 OA
ENDBRANCH   3   2
BRANCH   4   5
ATOM      5  O   UNL     1      -0.875   3.037  24.088  0.00  0.00    -0.465 OA
ATOM      6  C   UNL     1      -0.302   2.638  24.527  0.00  0.00    +0.253 C 
ENDBRANCH   4   5
BRANCH   7   8
ATOM      8  O   UNL     1      -2.113   1.986  23.793  0.00  0.00    -0.469 OA
ATOM      9  C   UNL     1      -2.119   2.058  22.971  0.00  0.00    +0.253 C 
ENDBRANCH   7   8
ENDBRANCH  11  10
ENDBRANCH  12  11
TORSDOF 9
ENDMDL
MODEL 3
REMARK VINA RESULT:     -10.5      2.180      4.054
REMARK  Name = 
REMARK  9 active torsions:
REMARK  status: ('A' for Active; 'I' for Inactive)
REMARK    1  A    between atoms: O_2  and  C_3
REMARK    2  A    between atoms: C_4  and  O_5
REMARK    3  A    between atoms: C_7  and  O_8
REMARK    4  A    between atoms: C_10  and  C_11
REMARK    5  A    between atoms: C_11  and  N_12
REMARK    6  A    between atoms: C_17  and  C_18
REMARK    7  A    between atoms: C_20  and  C_21
REMARK    8  A    between atoms: C_21  and  S_22
REMARK    9  A    between atoms: S_22  and  C_25
REMARK                            x       y       z     vdW  Elec       q    Type
REMARK                         _______ _______ _______ _____ _____    ______ ____
ROOT
ATOM     12  N   UNL     1      -2.986  -0.153  24.720  0.00  0.00    -0.260 NA
ATOM     13  C   UNL     1      -3.518  -0.751  24.921  0.00  0.00    +0.106 C 
ATOM     14  C   UNL     1      -3.103  -1.333  25.334  0.00  0.00    +0.170 C 
ATOM     15  O   UNL     1      -3.421  -2.030  25.639  0.00  0.00    -0.222 OA
ATOM     16  C   UNL     1      -2.316  -1.094  25.388  0.00  0.00    +0.060 C 
ATOM     17  C   UNL     1      -2.244  -0.365  25.009  0.00  0.00    +0.140 C 
ENDROOT
BRANCH  17  18
ATOM     18  C   UNL     1      -1.550   0.075  24.931  0.00  0.00    +0.251 A 
ATOM     19  N   UNL     1      -1.302   0.681  25.433  0.00  0.00    -0.192 NA
ATOM     20  C   UNL     1      -0.580   0.967  25.151  0.00  0.00    +0.205 A 
ATOM     32  N   UNL     1      -0.383   0.537  24.474  0.00  0.00    -0.059 NA
ATOM     33  O   UNL     1      -0.982  -0.014  24.339  0.00  0.00    -0.336 OA
BRANCH  20  21
ATOM     21  C   UNL     1      -0.136   1.575  25.486  0.00  0.00    +0.224 C 
BRANCH  21  22
ATOM     22  S   UNL     1      -0.371   2.360  25.390  0.00  0.00    +0.016 S 
ATOM     23  O   UNL     1      -0.711   2.349  26.141  0.00  0.00    -0.168 OA
ATOM     24  O   UNL     1      -0.031   2.371  24.638  0.00  0.00    -0.168 OA
BRANCH  22  25
ATOM     25  C   UNL     1      -0.606   3.145  25.294  0.00  0.00    +0.106 A 
ATOM     26  C   UNL     1      -1.156   3.476  25.812  0.00  0.00    +0.021 A 
ATOM     27  C   UNL     1      -1.391   4.261  25.717  0.00  0.00    +0.031 A 
ATOM     28  C   UNL     1      -1.077   4.715  25.103  0.00  0.00    +0.140 A 
ATOM     29  F   UNL     1      -1.313   5.500  25.008  0.00  0.00    -0.204 F 
ATOM     30  C   UNL     1      -0.527   4.383  24.585  0.00  0.00    +0.031 A 
ATOM     31  C   UNL     1      -0.292   3.598  24.680  0.00  0.00    +0.021 A 
ENDBRANCH  22  25
ENDBRANCH  21  22
ENDBRANCH  20  21
ENDBRANCH  17  18
BRANCH  12  11
ATOM     11  C   UNL     1      -3.167   0.536  24.304  0.00  0.00    +0.103 C 
BRANCH  11  10
ATOM      3  C   UNL     1      -5.209   1.821  24.858  0.00  0.00    +0.175 A 
ATOM      4  C   UNL     1      -4.629   2.156  24.378  0.00  0.00    +0.206 A 
ATOM      7  C   UNL     1      -3.947   1.728  24.193  0.00  0.00    +0.173 A 
ATOM     10  C   UNL     1      -3.848   0.964  24.489  0.00  0.00    +0.031 A 
ATOM     34  C   UNL     1      -4.428   0.629  24.968  0.00  0.00    +0.003 A 
ATOM     35  C   UNL     1      -5.109   1.056  25.153  0.00  0.00    +0.040 A 
BRANCH   3   2
ATOM      1  C   UNL     1      -6.498   1.891  25.471  0.00  0.00    +0.253 C 
ATOM      2  O   UNL     1      -5.890   2.248  25.043  0.00  0.00    -0.468 OA
ENDBRANCH   3   2
BRANCH   4   5
ATOM      5  O   UNL     1      -4.728   2.920  24.083  0.00  0.00    -0.465 OA
ATOM      6  C   UNL     1      -4.583   3.572  24.567  0.00  0.00    +0.253 C 
ENDBRANCH   4   5
BRANCH   7   8
ATOM      8  O   UNL     1      -3.366   2.064  23.714  0.00  0.00    -0.469 OA
ATOM      9  C   UNL     1      -3.473   2.093  22.896  0.00  0.00    +0.253 C 
ENDBRANCH   7   8
ENDBRANCH  11  10
ENDBRANCH  12  11
TORSDOF 9
ENDMDL
MODEL 4
REMARK VINA RESULT:     -10.3      2.057      4.474
REMARK  Name = 
REMARK  9 active torsions:
REMARK  status: ('A' for Active; 'I' for Inactive)
REMARK    1  A    between atoms: O_2  and  C_3
REMARK    2  A    between atoms: C_4  and  O_5
REMARK    3  A    between atoms: C_7  and  O_8
REMARK    4  A    between atoms: C_10  and  C_11
REMARK    5  A    between atoms: C_11  and  N_12
REMARK    6  A    between atoms: C_17  and  C_18
REMARK    7  A    between atoms: C_20  and  C_21
REMARK    8  A    between atoms: C_21  and  S_22
REMARK    9  A    between atoms: S_22  and  C_25
REMARK                            x       y       z     vdW  Elec       q    Type
REMARK                         _______ _______ _______ _____ _____    ______ ____
ROOT
ATOM     12  N   UNL     1      -0.744   2.182  25.589  0.00  0.00    -0.260 NA
ATOM     13  C   UNL     1      -0.048   1.988  25.989  0.00  0.00    +0.106 C 
ATOM     14  C   UNL     1       0.178   2.642  26.438  0.00  0.00    +0.170 C 
ATOM     15  O   UNL     1       0.843   2.690  26.923  0.00  0.00    -0.222 OA
ATOM     16  C   UNL     1      -0.377   3.240  26.315  0.00  0.00    +0.060 C 
ATOM     17  C   UNL     1      -0.947   2.955  25.790  0.00  0.00    +0.140 C 
ENDROOT
BRANCH  17  18
ATOM     18  C   UNL     1      -1.604   3.372  25.516  0.00  0.00    +0.251 A 
ATOM     19  N   UNL     1      -2.336   3.426  25.893  0.00  0.00    -0.192 NA
ATOM     20  C   UNL     1      -2.830   3.894  25.426  0.00  0.00    +0.205 A 
ATOM     32  N   UNL     1      -2.402   4.130  24.760  0.00  0.00    -0.059 NA
ATOM     33  O   UNL     1      -1.645   3.807  24.816  0.00  0.00    -0.336 OA
BRANCH  20  21
ATOM     21  C   UNL     1      -3.612   4.092  25.595  0.00  0.00    +0.224 C 
BRANCH  21  22
ATOM     22  S   UNL     1      -4.216   3.547  25.455  0.00  0.00    +0.016 S 
ATOM     23  O   UNL     1      -4.178   3.304  26.242  0.00  0.00    -0.168 OA
ATOM     24  O   UNL     1      -4.253   3.790  24.667  0.00  0.00    -0.168 OA
BRANCH  22  25
ATOM     25  C   UNL     1      -4.819   3.002  25.315  0.00  0.00    +0.106 A 
ATOM     26  C   UNL     1      -5.408   2.886  25.880  0.00  0.00    +0.021 A 
ATOM     27  C   UNL     1      -6.012   2.341  25.740  0.00  0.00    +0.031 A 
ATOM     28  C   UNL     1      -6.025   1.912  25.036  0.00  0.00    +0.140 A 
ATOM     29  F   UNL     1      -6.629   1.367  24.896  0.00  0.00    -0.204 F 
ATOM     30  C   UNL     1      -5.435   2.028  24.471  0.00  0.00    +0.031 A 
ATOM     31  C   UNL     1      -4.832   2.573  24.610  0.00  0.00    +0.021 A 
ENDBRANCH  22  25
ENDBRANCH  21  22
ENDBRANCH  20  21
ENDBRANCH  17  18
BRANCH  12  11
ATOM     11  C   UNL     1      -1.163   1.688  25.077  0.00  0.00    +0.103 C 
BRANCH  11  10
ATOM      3  C   UNL     1       0.031  -0.047  23.777  0.00  0.00    +0.175 A 
ATOM      4  C   UNL     1      -0.622  -0.253  24.236  0.00  0.00    +0.206 A 
ATOM      7  C   UNL     1      -1.021   0.326  24.669  0.00  0.00    +0.173 A 
ATOM     10  C   UNL     1      -0.764   1.110  24.643  0.00  0.00    +0.031 A 
ATOM     34  C   UNL     1      -0.111   1.315  24.185  0.00  0.00    +0.003 A 
ATOM     35  C   UNL     1       0.287   0.737  23.752  0.00  0.00    +0.040 A 
BRANCH   3   2
ATOM      1  C   UNL     1       0.989  -0.405  22.779  0.00  0.00    +0.253 C 
ATOM      2  O   UNL     1       0.429  -0.625  23.344  0.00  0.00    -0.468 OA
ENDBRANCH   3   2
BRANCH   4   5
ATOM      5  O   UNL     1      -0.879  -1.036  24.261  0.00  0.00    -0.465 OA
ATOM      6  C   UNL     1      -0.568  -1.554  24.823  0.00  0.00    +0.253 C 
ENDBRANCH   4   5
BRANCH   7   8
ATOM      8  O   UNL     1      -1.675   0.121  25.128  0.00  0.00    -0.469 OA
ATOM      9  C   UNL     1      -2.405  -0.014  24.768  0.00  0.00    +0.253 C 
ENDBRANCH   7   8
ENDBRANCH  11  10
ENDBRANCH  12  11
TORSDOF 9
ENDMDL
MODEL 5
REMARK VINA RESULT:     -10.2      2.380      5.398
REMARK  Name = 
REMARK  9 active torsions:
REMARK  status: ('A' for Active; 'I' for Inactive)
REMARK    1  A    between atoms: O_2  and  C_3
REMARK    2  A    between atoms: C_4  and  O_5
REMARK    3  A    between atoms: C_7  and  O_8
REMARK    4  A    between atoms: C_10  and  C_11
REMARK    5  A    between atoms: C_11  and  N_12
REMARK    6  A    between atoms: C_17  and  C_18
REMARK    7  A    between atoms: C_20  and  C_21
REMARK    8  A    between atoms: C_21  and  S_22
REMARK    9  A    between atoms: S_22  and  C_25
REMARK                            x       y       z     vdW  Elec       q    Type
REMARK                         _______ _______ _______ _____ _____    ______ ____
ROOT
ATOM     12  N   UNL     1      -3.418  -0.563  24.452  0.00  0.00    -0.260 NA
ATOM     13  C   UNL     1      -3.417  -1.313  24.107  0.00  0.00    +0.106 C 
ATOM     14  C   UNL     1      -4.198  -1.515  23.934  0.00  0.00    +0.170 C 
ATOM     15  O   UNL     1      -4.450  -2.219  23.585  0.00  0.00    -0.222 OA
ATOM     16  C   UNL     1      -4.682  -0.891  24.171  0.00  0.00    +0.060 C 
ATOM     17  C   UNL     1      -4.200  -0.302  24.491  0.00  0.00    +0.140 C 
ENDROOT
BRANCH  17  18
ATOM     18  C   UNL     1      -4.455   0.421  24.797  0.00  0.00    +0.251 A 
ATOM     19  N   UNL     1      -4.434   1.147  24.406  0.00  0.00    -0.192 NA
ATOM     20  C   UNL     1      -4.742   1.719  24.915  0.00  0.00    +0.205 A 
ATOM     32  N   UNL     1      -4.953   1.346  25.620  0.00  0.00    -0.059 NA
ATOM     33  O   UNL     1      -4.776   0.544  25.547  0.00  0.00    -0.336 OA
BRANCH  20  21
ATOM     21  C   UNL     1      -4.824   2.522  24.748  0.00  0.00    +0.224 C 
BRANCH  21  22
ATOM     22  S   UNL     1      -4.213   3.047  24.933  0.00  0.00    +0.016 S 
ATOM     23  O   UNL     1      -4.481   3.083  25.712  0.00  0.00    -0.168 OA
ATOM     24  O   UNL     1      -3.946   3.011  24.153  0.00  0.00    -0.168 OA
BRANCH  22  25
ATOM     25  C   UNL     1      -3.604   3.571  25.118  0.00  0.00    +0.106 A 
ATOM     26  C   UNL     1      -3.457   3.771  25.904  0.00  0.00    +0.021 A 
ATOM     27  C   UNL     1      -2.847   4.296  26.089  0.00  0.00    +0.031 A 
ATOM     28  C   UNL     1      -2.385   4.620  25.487  0.00  0.00    +0.140 A 
ATOM     29  F   UNL     1      -1.776   5.144  25.672  0.00  0.00    -0.204 F 
ATOM     30  C   UNL     1      -2.532   4.419  24.700  0.00  0.00    +0.031 A 
ATOM     31  C   UNL     1      -3.142   3.895  24.515  0.00  0.00    +0.021 A 
ENDBRANCH  22  25
ENDBRANCH  21  22
ENDBRANCH  20  21
ENDBRANCH  17  18
BRANCH  12  11
ATOM     11  C   UNL     1      -2.754  -0.147  24.711  0.00  0.00    +0.103 C 
BRANCH  11  10
ATOM      3  C   UNL     1      -0.594  -1.320  25.002  0.00  0.00    +0.175 A 
ATOM      4  C   UNL     1      -0.623  -0.605  24.594  0.00  0.00    +0.206 A 
ATOM      7  C   UNL     1      -1.343  -0.213  24.497  0.00  0.00    +0.173 A 
ATOM     10  C   UNL     1      -2.034  -0.539  24.808  0.00  0.00    +0.031 A 
ATOM     34  C   UNL     1      -2.005  -1.254  25.216  0.00  0.00    +0.003 A 
ATOM     35  C   UNL     1      -1.286  -1.646  25.314  0.00  0.00    +0.040 A 
BRANCH   3   2
ATOM      1  C   UNL     1       0.160  -2.409  25.540  0.00  0.00    +0.253 C 
ATOM      2  O   UNL     1       0.125  -1.712  25.100  0.00  0.00    -0.468 OA
ENDBRANCH   3   2
BRANCH   4   5
ATOM      5  O   UNL     1       0.068  -0.279  24.283  0.00  0.00    -0.465 OA
ATOM      6  C   UNL     1       0.328  -0.502  23.532  0.00  0.00    +0.253 C 
ENDBRANCH   4   5
BRANCH   7   8
ATOM      8  O   UNL     1      -1.371   0.503  24.089  0.00  0.00    -0.469 OA
ATOM      9  C   UNL     1      -1.003   1.171  24.402  0.00  0.00    +0.253 C 
ENDBRANCH   7   8
ENDBRANCH  11  10
ENDBRANCH  12  11
TORSDOF 9
ENDMDL
MODEL 6
REMARK VINA RESULT:     -10.0      1.962      4.654
REMARK  Name = 
REMARK  9 active torsions:
REMARK  status: ('A' for Active; 'I' for Inactive)
REMARK    1  A    between atoms: O_2  and  C_3
REMARK    2  A    between atoms: C_4  and  O_5
REMARK    3  A    between atoms: C_7  and  O_8
REMARK    4  A    between atoms: C_10  and  C_11
REMARK    5  A    between atoms: C_11  and  N_12
REMARK    6  A    between atoms: C_17  and  C_18
REMARK    7  A    between atoms: C_20  and  C_21
REMARK    8  A    between atoms: C_21  and  S_22
REMARK    9  A    between atoms: S_22  and  C_25
REMARK                            x       y       z     vdW  Elec       q    Type
REMARK                         _______ _______ _______ _____ _____    ______ ____
ROOT
ATOM     12  N   UNL     1      -0.796   0.308  24.439  0.00  0.00    -0.260 NA
ATOM     13  C   UNL     1      -0.444  -0.209  23.899  0.00  0.00    +0.106 C 
ATOM     14  C   UNL     1       0.241   0.149  23.612  0.00  0.00    +0.170 C 
ATOM     15  O   UNL     1       0.762  -0.173  23.061  0.00  0.00    -0.222 OA
ATOM     16  C   UNL     1       0.314   0.887  23.974  0.00  0.00    +0.060 C 
ATOM     17  C   UNL     1      -0.327   0.985  24.485  0.00  0.00    +0.140 C 
ENDROOT
BRANCH  17  18
ATOM     18  C   UNL     1      -0.473   1.644  24.959  0.00  0.00    +0.251 A 
ATOM     19  N   UNL     1      -0.848   2.339  24.720  0.00  0.00    -0.192 NA
ATOM     20  C   UNL     1      -0.877   2.849  25.369  0.00  0.00    +0.205 A 
ATOM     32  N   UNL     1      -0.520   2.469  26.008  0.00  0.00    -0.059 NA
ATOM     33  O   UNL     1      -0.270   1.725  25.755  0.00  0.00    -0.336 OA
BRANCH  20  21
ATOM     21  C   UNL     1      -1.206   3.605  25.376  0.00  0.00    +0.224 C 
BRANCH  21  22
ATOM     22  S   UNL     1      -2.026   3.700  25.373  0.00  0.00    +0.016 S 
ATOM     23  O   UNL     1      -2.007   3.834  24.560  0.00  0.00    -0.168 OA
ATOM     24  O   UNL     1      -2.045   3.566  26.187  0.00  0.00    -0.168 OA
BRANCH  22  25
ATOM     25  C   UNL     1      -2.845   3.794  25.370  0.00  0.00    +0.106 A 
ATOM     26  C   UNL     1      -3.257   3.797  24.655  0.00  0.00    +0.021 A 
ATOM     27  C   UNL     1      -4.076   3.891  24.652  0.00  0.00    +0.031 A 
ATOM     28  C   UNL     1      -4.484   3.983  25.363  0.00  0.00    +0.140 A 
ATOM     29  F   UNL     1      -5.304   4.077  25.360  0.00  0.00    -0.204 F 
ATOM     30  C   UNL     1      -4.072   3.980  26.078  0.00  0.00    +0.031 A 
ATOM     31  C   UNL     1      -3.253   3.886  26.082  0.00  0.00    +0.021 A 
ENDBRANCH  22  25
ENDBRANCH  21  22
ENDBRANCH  20  21
ENDBRANCH  17  18
BRANCH  12  11
ATOM     11  C   UNL     1      -1.493   0.171  24.858  0.00  0.00    +0.103 C 
BRANCH  11  10
ATOM      3  C   UNL     1      -2.692  -1.979  24.598  0.00  0.00    +0.175 A 
ATOM      4  C   UNL     1      -3.113  -1.270  24.601  0.00  0.00    +0.206 A 
ATOM      7  C   UNL     1      -2.713  -0.553  24.688  0.00  0.00    +0.173 A 
ATOM     10  C   UNL     1      -1.892  -0.547  24.771  0.00  0.00    +0.031 A 
ATOM     34  C   UNL     1      -1.472  -1.255  24.768  0.00  0.00    +0.003 A 
ATOM     35  C   UNL     1      -1.871  -1.972  24.682  0.00  0.00    +0.040 A 
BRANCH   3   2
ATOM      1  C   UNL     1      -2.681  -3.408  24.584  0.00  0.00    +0.253 C 
ATOM      2  O   UNL     1      -3.091  -2.696  24.512  0.00  0.00    -0.468 OA
ENDBRANCH   3   2
BRANCH   4   5
ATOM      5  O   UNL     1      -3.933  -1.277  24.518  0.00  0.00    -0.465 OA
ATOM      6  C   UNL     1      -4.273  -1.443  23.784  0.00  0.00    +0.253 C 
ENDBRANCH   4   5
BRANCH   7   8
ATOM      8  O   UNL     1      -3.134   0.156  24.691  0.00  0.00    -0.469 OA
ATOM      9  C   UNL     1      -3.681   0.308  25.291  0.00  0.00    +0.253 C 
ENDBRANCH   7   8
ENDBRANCH  11  10
ENDBRANCH  12  11
TORSDOF 9
ENDMDL
MODEL 7
REMARK VINA RESULT:     -10.0      2.349      5.233
REMARK  Name = 
REMARK  9 active torsions:
REMARK  status: ('A' for Active; 'I' for Inactive)
REMARK    1  A    between atoms: O_2  and  C_3
REMARK    2  A    between atoms: C_4  and  O_5
REMARK    3  A    between atoms: C_7  and  O_8
REMARK    4  A    between atoms: C_10  and  C_11
REMARK    5  A    between atoms: C_11  and  N_12
REMARK    6  A    between atoms: C_17  and  C_18
REMARK    7  A    between atoms: C_20  and  C_21
REMARK    8  A    between atoms: C_21  and  S_22
REMARK    9  A    between atoms: S_22  and  C_25
REMARK                            x       y       z     vdW  Elec       q    Type
REMARK                         _______ _______ _______ _____ _____    ______ ____
ROOT
ATOM     12  N   UNL     1      -4.600   1.264  24.861  0.00  0.00    -0.260 NA
ATOM     13  C   UNL     1      -5.321   0.939  25.098  0.00  0.00    +0.106 C 
ATOM     14  C   UNL     1      -5.872   1.551  25.147  0.00  0.00    +0.170 C 
ATOM     15  O   UNL     1      -6.664   1.473  25.364  0.00  0.00    -0.222 OA
ATOM     16  C   UNL     1      -5.493   2.253  24.941  0.00  0.00    +0.060 C 
ATOM     17  C   UNL     1      -4.706   2.076  24.764  0.00  0.00    +0.140 C 
ENDROOT
BRANCH  17  18
ATOM     18  C   UNL     1      -4.128   2.617  24.531  0.00  0.00    +0.251 A 
ATOM     19  N   UNL     1      -3.600   3.007  25.030  0.00  0.00    -0.192 NA
ATOM     20  C   UNL     1      -3.122   3.493  24.565  0.00  0.00    +0.205 A 
ATOM     32  N   UNL     1      -3.354   3.403  23.778  0.00  0.00    -0.059 NA
ATOM     33  O   UNL     1      -3.976   2.861  23.757  0.00  0.00    -0.336 OA
BRANCH  20  21
ATOM     21  C   UNL     1      -2.518   3.983  24.839  0.00  0.00    +0.224 C 
BRANCH  21  22
ATOM     22  S   UNL     1      -1.825   3.653  25.144  0.00  0.00    +0.016 S 
ATOM     23  O   UNL     1      -2.096   3.794  25.910  0.00  0.00    -0.168 OA
ATOM     24  O   UNL     1      -1.554   3.513  24.378  0.00  0.00    -0.168 OA
BRANCH  22  25
ATOM     25  C   UNL     1      -1.133   3.324  25.449  0.00  0.00    +0.106 A 
ATOM     26  C   UNL     1      -1.083   3.140  26.251  0.00  0.00    +0.021 A 
ATOM     27  C   UNL     1      -0.391   2.811  26.556  0.00  0.00    +0.031 A 
ATOM     28  C   UNL     1       0.252   2.666  26.060  0.00  0.00    +0.140 A 
ATOM     29  F   UNL     1       0.944   2.337  26.365  0.00  0.00    -0.204 F 
ATOM     30  C   UNL     1       0.202   2.851  25.257  0.00  0.00    +0.031 A 
ATOM     31  C   UNL     1      -0.490   3.180  24.952  0.00  0.00    +0.021 A 
ENDBRANCH  22  25
ENDBRANCH  21  22
ENDBRANCH  20  21
ENDBRANCH  17  18
BRANCH  12  11
ATOM     11  C   UNL     1      -3.897   0.849  24.743  0.00  0.00    +0.103 C 
BRANCH  11  10
ATOM      3  C   UNL     1      -3.951  -1.592  24.339  0.00  0.00    +0.175 A 
ATOM      4  C   UNL     1      -3.412  -1.275  24.876  0.00  0.00    +0.206 A 
ATOM      7  C   UNL     1      -3.393  -0.461  25.011  0.00  0.00    +0.173 A 
ATOM     10  C   UNL     1      -3.915   0.035  24.608  0.00  0.00    +0.031 A 
ATOM     34  C   UNL     1      -4.454  -0.282  24.071  0.00  0.00    +0.003 A 
ATOM     35  C   UNL     1      -4.473  -1.095  23.936  0.00  0.00    +0.040 A 
BRANCH   3   2
ATOM      1  C   UNL     1      -4.353  -2.705  23.537  0.00  0.00    +0.253 C 
ATOM      2  O   UNL     1      -3.970  -2.406  24.204  0.00  0.00    -0.468 OA
ENDBRANCH   3   2
BRANCH   4   5
ATOM      5  O   UNL     1      -2.890  -1.771  25.279  0.00  0.00    -0.465 OA
ATOM      6  C   UNL     1      -3.168  -2.262  25.881  0.00  0.00    +0.253 C 
ENDBRANCH   4   5
BRANCH   7   8
ATOM      8  O   UNL     1      -2.853  -0.144  25.548  0.00  0.00    -0.469 OA
ATOM      9  C   UNL     1      -2.045  -0.173  25.385  0.00  0.00    +0.253 C 
ENDBRANCH   7   8
ENDBRANCH  11  10
ENDBRANCH  12  11
TORSDOF 9
ENDMDL
MODEL 8
REMARK VINA RESULT:      -9.9      1.305      2.203
REMARK  Name = 
REMARK  9 active torsions:
REMARK  status: ('A' for Active; 'I' for Inactive)
REMARK    1  A    between atoms: O_2  and  C_3
REMARK    2  A    between atoms: C_4  and  O_5
REMARK    3  A    between atoms: C_7  and  O_8
REMARK    4  A    between atoms: C_10  and  C_11
REMARK    5  A    between atoms: C_11  and  N_12
REMARK    6  A    between atoms: C_17  and  C_18
REMARK    7  A    between atoms: C_20  and  C_21
REMARK    8  A    between atoms: C_21  and  S_22
REMARK    9  A    between atoms: S_22  and  C_25
REMARK                            x       y       z     vdW  Elec       q    Type
REMARK                         _______ _______ _______ _____ _____    ______ ____
ROOT
ATOM     12  N   UNL     1      -2.610   2.232  23.742  0.00  0.00    -0.260 NA
ATOM     13  C   UNL     1      -2.954   2.559  23.066  0.00  0.00    +0.106 C 
ATOM     14  C   UNL     1      -2.546   2.272  22.409  0.00  0.00    +0.170 C 
ATOM     15  O   UNL     1      -2.707   2.457  21.621  0.00  0.00    -0.222 OA
ATOM     16  C   UNL     1      -1.951   1.768  22.677  0.00  0.00    +0.060 C 
ATOM     17  C   UNL     1      -1.990   1.744  23.501  0.00  0.00    +0.140 C 
ENDROOT
BRANCH  17  18
ATOM     18  C   UNL     1      -1.496   1.307  23.998  0.00  0.00    +0.251 A 
ATOM     19  N   UNL     1      -1.566   0.503  24.166  0.00  0.00    -0.192 NA
ATOM     20  C   UNL     1      -0.959   0.297  24.685  0.00  0.00    +0.205 A 
ATOM     32  N   UNL     1      -0.513   0.975  24.838  0.00  0.00    -0.059 NA
ATOM     33  O   UNL     1      -0.845   1.599  24.413  0.00  0.00    -0.336 OA
BRANCH  20  21
ATOM     21  C   UNL     1      -0.821  -0.454  24.997  0.00  0.00    +0.224 C 
BRANCH  21  22
ATOM     22  S   UNL     1      -1.423  -1.019  24.994  0.00  0.00    +0.016 S 
ATOM     23  O   UNL     1      -1.161  -1.294  24.262  0.00  0.00    -0.168 OA
ATOM     24  O   UNL     1      -1.686  -0.744  25.726  0.00  0.00    -0.168 OA
BRANCH  22  25
ATOM     25  C   UNL     1      -2.025  -1.584  24.991  0.00  0.00    +0.106 A 
ATOM     26  C   UNL     1      -1.935  -2.278  24.555  0.00  0.00    +0.021 A 
ATOM     27  C   UNL     1      -2.537  -2.843  24.552  0.00  0.00    +0.031 A 
ATOM     28  C   UNL     1      -3.227  -2.713  24.984  0.00  0.00    +0.140 A 
ATOM     29  F   UNL     1      -3.829  -3.278  24.981  0.00  0.00    -0.204 F 
ATOM     30  C   UNL     1      -3.316  -2.018  25.420  0.00  0.00    +0.031 A 
ATOM     31  C   UNL     1      -2.715  -1.453  25.424  0.00  0.00    +0.021 A 
ENDBRANCH  22  25
ENDBRANCH  21  22
ENDBRANCH  20  21
ENDBRANCH  17  18
BRANCH  12  11
ATOM     11  C   UNL     1      -2.845   2.370  24.521  0.00  0.00    +0.103 C 
BRANCH  11  10
ATOM      3  C   UNL     1      -5.251   2.424  25.097  0.00  0.00    +0.175 A 
ATOM      4  C   UNL     1      -4.754   3.031  25.349  0.00  0.00    +0.206 A 
ATOM      7  C   UNL     1      -3.951   3.013  25.157  0.00  0.00    +0.173 A 
ATOM     10  C   UNL     1      -3.648   2.388  24.713  0.00  0.00    +0.031 A 
ATOM     34  C   UNL     1      -4.145   1.781  24.461  0.00  0.00    +0.003 A 
ATOM     35  C   UNL     1      -4.947   1.799  24.652  0.00  0.00    +0.040 A 
BRANCH   3   2
ATOM      1  C   UNL     1      -6.520   1.772  25.173  0.00  0.00    +0.253 C 
ATOM      2  O   UNL     1      -6.053   2.442  25.289  0.00  0.00    -0.468 OA
ENDBRANCH   3   2
BRANCH   4   5
ATOM      5  O   UNL     1      -5.057   3.656  25.794  0.00  0.00    -0.465 OA
ATOM      6  C   UNL     1      -5.510   4.241  25.429  0.00  0.00    +0.253 C 
ENDBRANCH   4   5
BRANCH   7   8
ATOM      8  O   UNL     1      -3.452   3.620  25.410  0.00  0.00    -0.469 OA
ATOM      9  C   UNL     1      -3.188   3.638  26.191  0.00  0.00    +0.253 C 
ENDBRANCH   7   8
ENDBRANCH  11  10
ENDBRANCH  12  11
TORSDOF 9
ENDMDL
