MODEL 1
REMARK VINA RESULT:     -12.0      0.000      0.000
REMARK  Name = 
REMARK  6 active torsions:
REMARK  status: ('A' for Active; 'I' for Inactive)
REMARK    1  A    between atoms: C_2  and  C_4
REMARK    2  A    between atoms: C_6  and  C_7
REMARK    3  A    between atoms: C_7  and  C_8
REMARK    4  A    between atoms: C_11  and  C_13
REMARK    5  A    between atoms: C_20  and  C_21
REMARK    6  A    between atoms: C_21  and  N_22
REMARK                            x       y       z     vdW  Elec       q    Type
REMARK                         _______ _______ _______ _____ _____    ______ ____
ROOT
ATOM      4  C   UNL     1      -3.464   1.241  24.597  0.00  0.00    +0.006 C 
ATOM      5  C   UNL     1      -2.818   1.738  24.474  0.00  0.00    +0.005 C 
ATOM      6  C   UNL     1      -2.061   1.417  24.394  0.00  0.00    +0.027 C 
ATOM     17  C   UNL     1      -1.952   0.600  24.436  0.00  0.00    -0.048 C 
ATOM     18  C   UNL     1      -1.196   0.281  24.356  0.00  0.00    +0.026 C 
ATOM     19  C   UNL     1      -2.600   0.104  24.560  0.00  0.00    -0.034 C 
ATOM     20  C   UNL     1      -3.355   0.424  24.640  0.00  0.00    +0.037 C 
ENDROOT
BRANCH   4   2
ATOM      1  C   UNL     1      -4.639   1.801  24.008  0.00  0.00    +0.000 C 
ATOM      2  C   UNL     1      -4.220   1.561  24.678  0.00  0.00    +0.000 C 
ATOM      3  C   UNL     1      -4.556   1.643  25.425  0.00  0.00    +0.000 C 
ENDBRANCH   4   2
BRANCH   6   7
ATOM      7  C   UNL     1      -1.414   1.914  24.270  0.00  0.00    +0.091 C 
BRANCH   7   8
ATOM      8  C   UNL     1      -1.322   2.592  24.730  0.00  0.00    +0.226 A 
ATOM      9  N   UNL     1      -1.051   2.616  25.509  0.00  0.00    -0.112 NA
ATOM     10  N   UNL     1      -1.045   3.405  25.752  0.00  0.00    -0.112 NA
ATOM     11  C   UNL     1      -1.311   3.868  25.123  0.00  0.00    +0.225 A 
ATOM     12  O   UNL     1      -1.482   3.365  24.491  0.00  0.00    -0.423 OA
BRANCH  11  13
ATOM     13  C   UNL     1      -1.393   4.688  25.125  0.00  0.00    +0.070 C 
ATOM     14  C   UNL     1      -1.474   5.510  25.127  0.00  0.00    +0.009 C 
ATOM     15  C   UNL     1      -0.680   4.760  24.716  0.00  0.00    +0.009 C 
ATOM     16  C   UNL     1      -2.106   4.618  25.534  0.00  0.00    +0.009 C 
ENDBRANCH  11  13
ENDBRANCH   7   8
ENDBRANCH   6   7
BRANCH  20  21
ATOM     21  C   UNL     1      -4.002  -0.072  24.763  0.00  0.00    +0.076 C 
BRANCH  21  22
ATOM     22  N   UNL     1      -3.917  -0.890  24.682  0.00  0.00    -0.272 NA
ATOM     23  C   UNL     1      -4.100  -1.254  23.965  0.00  0.00    +0.075 C 
ATOM     24  C   UNL     1      -4.015  -2.070  23.883  0.00  0.00    +0.050 C 
ATOM     25  C   UNL     1      -3.746  -2.523  24.520  0.00  0.00    +0.155 C 
ATOM     26  O   UNL     1      -3.661  -3.338  24.439  0.00  0.00    -0.223 OA
ATOM     27  C   UNL     1      -3.564  -2.158  25.236  0.00  0.00    +0.050 C 
ATOM     28  C   UNL     1      -3.649  -1.341  25.318  0.00  0.00    +0.075 C 
ENDBRANCH  21  22
ENDBRANCH  20  21
TORSDOF 6
ENDMDL
MODEL 2
REMARK VINA RESULT:     -11.9      0.957      5.364
REMARK  Name = 
REMARK  6 active torsions:
REMARK  status: ('A' for Active; 'I' for Inactive)
REMARK    1  A    between atoms: C_2  and  C_4
REMARK    2  A    between atoms: C_6  and  C_7
REMARK    3  A    between atoms: C_7  and  C_8
REMARK    4  A    between atoms: C_11  and  C_13
REMARK    5  A    between atoms: C_20  and  C_21
REMARK    6  A    between atoms: C_21  and  N_22
REMARK                            x       y       z     vdW  Elec       q    Type
REMARK                         _______ _______ _______ _____ _____    ______ ____
ROOT
ATOM      4  C   UNL     1      -1.675   1.233  24.777  0.00  0.00    +0.006 C 
ATOM      5  C   UNL     1      -2.253   0.764  24.421  0.00  0.00    +0.005 C 
ATOM      6  C   UNL     1      -2.967   1.103  24.180  0.00  0.00    +0.027 C 
ATOM     17  C   UNL     1      -3.101   1.909  24.295  0.00  0.00    -0.048 C 
ATOM     18  C   UNL     1      -3.814   2.246  24.055  0.00  0.00    +0.026 C 
ATOM     19  C   UNL     1      -2.522   2.376  24.651  0.00  0.00    -0.034 C 
ATOM     20  C   UNL     1      -1.809   2.039  24.891  0.00  0.00    +0.037 C 
ENDROOT
BRANCH   4   2
ATOM      1  C   UNL     1      -0.867   0.644  25.798  0.00  0.00    +0.000 C 
ATOM      2  C   UNL     1      -0.962   0.895  25.017  0.00  0.00    +0.000 C 
ATOM      3  C   UNL     1      -0.344   0.807  24.478  0.00  0.00    +0.000 C 
ENDBRANCH   4   2
BRANCH   6   7
ATOM      7  C   UNL     1      -3.545   0.634  23.825  0.00  0.00    +0.091 C 
BRANCH   7   8
ATOM      8  C   UNL     1      -3.768  -0.080  24.171  0.00  0.00    +0.226 A 
ATOM      9  N   UNL     1      -4.269  -0.168  24.821  0.00  0.00    -0.112 NA
ATOM     10  N   UNL     1      -4.341  -0.974  24.981  0.00  0.00    -0.112 NA
ATOM     11  C   UNL     1      -3.884  -1.384  24.429  0.00  0.00    +0.225 A 
ATOM     12  O   UNL     1      -3.530  -0.831  23.929  0.00  0.00    -0.423 OA
BRANCH  11  13
ATOM     13  C   UNL     1      -3.796  -2.203  24.386  0.00  0.00    +0.070 C 
ATOM     14  C   UNL     1      -3.708  -3.023  24.341  0.00  0.00    +0.009 C 
ATOM     15  C   UNL     1      -4.222  -2.211  23.680  0.00  0.00    +0.009 C 
ATOM     16  C   UNL     1      -3.369  -2.196  25.092  0.00  0.00    +0.009 C 
ENDBRANCH  11  13
ENDBRANCH   7   8
ENDBRANCH   6   7
BRANCH  20  21
ATOM     21  C   UNL     1      -1.230   2.506  25.247  0.00  0.00    +0.076 C 
BRANCH  21  22
ATOM     22  N   UNL     1      -1.286   3.330  25.212  0.00  0.00    -0.272 NA
ATOM     23  C   UNL     1      -0.860   3.748  24.643  0.00  0.00    +0.075 C 
ATOM     24  C   UNL     1      -0.916   4.570  24.608  0.00  0.00    +0.050 C 
ATOM     25  C   UNL     1      -1.398   4.975  25.143  0.00  0.00    +0.155 C 
ATOM     26  O   UNL     1      -1.454   5.796  25.109  0.00  0.00    -0.223 OA
ATOM     27  C   UNL     1      -1.824   4.555  25.712  0.00  0.00    +0.050 C 
ATOM     28  C   UNL     1      -1.768   3.733  25.746  0.00  0.00    +0.075 C 
ENDBRANCH  21  22
ENDBRANCH  20  21
TORSDOF 6
ENDMDL
MODEL 3
REMARK VINA RESULT:     -11.8      1.216      5.081
REMARK  Name = 
REMARK  6 active torsions:
REMARK  status: ('A' for Active; 'I' for Inactive)
REMARK    1  A    between atoms: C_2  and  C_4
REMARK    2  A    between atoms: C_6  and  C_7
REMARK    3  A    between atoms: C_7  and  C_8
REMARK    4  A    between atoms: C_11  and  C_13
REMARK    5  A    between atoms: C_20  and  C_21
REMARK    6  A    between atoms: C_21  and  N_22
REMARK                            x       y       z     vdW  Elec       q    Type
REMARK                         _______ _______ _______ _____ _____    ______ ____
ROOT
ATOM      4  C   UNL     1      -4.328   1.749  24.708  0.00  0.00    +0.006 C 
ATOM      5  C   UNL     1      -4.247   1.049  24.280  0.00  0.00    +0.005 C 
ATOM      6  C   UNL     1      -3.530   0.871  23.911  0.00  0.00    +0.027 C 
ATOM     17  C   UNL     1      -2.895   1.395  23.971  0.00  0.00    -0.048 C 
ATOM     18  C   UNL     1      -2.179   1.217  23.603  0.00  0.00    +0.026 C 
ATOM     19  C   UNL     1      -2.977   2.095  24.400  0.00  0.00    -0.034 C 
ATOM     20  C   UNL     1      -3.693   2.272  24.768  0.00  0.00    +0.037 C 
ENDROOT
BRANCH   4   2
ATOM      1  C   UNL     1      -5.192   1.657  25.842  0.00  0.00    +0.000 C 
ATOM      2  C   UNL     1      -5.045   1.926  25.076  0.00  0.00    +0.000 C 
ATOM      3  C   UNL     1      -5.614   2.371  24.679  0.00  0.00    +0.000 C 
ENDBRANCH   4   2
BRANCH   6   7
ATOM      7  C   UNL     1      -3.449   0.171  23.483  0.00  0.00    +0.091 C 
BRANCH   7   8
ATOM      8  C   UNL     1      -3.670  -0.547  23.821  0.00  0.00    +0.226 A 
ATOM      9  N   UNL     1      -4.395  -0.929  23.718  0.00  0.00    -0.112 NA
ATOM     10  N   UNL     1      -4.379  -1.628  24.155  0.00  0.00    -0.112 NA
ATOM     11  C   UNL     1      -3.646  -1.679  24.529  0.00  0.00    +0.225 A 
ATOM     12  O   UNL     1      -3.208  -1.011  24.323  0.00  0.00    -0.423 OA
BRANCH  11  13
ATOM     13  C   UNL     1      -3.394  -2.290  25.022  0.00  0.00    +0.070 C 
ATOM     14  C   UNL     1      -3.142  -2.901  25.517  0.00  0.00    +0.009 C 
ATOM     15  C   UNL     1      -3.491  -1.800  25.679  0.00  0.00    +0.009 C 
ATOM     16  C   UNL     1      -3.296  -2.781  24.367  0.00  0.00    +0.009 C 
ENDBRANCH  11  13
ENDBRANCH   7   8
ENDBRANCH   6   7
BRANCH  20  21
ATOM     21  C   UNL     1      -3.775   2.972  25.196  0.00  0.00    +0.076 C 
BRANCH  21  22
ATOM     22  N   UNL     1      -3.150   3.511  25.228  0.00  0.00    -0.272 NA
ATOM     23  C   UNL     1      -2.599   3.467  25.841  0.00  0.00    +0.075 C 
ATOM     24  C   UNL     1      -1.975   4.006  25.874  0.00  0.00    +0.050 C 
ATOM     25  C   UNL     1      -1.902   4.589  25.294  0.00  0.00    +0.155 C 
ATOM     26  O   UNL     1      -1.278   5.127  25.327  0.00  0.00    -0.223 OA
ATOM     27  C   UNL     1      -2.453   4.632  24.682  0.00  0.00    +0.050 C 
ATOM     28  C   UNL     1      -3.077   4.093  24.649  0.00  0.00    +0.075 C 
ENDBRANCH  21  22
ENDBRANCH  20  21
TORSDOF 6
ENDMDL
MODEL 4
REMARK VINA RESULT:     -11.1      2.423      3.800
REMARK  Name = 
REMARK  6 active torsions:
REMARK  status: ('A' for Active; 'I' for Inactive)
REMARK    1  A    between atoms: C_2  and  C_4
REMARK    2  A    between atoms: C_6  and  C_7
REMARK    3  A    between atoms: C_7  and  C_8
REMARK    4  A    between atoms: C_11  and  C_13
REMARK    5  A    between atoms: C_20  and  C_21
REMARK    6  A    between atoms: C_21  and  N_22
REMARK                            x       y       z     vdW  Elec       q    Type
REMARK                         _______ _______ _______ _____ _____    ______ ____
ROOT
ATOM      4  C   UNL     1      -1.696   2.857  24.695  0.00  0.00    +0.006 C 
ATOM      5  C   UNL     1      -2.443   3.133  24.479  0.00  0.00    +0.005 C 
ATOM      6  C   UNL     1      -2.873   2.742  23.892  0.00  0.00    +0.027 C 
ATOM     17  C   UNL     1      -2.555   2.076  23.523  0.00  0.00    -0.048 C 
ATOM     18  C   UNL     1      -2.985   1.686  22.937  0.00  0.00    +0.026 C 
ATOM     19  C   UNL     1      -1.808   1.801  23.740  0.00  0.00    -0.034 C 
ATOM     20  C   UNL     1      -1.379   2.191  24.326  0.00  0.00    +0.037 C 
ENDROOT
BRANCH   4   2
ATOM      1  C   UNL     1      -0.745   3.853  25.075  0.00  0.00    +0.000 C 
ATOM      2  C   UNL     1      -1.267   3.248  25.281  0.00  0.00    +0.000 C 
ATOM      3  C   UNL     1      -1.360   3.035  26.072  0.00  0.00    +0.000 C 
ENDBRANCH   4   2
BRANCH   6   7
ATOM      7  C   UNL     1      -3.620   3.018  23.676  0.00  0.00    +0.091 C 
BRANCH   7   8
ATOM      8  C   UNL     1      -4.213   3.088  24.243  0.00  0.00    +0.226 A 
ATOM      9  N   UNL     1      -4.472   3.791  24.589  0.00  0.00    -0.112 NA
ATOM     10  N   UNL     1      -5.073   3.606  25.124  0.00  0.00    -0.112 NA
ATOM     11  C   UNL     1      -5.184   2.789  25.109  0.00  0.00    +0.225 A 
ATOM     12  O   UNL     1      -4.653   2.469  24.564  0.00  0.00    -0.423 OA
BRANCH  11  13
ATOM     13  C   UNL     1      -5.731   2.365  25.559  0.00  0.00    +0.070 C 
ATOM     14  C   UNL     1      -6.278   1.941  26.009  0.00  0.00    +0.009 C 
ATOM     15  C   UNL     1      -5.983   1.970  24.881  0.00  0.00    +0.009 C 
ATOM     16  C   UNL     1      -5.480   2.761  26.238  0.00  0.00    +0.009 C 
ENDBRANCH  11  13
ENDBRANCH   7   8
ENDBRANCH   6   7
BRANCH  20  21
ATOM     21  C   UNL     1      -0.633   1.916  24.542  0.00  0.00    +0.076 C 
BRANCH  21  22
ATOM     22  N   UNL     1      -0.420   1.133  24.388  0.00  0.00    -0.272 NA
ATOM     23  C   UNL     1       0.044   0.954  23.730  0.00  0.00    +0.075 C 
ATOM     24  C   UNL     1       0.256   0.172  23.576  0.00  0.00    +0.050 C 
ATOM     25  C   UNL     1       0.003  -0.432  24.079  0.00  0.00    +0.155 C 
ATOM     26  O   UNL     1       0.215  -1.213  23.925  0.00  0.00    -0.223 OA
ATOM     27  C   UNL     1      -0.461  -0.252  24.736  0.00  0.00    +0.050 C 
ATOM     28  C   UNL     1      -0.673   0.531  24.891  0.00  0.00    +0.075 C 
ENDBRANCH  21  22
ENDBRANCH  20  21
TORSDOF 6
ENDMDL
