MODEL 1
REMARK VINA RESULT:      -7.0      0.000      0.000
REMARK  Name = 
REMARK  7 active torsions:
REMARK  status: ('A' for Active; 'I' for Inactive)
REMARK    1  A    between atoms: C_2  and  N_3
REMARK    2  A    between atoms: N_3  and  C_4
REMARK    3  A    between atoms: N_3  and  C_6
REMARK    4  A    between atoms: C_6  and  C_7
REMARK    5  A    between atoms: C_7  and  C_8
REMARK    6  A    between atoms: C_11  and  C_12
REMARK    7  A    between atoms: C_12  and  O_13
REMARK                            x       y       z     vdW  Elec       q    Type
REMARK                         _______ _______ _______ _____ _____    ______ ____
ROOT
ATOM      6  C   UNL     1      -4.782   2.019  24.794  0.00  0.00    +0.106 C 
ATOM     16  C   UNL     1      -5.399   2.495  25.063  0.00  0.00    +0.160 C 
ATOM     17  O   UNL     1      -5.904   1.842  25.062  0.00  0.00    -0.351 OA
ATOM     18  C   UNL     1      -5.286   1.366  24.793  0.00  0.00    +0.160 C 
ENDROOT
BRANCH   6   3
ATOM      3  N   UNL     1      -4.277   2.672  24.795  0.00  0.00    -0.271 NA
BRANCH   3   2
ATOM      1  C   UNL     1      -3.863   3.725  23.923  0.00  0.00    +0.019 C 
ATOM      2  C   UNL     1      -3.922   2.920  24.094  0.00  0.00    +0.072 C 
ENDBRANCH   3   2
BRANCH   3   4
ATOM      4  C   UNL     1      -4.128   3.076  25.499  0.00  0.00    +0.072 C 
ATOM      5  C   UNL     1      -3.479   3.583  25.555  0.00  0.00    +0.019 C 
ENDBRANCH   3   4
ENDBRANCH   6   3
BRANCH   6   7
ATOM      7  C   UNL     1      -4.164   1.543  24.525  0.00  0.00    +0.069 C 
BRANCH   7   8
ATOM      8  C   UNL     1      -4.148   0.740  24.717  0.00  0.00    +0.102 A 
ATOM      9  N   UNL     1      -4.218   0.421  25.474  0.00  0.00    -0.082 NA
ATOM     10  O   UNL     1      -4.174  -0.401  25.409  0.00  0.00    -0.356 OA
ATOM     11  C   UNL     1      -4.077  -0.588  24.612  0.00  0.00    +0.184 A 
ATOM     15  C   UNL     1      -4.061   0.117  24.184  0.00  0.00    +0.056 A 
BRANCH  11  12
ATOM     12  C   UNL     1      -4.007  -1.349  24.297  0.00  0.00    +0.209 C 
BRANCH  12  13
ATOM     13  O   UNL     1      -3.747  -1.970  24.775  0.00  0.00    -0.343 OA
ATOM     14  C   UNL     1      -3.587  -2.707  24.442  0.00  0.00    +0.175 C 
ENDBRANCH  12  13
ENDBRANCH  11  12
ENDBRANCH   7   8
ENDBRANCH   6   7
TORSDOF 7
ENDMDL
MODEL 2
REMARK VINA RESULT:      -6.7      1.417      4.093
REMARK  Name = 
REMARK  7 active torsions:
REMARK  status: ('A' for Active; 'I' for Inactive)
REMARK    1  A    between atoms: C_2  and  N_3
REMARK    2  A    between atoms: N_3  and  C_4
REMARK    3  A    between atoms: N_3  and  C_6
REMARK    4  A    between atoms: C_6  and  C_7
REMARK    5  A    between atoms: C_7  and  C_8
REMARK    6  A    between atoms: C_11  and  C_12
REMARK    7  A    between atoms: C_12  and  O_13
REMARK                            x       y       z     vdW  Elec       q    Type
REMARK                         _______ _______ _______ _____ _____    ______ ____
ROOT
ATOM      6  C   UNL     1      -3.224  -0.444  24.812  0.00  0.00    +0.106 C 
ATOM     16  C   UNL     1      -2.470  -0.691  24.588  0.00  0.00    +0.160 C 
ATOM     17  O   UNL     1      -2.191   0.081  24.670  0.00  0.00    -0.351 OA
ATOM     18  C   UNL     1      -2.946   0.328  24.894  0.00  0.00    +0.160 C 
ENDROOT
BRANCH   6   3
ATOM      3  N   UNL     1      -3.502  -1.217  24.730  0.00  0.00    -0.271 NA
BRANCH   3   2
ATOM      1  C   UNL     1      -3.395  -2.495  25.359  0.00  0.00    +0.019 C 
ATOM      2  C   UNL     1      -3.595  -1.695  25.394  0.00  0.00    +0.072 C 
ENDBRANCH   3   2
BRANCH   3   4
ATOM      4  C   UNL     1      -3.687  -1.510  23.981  0.00  0.00    +0.072 C 
ATOM      5  C   UNL     1      -4.086  -2.228  23.905  0.00  0.00    +0.019 C 
ENDBRANCH   3   4
ENDBRANCH   6   3
BRANCH   6   7
ATOM      7  C   UNL     1      -3.979  -0.197  25.036  0.00  0.00    +0.069 C 
BRANCH   7   8
ATOM      8  C   UNL     1      -4.239   0.561  24.841  0.00  0.00    +0.102 A 
ATOM      9  N   UNL     1      -4.061   0.972  24.148  0.00  0.00    -0.082 NA
ATOM     10  O   UNL     1      -4.435   1.707  24.184  0.00  0.00    -0.356 OA
ATOM     11  C   UNL     1      -4.844   1.749  24.898  0.00  0.00    +0.184 A 
ATOM     15  C   UNL     1      -4.723   1.041  25.304  0.00  0.00    +0.056 A 
BRANCH  11  12
ATOM     12  C   UNL     1      -5.296   2.388  25.161  0.00  0.00    +0.209 C 
BRANCH  12  13
ATOM     13  O   UNL     1      -4.933   3.112  25.321  0.00  0.00    -0.343 OA
ATOM     14  C   UNL     1      -5.382   3.749  25.591  0.00  0.00    +0.175 C 
ENDBRANCH  12  13
ENDBRANCH  11  12
ENDBRANCH   7   8
ENDBRANCH   6   7
TORSDOF 7
ENDMDL
MODEL 3
REMARK VINA RESULT:      -6.7      1.657      3.752
REMARK  Name = 
REMARK  7 active torsions:
REMARK  status: ('A' for Active; 'I' for Inactive)
REMARK    1  A    between atoms: C_2  and  N_3
REMARK    2  A    between atoms: N_3  and  C_4
REMARK    3  A    between atoms: N_3  and  C_6
REMARK    4  A    between atoms: C_6  and  C_7
REMARK    5  A    between atoms: C_7  and  C_8
REMARK    6  A    between atoms: C_11  and  C_12
REMARK    7  A    between atoms: C_12  and  O_13
REMARK                            x       y       z     vdW  Elec       q    Type
REMARK                         _______ _______ _______ _____ _____    ______ ____
ROOT
ATOM      6  C   UNL     1      -4.220   0.685  24.661  0.00  0.00    +0.106 C 
ATOM     16  C   UNL     1      -4.894   0.501  25.100  0.00  0.00    +0.160 C 
ATOM     17  O   UNL     1      -5.136   1.289  25.059  0.00  0.00    -0.351 OA
ATOM     18  C   UNL     1      -4.462   1.472  24.620  0.00  0.00    +0.160 C 
ENDROOT
BRANCH   6   3
ATOM      3  N   UNL     1      -3.978  -0.103  24.702  0.00  0.00    -0.271 NA
BRANCH   3   2
ATOM      1  C   UNL     1      -4.183  -1.345  24.025  0.00  0.00    +0.019 C 
ATOM      2  C   UNL     1      -3.935  -0.558  24.016  0.00  0.00    +0.072 C 
ENDBRANCH   3   2
BRANCH   3   4
ATOM      4  C   UNL     1      -3.778  -0.435  25.430  0.00  0.00    +0.072 C 
ATOM      5  C   UNL     1      -3.385  -1.159  25.460  0.00  0.00    +0.019 C 
ENDBRANCH   3   4
ENDBRANCH   6   3
BRANCH   6   7
ATOM      7  C   UNL     1      -3.547   0.868  24.221  0.00  0.00    +0.069 C 
BRANCH   7   8
ATOM      8  C   UNL     1      -3.267   1.644  24.201  0.00  0.00    +0.102 A 
ATOM      9  N   UNL     1      -3.545   2.248  23.712  0.00  0.00    -0.082 NA
ATOM     10  O   UNL     1      -3.109   2.930  23.875  0.00  0.00    -0.356 OA
ATOM     11  C   UNL     1      -2.563   2.747  24.465  0.00  0.00    +0.184 A 
ATOM     15  C   UNL     1      -2.660   1.953  24.666  0.00  0.00    +0.056 A 
BRANCH  11  12
ATOM     12  C   UNL     1      -2.014   3.268  24.796  0.00  0.00    +0.209 C 
BRANCH  12  13
ATOM     13  O   UNL     1      -2.218   4.059  24.916  0.00  0.00    -0.343 OA
ATOM     14  C   UNL     1      -1.681   4.574  25.272  0.00  0.00    +0.175 C 
ENDBRANCH  12  13
ENDBRANCH  11  12
ENDBRANCH   7   8
ENDBRANCH   6   7
TORSDOF 7
ENDMDL
MODEL 4
REMARK VINA RESULT:      -6.7      1.899      2.208
REMARK  Name = 
REMARK  7 active torsions:
REMARK  status: ('A' for Active; 'I' for Inactive)
REMARK    1  A    between atoms: C_2  and  N_3
REMARK    2  A    between atoms: N_3  and  C_4
REMARK    3  A    between atoms: N_3  and  C_6
REMARK    4  A    between atoms: C_6  and  C_7
REMARK    5  A    between atoms: C_7  and  C_8
REMARK    6  A    between atoms: C_11  and  C_12
REMARK    7  A    between atoms: C_12  and  O_13
REMARK                            x       y       z     vdW  Elec       q    Type
REMARK                         _______ _______ _______ _____ _____    ______ ____
ROOT
ATOM      6  C   UNL     1      -3.934   2.113  24.266  0.00  0.00    +0.106 C 
ATOM     16  C   UNL     1      -4.113   2.798  23.843  0.00  0.00    +0.160 C 
ATOM     17  O   UNL     1      -3.492   2.640  23.323  0.00  0.00    -0.351 OA
ATOM     18  C   UNL     1      -3.313   1.955  23.747  0.00  0.00    +0.160 C 
ENDROOT
BRANCH   6   3
ATOM      3  N   UNL     1      -4.555   2.271  24.786  0.00  0.00    -0.271 NA
BRANCH   3   2
ATOM      1  C   UNL     1      -5.944   1.981  24.958  0.00  0.00    +0.019 C 
ATOM      2  C   UNL     1      -5.164   1.724  24.880  0.00  0.00    +0.072 C 
ENDBRANCH   3   2
BRANCH   3   4
ATOM      4  C   UNL     1      -4.567   2.979  25.210  0.00  0.00    +0.072 C 
ATOM      5  C   UNL     1      -5.117   3.089  25.815  0.00  0.00    +0.019 C 
ENDBRANCH   3   4
ENDBRANCH   6   3
BRANCH   6   7
ATOM      7  C   UNL     1      -3.756   1.428  24.690  0.00  0.00    +0.069 C 
BRANCH   7   8
ATOM      8  C   UNL     1      -2.971   1.182  24.762  0.00  0.00    +0.102 A 
ATOM      9  N   UNL     1      -2.343   1.637  25.043  0.00  0.00    -0.082 NA
ATOM     10  O   UNL     1      -1.661   1.173  25.021  0.00  0.00    -0.356 OA
ATOM     11  C   UNL     1      -1.868   0.431  24.726  0.00  0.00    +0.184 A 
ATOM     15  C   UNL     1      -2.678   0.436  24.566  0.00  0.00    +0.056 A 
BRANCH  11  12
ATOM     12  C   UNL     1      -1.355  -0.206  24.612  0.00  0.00    +0.209 C 
BRANCH  12  13
ATOM     13  O   UNL     1      -1.068  -0.626  25.261  0.00  0.00    -0.343 OA
ATOM     14  C   UNL     1      -0.593  -1.290  25.147  0.00  0.00    +0.175 C 
ENDBRANCH  12  13
ENDBRANCH  11  12
ENDBRANCH   7   8
ENDBRANCH   6   7
TORSDOF 7
ENDMDL
MODEL 5
REMARK VINA RESULT:      -6.5      2.562      3.957
REMARK  Name = 
REMARK  7 active torsions:
REMARK  status: ('A' for Active; 'I' for Inactive)
REMARK    1  A    between atoms: C_2  and  N_3
REMARK    2  A    between atoms: N_3  and  C_4
REMARK    3  A    between atoms: N_3  and  C_6
REMARK    4  A    between atoms: C_6  and  C_7
REMARK    5  A    between atoms: C_7  and  C_8
REMARK    6  A    between atoms: C_11  and  C_12
REMARK    7  A    between atoms: C_12  and  O_13
REMARK                            x       y       z     vdW  Elec       q    Type
REMARK                         _______ _______ _______ _____ _____    ______ ____
ROOT
ATOM      6  C   UNL     1      -1.611   3.672  25.267  0.00  0.00    +0.106 C 
ATOM     16  C   UNL     1      -1.099   4.313  25.184  0.00  0.00    +0.160 C 
ATOM     17  O   UNL     1      -1.739   4.832  25.228  0.00  0.00    -0.351 OA
ATOM     18  C   UNL     1      -2.252   4.190  25.311  0.00  0.00    +0.160 C 
ENDROOT
BRANCH   6   3
ATOM      3  N   UNL     1      -0.971   3.154  25.222  0.00  0.00    -0.271 NA
BRANCH   3   2
ATOM      1  C   UNL     1       0.006   2.570  26.086  0.00  0.00    +0.019 C 
ATOM      2  C   UNL     1      -0.782   2.675  25.866  0.00  0.00    +0.072 C 
ENDBRANCH   3   2
BRANCH   3   4
ATOM      4  C   UNL     1      -0.519   3.115  24.533  0.00  0.00    +0.072 C 
ATOM      5  C   UNL     1      -0.041   2.459  24.388  0.00  0.00    +0.019 C 
ENDBRANCH   3   4
ENDBRANCH   6   3
BRANCH   6   7
ATOM      7  C   UNL     1      -2.123   3.031  25.349  0.00  0.00    +0.069 C 
BRANCH   7   8
ATOM      8  C   UNL     1      -2.876   3.059  25.012  0.00  0.00    +0.102 A 
ATOM      9  N   UNL     1      -3.053   3.275  24.236  0.00  0.00    -0.082 NA
ATOM     10  O   UNL     1      -3.871   3.225  24.137  0.00  0.00    -0.356 OA
ATOM     11  C   UNL     1      -4.199   2.978  24.852  0.00  0.00    +0.184 A 
ATOM     15  C   UNL     1      -3.585   2.875  25.393  0.00  0.00    +0.056 A 
BRANCH  11  12
ATOM     12  C   UNL     1      -5.002   2.856  25.001  0.00  0.00    +0.209 C 
BRANCH  12  13
ATOM     13  O   UNL     1      -5.359   2.146  24.777  0.00  0.00    -0.343 OA
ATOM     14  C   UNL     1      -6.127   1.975  25.021  0.00  0.00    +0.175 C 
ENDBRANCH  12  13
ENDBRANCH  11  12
ENDBRANCH   7   8
ENDBRANCH   6   7
TORSDOF 7
ENDMDL
