MODEL 1
REMARK VINA RESULT:      -8.8      0.000      0.000
REMARK  Name = 
REMARK  3 active torsions:
REMARK  status: ('A' for Active; 'I' for Inactive)
REMARK    1  A    between atoms: C_4  and  C_6
REMARK    2  A    between atoms: C_6  and  O_7
REMARK    3  A    between atoms: O_7  and  C_8
REMARK                            x       y       z     vdW  Elec       q    Type
REMARK                         _______ _______ _______ _____ _____    ______ ____
ROOT
ATOM      8  C   UNL     1      -3.979   1.192  24.549  0.00  0.00    +0.165 C 
ATOM      9  C   UNL     1      -4.695   1.482  24.840  0.00  0.00    +0.173 C 
ATOM     10  O   UNL     1      -4.853   2.220  25.173  0.00  0.00    -0.349 OA
ATOM     11  C   UNL     1      -4.336   2.851  25.295  0.00  0.00    +0.164 C 
ATOM     12  C   UNL     1      -3.533   2.900  25.116  0.00  0.00    +0.127 C 
ATOM     13  N   UNL     1      -3.047   2.329  24.769  0.00  0.00    -0.259 N 
ATOM     14  C   UNL     1      -3.246   1.570  24.517  0.00  0.00    +0.127 C 
ATOM     15  C   UNL     1      -2.259   2.547  24.661  0.00  0.00    +0.307 C 
ATOM     16  O   UNL     1      -1.728   2.018  24.319  0.00  0.00    -0.252 OA
ATOM     17  N   UNL     1      -2.003   3.296  24.895  0.00  0.00    -0.259 N 
ATOM     18  C   UNL     1      -2.534   3.827  25.237  0.00  0.00    +0.127 C 
ATOM     19  C   UNL     1      -2.277   4.575  25.470  0.00  0.00    +0.164 C 
ATOM     20  O   UNL     1      -1.489   4.793  25.362  0.00  0.00    -0.350 OA
ATOM     21  C   UNL     1      -0.957   4.263  25.020  0.00  0.00    +0.164 C 
ATOM     22  C   UNL     1      -1.215   3.514  24.786  0.00  0.00    +0.127 C 
ENDROOT
BRANCH   8   7
ATOM      7  O   UNL     1      -4.000   0.424  24.249  0.00  0.00    -0.343 OA
BRANCH   7   6
ATOM      6  C   UNL     1      -3.955  -0.221  24.761  0.00  0.00    +0.227 C 
BRANCH   6   4
ATOM      1  C   UNL     1      -3.632  -2.375  24.631  0.00  0.00    +0.115 C 
ATOM      2  N   UNL     1      -3.664  -1.609  24.934  0.00  0.00    -0.274 N 
ATOM      3  C   UNL     1      -3.436  -1.464  25.713  0.00  0.00    +0.115 C 
ATOM      4  C   UNL     1      -3.923  -0.987  24.458  0.00  0.00    +0.256 C 
ATOM      5  O   UNL     1      -4.152  -1.132  23.679  0.00  0.00    -0.272 OA
ENDBRANCH   6   4
ENDBRANCH   7   6
ENDBRANCH   8   7
TORSDOF 3
ENDMDL
MODEL 2
REMARK VINA RESULT:      -8.4      1.414      4.935
REMARK  Name = 
REMARK  3 active torsions:
REMARK  status: ('A' for Active; 'I' for Inactive)
REMARK    1  A    between atoms: C_4  and  C_6
REMARK    2  A    between atoms: C_6  and  O_7
REMARK    3  A    between atoms: O_7  and  C_8
REMARK                            x       y       z     vdW  Elec       q    Type
REMARK                         _______ _______ _______ _____ _____    ______ ____
ROOT
ATOM      8  C   UNL     1      -1.520   1.274  24.944  0.00  0.00    +0.165 C 
ATOM      9  C   UNL     1      -0.978   0.993  25.499  0.00  0.00    +0.173 C 
ATOM     10  O   UNL     1      -0.932   0.242  25.838  0.00  0.00    -0.349 OA
ATOM     11  C   UNL     1      -1.417  -0.413  25.706  0.00  0.00    +0.164 C 
ATOM     12  C   UNL     1      -2.067  -0.478  25.202  0.00  0.00    +0.127 C 
ATOM     13  N   UNL     1      -2.393   0.094  24.706  0.00  0.00    -0.259 N 
ATOM     14  C   UNL     1      -2.150   0.874  24.591  0.00  0.00    +0.127 C 
ATOM     15  C   UNL     1      -3.049  -0.144  24.267  0.00  0.00    +0.307 C 
ATOM     16  O   UNL     1      -3.417   0.386  23.754  0.00  0.00    -0.252 OA
ATOM     17  N   UNL     1      -3.337  -0.913  24.341  0.00  0.00    -0.259 N 
ATOM     18  C   UNL     1      -2.970  -1.445  24.854  0.00  0.00    +0.127 C 
ATOM     19  C   UNL     1      -3.259  -2.214  24.928  0.00  0.00    +0.164 C 
ATOM     20  O   UNL     1      -3.914  -2.453  24.489  0.00  0.00    -0.350 OA
ATOM     21  C   UNL     1      -4.283  -1.922  23.976  0.00  0.00    +0.164 C 
ATOM     22  C   UNL     1      -3.994  -1.152  23.902  0.00  0.00    +0.127 C 
ENDROOT
BRANCH   8   7
ATOM      7  O   UNL     1      -1.419   2.059  24.711  0.00  0.00    -0.343 OA
BRANCH   7   6
ATOM      6  C   UNL     1      -1.632   2.672  25.220  0.00  0.00    +0.227 C 
BRANCH   6   4
ATOM      1  C   UNL     1      -1.624   4.854  25.222  0.00  0.00    +0.115 C 
ATOM      2  N   UNL     1      -1.822   4.075  25.407  0.00  0.00    -0.274 N 
ATOM      3  C   UNL     1      -2.410   3.921  25.966  0.00  0.00    +0.115 C 
ATOM      4  C   UNL     1      -1.434   3.450  25.035  0.00  0.00    +0.256 C 
ATOM      5  O   UNL     1      -0.846   3.604  24.477  0.00  0.00    -0.272 OA
ENDBRANCH   6   4
ENDBRANCH   7   6
ENDBRANCH   8   7
TORSDOF 3
ENDMDL
MODEL 3
REMARK VINA RESULT:      -8.2      1.626      2.389
REMARK  Name = 
REMARK  3 active torsions:
REMARK  status: ('A' for Active; 'I' for Inactive)
REMARK    1  A    between atoms: C_4  and  C_6
REMARK    2  A    between atoms: C_6  and  O_7
REMARK    3  A    between atoms: O_7  and  C_8
REMARK                            x       y       z     vdW  Elec       q    Type
REMARK                         _______ _______ _______ _____ _____    ______ ____
ROOT
ATOM      8  C   UNL     1      -3.675   0.269  23.944  0.00  0.00    +0.165 C 
ATOM      9  C   UNL     1      -2.946   0.493  23.628  0.00  0.00    +0.173 C 
ATOM     10  O   UNL     1      -2.594   1.239  23.626  0.00  0.00    -0.349 OA
ATOM     11  C   UNL     1      -2.883   1.945  23.940  0.00  0.00    +0.164 C 
ATOM     12  C   UNL     1      -3.596   2.079  24.333  0.00  0.00    +0.127 C 
ATOM     13  N   UNL     1      -4.195   1.541  24.510  0.00  0.00    -0.259 N 
ATOM     14  C   UNL     1      -4.230   0.736  24.337  0.00  0.00    +0.127 C 
ATOM     15  C   UNL     1      -4.846   1.849  24.913  0.00  0.00    +0.307 C 
ATOM     16  O   UNL     1      -5.476   1.357  25.116  0.00  0.00    -0.252 OA
ATOM     17  N   UNL     1      -4.866   2.649  25.112  0.00  0.00    -0.259 N 
ATOM     18  C   UNL     1      -4.236   3.142  24.910  0.00  0.00    +0.127 C 
ATOM     19  C   UNL     1      -4.257   3.941  25.110  0.00  0.00    +0.164 C 
ATOM     20  O   UNL     1      -4.907   4.250  25.512  0.00  0.00    -0.350 OA
ATOM     21  C   UNL     1      -5.538   3.758  25.715  0.00  0.00    +0.164 C 
ATOM     22  C   UNL     1      -5.517   2.957  25.515  0.00  0.00    +0.127 C 
ENDROOT
BRANCH   8   7
ATOM      7  O   UNL     1      -3.873  -0.528  23.856  0.00  0.00    -0.343 OA
BRANCH   7   6
ATOM      6  C   UNL     1      -3.436  -1.108  24.246  0.00  0.00    +0.227 C 
BRANCH   6   4
ATOM      1  C   UNL     1      -3.447  -3.272  24.525  0.00  0.00    +0.115 C 
ATOM      2  N   UNL     1      -3.208  -2.484  24.557  0.00  0.00    -0.274 N 
ATOM      3  C   UNL     1      -2.501  -2.282  24.931  0.00  0.00    +0.115 C 
ATOM      4  C   UNL     1      -3.675  -1.896  24.214  0.00  0.00    +0.256 C 
ATOM      5  O   UNL     1      -4.382  -2.097  23.840  0.00  0.00    -0.272 OA
ENDBRANCH   6   4
ENDBRANCH   7   6
ENDBRANCH   8   7
TORSDOF 3
ENDMDL
MODEL 4
REMARK VINA RESULT:      -8.1      2.021      4.034
REMARK  Name = 
REMARK  3 active torsions:
REMARK  status: ('A' for Active; 'I' for Inactive)
REMARK    1  A    between atoms: C_4  and  C_6
REMARK    2  A    between atoms: C_6  and  O_7
REMARK    3  A    between atoms: O_7  and  C_8
REMARK                            x       y       z     vdW  Elec       q    Type
REMARK                         _______ _______ _______ _____ _____    ______ ____
ROOT
ATOM      8  C   UNL     1      -3.224   1.631  23.965  0.00  0.00    +0.165 C 
ATOM      9  C   UNL     1      -2.793   2.115  23.454  0.00  0.00    +0.173 C 
ATOM     10  O   UNL     1      -2.011   2.032  23.206  0.00  0.00    -0.349 OA
ATOM     11  C   UNL     1      -1.466   1.446  23.408  0.00  0.00    +0.164 C 
ATOM     12  C   UNL     1      -1.570   0.798  23.907  0.00  0.00    +0.127 C 
ATOM     13  N   UNL     1      -2.243   0.575  24.328  0.00  0.00    -0.259 N 
ATOM     14  C   UNL     1      -2.979   0.946  24.354  0.00  0.00    +0.127 C 
ATOM     15  C   UNL     1      -2.170  -0.109  24.784  0.00  0.00    +0.307 C 
ATOM     16  O   UNL     1      -2.811  -0.379  25.227  0.00  0.00    -0.252 OA
ATOM     17  N   UNL     1      -1.456  -0.521  24.797  0.00  0.00    -0.259 N 
ATOM     18  C   UNL     1      -0.815  -0.251  24.355  0.00  0.00    +0.127 C 
ATOM     19  C   UNL     1      -0.101  -0.665  24.368  0.00  0.00    +0.164 C 
ATOM     20  O   UNL     1      -0.028  -1.348  24.823  0.00  0.00    -0.350 OA
ATOM     21  C   UNL     1      -0.670  -1.619  25.266  0.00  0.00    +0.164 C 
ATOM     22  C   UNL     1      -1.384  -1.205  25.253  0.00  0.00    +0.127 C 
ENDROOT
BRANCH   8   7
ATOM      7  O   UNL     1      -4.004   1.864  24.106  0.00  0.00    -0.343 OA
BRANCH   7   6
ATOM      6  C   UNL     1      -4.161   2.496  24.611  0.00  0.00    +0.227 C 
BRANCH   6   4
ATOM      1  C   UNL     1      -5.854   3.383  25.664  0.00  0.00    +0.115 C 
ATOM      2  N   UNL     1      -5.083   3.243  25.407  0.00  0.00    -0.274 N 
ATOM      3  C   UNL     1      -4.463   3.708  25.688  0.00  0.00    +0.115 C 
ATOM      4  C   UNL     1      -4.932   2.636  24.868  0.00  0.00    +0.256 C 
ATOM      5  O   UNL     1      -5.552   2.170  24.587  0.00  0.00    -0.272 OA
ENDBRANCH   6   4
ENDBRANCH   7   6
ENDBRANCH   8   7
TORSDOF 3
ENDMDL
MODEL 5
REMARK VINA RESULT:      -7.9      1.781      3.156
REMARK  Name = 
REMARK  3 active torsions:
REMARK  status: ('A' for Active; 'I' for Inactive)
REMARK    1  A    between atoms: C_4  and  C_6
REMARK    2  A    between atoms: C_6  and  O_7
REMARK    3  A    between atoms: O_7  and  C_8
REMARK                            x       y       z     vdW  Elec       q    Type
REMARK                         _______ _______ _______ _____ _____    ______ ____
ROOT
ATOM      8  C   UNL     1      -1.762   2.115  24.367  0.00  0.00    +0.165 C 
ATOM      9  C   UNL     1      -1.352   2.795  24.591  0.00  0.00    +0.173 C 
ATOM     10  O   UNL     1      -1.644   3.472  24.960  0.00  0.00    -0.349 OA
ATOM     11  C   UNL     1      -2.418   3.638  25.196  0.00  0.00    +0.164 C 
ATOM     12  C   UNL     1      -3.089   3.166  25.121  0.00  0.00    +0.127 C 
ATOM     13  N   UNL     1      -3.155   2.413  24.792  0.00  0.00    -0.259 N 
ATOM     14  C   UNL     1      -2.565   1.945  24.456  0.00  0.00    +0.127 C 
ATOM     15  C   UNL     1      -3.912   2.083  24.799  0.00  0.00    +0.307 C 
ATOM     16  O   UNL     1      -4.037   1.332  24.483  0.00  0.00    -0.252 OA
ATOM     17  N   UNL     1      -4.542   2.506  25.122  0.00  0.00    -0.259 N 
ATOM     18  C   UNL     1      -4.417   3.257  25.438  0.00  0.00    +0.127 C 
ATOM     19  C   UNL     1      -5.048   3.679  25.761  0.00  0.00    +0.164 C 
ATOM     20  O   UNL     1      -5.804   3.351  25.768  0.00  0.00    -0.350 OA
ATOM     21  C   UNL     1      -5.930   2.598  25.452  0.00  0.00    +0.164 C 
ATOM     22  C   UNL     1      -5.298   2.176  25.129  0.00  0.00    +0.127 C 
ENDROOT
BRANCH   8   7
ATOM      7  O   UNL     1      -1.309   1.527  24.005  0.00  0.00    -0.343 OA
BRANCH   7   6
ATOM      6  C   UNL     1      -0.965   0.932  24.461  0.00  0.00    +0.227 C 
BRANCH   6   4
ATOM      1  C   UNL     1       0.048  -0.966  24.099  0.00  0.00    +0.115 C 
ATOM      2  N   UNL     1      -0.414  -0.386  24.459  0.00  0.00    -0.274 N 
ATOM      3  C   UNL     1      -0.786  -0.543  25.178  0.00  0.00    +0.115 C 
ATOM      4  C   UNL     1      -0.504   0.352  24.100  0.00  0.00    +0.256 C 
ATOM      5  O   UNL     1      -0.131   0.509  23.381  0.00  0.00    -0.272 OA
ENDBRANCH   6   4
ENDBRANCH   7   6
ENDBRANCH   8   7
TORSDOF 3
ENDMDL
MODEL 6
REMARK VINA RESULT:      -7.9      1.661      2.679
REMARK  Name = 
REMARK  3 active torsions:
REMARK  status: ('A' for Active; 'I' for Inactive)
REMARK    1  A    between atoms: C_4  and  C_6
REMARK    2  A    between atoms: C_6  and  O_7
REMARK    3  A    between atoms: O_7  and  C_8
REMARK                            x       y       z     vdW  Elec       q    Type
REMARK                         _______ _______ _______ _____ _____    ______ ____
ROOT
ATOM      8  C   UNL     1      -2.613   0.676  24.238  0.00  0.00    +0.165 C 
ATOM      9  C   UNL     1      -1.986   1.165  24.016  0.00  0.00    +0.173 C 
ATOM     10  O   UNL     1      -1.939   1.988  24.049  0.00  0.00    -0.349 OA
ATOM     11  C   UNL     1      -2.508   2.526  24.312  0.00  0.00    +0.164 C 
ATOM     12  C   UNL     1      -3.262   2.373  24.607  0.00  0.00    +0.127 C 
ATOM     13  N   UNL     1      -3.636   1.645  24.711  0.00  0.00    -0.259 N 
ATOM     14  C   UNL     1      -3.347   0.891  24.547  0.00  0.00    +0.127 C 
ATOM     15  C   UNL     1      -4.400   1.676  25.021  0.00  0.00    +0.307 C 
ATOM     16  O   UNL     1      -4.823   0.979  25.148  0.00  0.00    -0.252 OA
ATOM     17  N   UNL     1      -4.741   2.404  25.205  0.00  0.00    -0.259 N 
ATOM     18  C   UNL     1      -4.319   3.102  25.078  0.00  0.00    +0.127 C 
ATOM     19  C   UNL     1      -4.661   3.830  25.262  0.00  0.00    +0.164 C 
ATOM     20  O   UNL     1      -5.424   3.861  25.572  0.00  0.00    -0.350 OA
ATOM     21  C   UNL     1      -5.847   3.164  25.698  0.00  0.00    +0.164 C 
ATOM     22  C   UNL     1      -5.505   2.435  25.514  0.00  0.00    +0.127 C 
ENDROOT
BRANCH   8   7
ATOM      7  O   UNL     1      -2.488  -0.133  24.137  0.00  0.00    -0.343 OA
BRANCH   7   6
ATOM      6  C   UNL     1      -1.939  -0.528  24.608  0.00  0.00    +0.227 C 
BRANCH   6   4
ATOM      1  C   UNL     1      -1.238  -2.569  24.930  0.00  0.00    +0.115 C 
ATOM      2  N   UNL     1      -1.263  -1.745  24.928  0.00  0.00    -0.274 N 
ATOM      3  C   UNL     1      -0.635  -1.313  25.245  0.00  0.00    +0.115 C 
ATOM      4  C   UNL     1      -1.914  -1.352  24.609  0.00  0.00    +0.256 C 
ATOM      5  O   UNL     1      -2.541  -1.784  24.292  0.00  0.00    -0.272 OA
ENDBRANCH   6   4
ENDBRANCH   7   6
ENDBRANCH   8   7
TORSDOF 3
ENDMDL
MODEL 7
REMARK VINA RESULT:      -7.9      1.155      1.951
REMARK  Name = 
REMARK  3 active torsions:
REMARK  status: ('A' for Active; 'I' for Inactive)
REMARK    1  A    between atoms: C_4  and  C_6
REMARK    2  A    between atoms: C_6  and  O_7
REMARK    3  A    between atoms: O_7  and  C_8
REMARK                            x       y       z     vdW  Elec       q    Type
REMARK                         _______ _______ _______ _____ _____    ______ ____
ROOT
ATOM      8  C   UNL     1      -2.128   0.665  24.276  0.00  0.00    +0.165 C 
ATOM      9  C   UNL     1      -1.375   0.428  24.036  0.00  0.00    +0.173 C 
ATOM     10  O   UNL     1      -0.682   0.875  24.001  0.00  0.00    -0.349 OA
ATOM     11  C   UNL     1      -0.572   1.669  24.196  0.00  0.00    +0.164 C 
ATOM     12  C   UNL     1      -1.126   2.212  24.475  0.00  0.00    +0.127 C 
ATOM     13  N   UNL     1      -1.929   2.095  24.627  0.00  0.00    -0.259 N 
ATOM     14  C   UNL     1      -2.374   1.407  24.538  0.00  0.00    +0.127 C 
ATOM     15  C   UNL     1      -2.340   2.754  24.905  0.00  0.00    +0.307 C 
ATOM     16  O   UNL     1      -3.145   2.697  25.074  0.00  0.00    -0.252 OA
ATOM     17  N   UNL     1      -1.946   3.471  25.013  0.00  0.00    -0.259 N 
ATOM     18  C   UNL     1      -1.140   3.529  24.844  0.00  0.00    +0.127 C 
ATOM     19  C   UNL     1      -0.747   4.245  24.952  0.00  0.00    +0.164 C 
ATOM     20  O   UNL     1      -1.157   4.904  25.230  0.00  0.00    -0.350 OA
ATOM     21  C   UNL     1      -1.963   4.847  25.399  0.00  0.00    +0.164 C 
ATOM     22  C   UNL     1      -2.357   4.130  25.291  0.00  0.00    +0.127 C 
ENDROOT
BRANCH   8   7
ATOM      7  O   UNL     1      -2.712   0.082  24.248  0.00  0.00    -0.343 OA
BRANCH   7   6
ATOM      6  C   UNL     1      -2.547  -0.680  24.514  0.00  0.00    +0.227 C 
BRANCH   6   4
ATOM      1  C   UNL     1      -3.553  -2.609  24.680  0.00  0.00    +0.115 C 
ATOM      2  N   UNL     1      -2.956  -2.042  24.656  0.00  0.00    -0.274 N 
ATOM      3  C   UNL     1      -2.168  -2.269  24.751  0.00  0.00    +0.115 C 
ATOM      4  C   UNL     1      -3.144  -1.248  24.538  0.00  0.00    +0.256 C 
ATOM      5  O   UNL     1      -3.932  -1.021  24.443  0.00  0.00    -0.272 OA
ENDBRANCH   6   4
ENDBRANCH   7   6
ENDBRANCH   8   7
TORSDOF 3
ENDMDL
MODEL 8
REMARK VINA RESULT:      -7.4     16.039     18.538
REMARK  Name = 
REMARK  3 active torsions:
REMARK  status: ('A' for Active; 'I' for Inactive)
REMARK    1  A    between atoms: C_4  and  C_6
REMARK    2  A    between atoms: C_6  and  O_7
REMARK    3  A    between atoms: O_7  and  C_8
REMARK                            x       y       z     vdW  Elec       q    Type
REMARK                         _______ _______ _______ _____ _____    ______ ____
ROOT
ATOM      8  C   UNL     1      13.971   7.186  19.122  0.00  0.00    +0.165 C 
ATOM      9  C   UNL     1      13.855   7.764  18.544  0.00  0.00    +0.173 C 
ATOM     10  O   UNL     1      13.229   8.296  18.467  0.00  0.00    -0.349 OA
ATOM     11  C   UNL     1      12.564   8.382  18.948  0.00  0.00    +0.164 C 
ATOM     12  C   UNL     1      12.362   7.957  19.625  0.00  0.00    +0.127 C 
ATOM     13  N   UNL     1      12.773   7.341  19.988  0.00  0.00    -0.259 N 
ATOM     14  C   UNL     1      13.489   6.999  19.765  0.00  0.00    +0.127 C 
ATOM     15  C   UNL     1      12.422   7.027  20.666  0.00  0.00    +0.307 C 
ATOM     16  O   UNL     1      12.788   6.409  21.071  0.00  0.00    -0.252 OA
ATOM     17  N   UNL     1      11.705   7.330  20.937  0.00  0.00    -0.259 N 
ATOM     18  C   UNL     1      11.338   7.948  20.532  0.00  0.00    +0.127 C 
ATOM     19  C   UNL     1      10.620   8.251  20.803  0.00  0.00    +0.164 C 
ATOM     20  O   UNL     1      10.269   7.937  21.480  0.00  0.00    -0.350 OA
ATOM     21  C   UNL     1      10.636   7.319  21.886  0.00  0.00    +0.164 C 
ATOM     22  C   UNL     1      11.354   7.016  21.614  0.00  0.00    +0.127 C 
ENDROOT
BRANCH   8   7
ATOM      7  O   UNL     1      14.659   6.738  19.046  0.00  0.00    -0.343 OA
BRANCH   7   6
ATOM      6  C   UNL     1      15.368   7.013  19.365  0.00  0.00    +0.227 C 
BRANCH   6   4
ATOM      1  C   UNL     1      17.405   6.300  19.688  0.00  0.00    +0.115 C 
ATOM      2  N   UNL     1      16.723   6.760  19.741  0.00  0.00    -0.274 N 
ATOM      3  C   UNL     1      16.713   7.429  20.225  0.00  0.00    +0.115 C 
ATOM      4  C   UNL     1      16.050   6.553  19.311  0.00  0.00    +0.256 C 
ATOM      5  O   UNL     1      16.060   5.885  18.827  0.00  0.00    -0.272 OA
ENDBRANCH   6   4
ENDBRANCH   7   6
ENDBRANCH   8   7
TORSDOF 3
ENDMDL
MODEL 9
REMARK VINA RESULT:      -7.4     16.054     18.461
REMARK  Name = 
REMARK  3 active torsions:
REMARK  status: ('A' for Active; 'I' for Inactive)
REMARK    1  A    between atoms: C_4  and  C_6
REMARK    2  A    between atoms: C_6  and  O_7
REMARK    3  A    between atoms: O_7  and  C_8
REMARK                            x       y       z     vdW  Elec       q    Type
REMARK                         _______ _______ _______ _____ _____    ______ ____
ROOT
ATOM      8  C   UNL     1      12.713   6.915  19.783  0.00  0.00    +0.165 C 
ATOM      9  C   UNL     1      12.611   7.187  19.011  0.00  0.00    +0.173 C 
ATOM     10  O   UNL     1      13.188   7.358  18.446  0.00  0.00    -0.349 OA
ATOM     11  C   UNL     1      14.008   7.300  18.514  0.00  0.00    +0.164 C 
ATOM     12  C   UNL     1      14.454   7.057  19.163  0.00  0.00    +0.127 C 
ATOM     13  N   UNL     1      14.191   6.811  19.905  0.00  0.00    -0.259 N 
ATOM     14  C   UNL     1      13.416   6.748  20.181  0.00  0.00    +0.127 C 
ATOM     15  C   UNL     1      14.780   6.600  20.443  0.00  0.00    +0.307 C 
ATOM     16  O   UNL     1      14.576   6.346  21.200  0.00  0.00    -0.252 OA
ATOM     17  N   UNL     1      15.573   6.643  20.222  0.00  0.00    -0.259 N 
ATOM     18  C   UNL     1      15.779   6.897  19.464  0.00  0.00    +0.127 C 
ATOM     19  C   UNL     1      16.572   6.940  19.244  0.00  0.00    +0.164 C 
ATOM     20  O   UNL     1      17.162   6.729  19.781  0.00  0.00    -0.350 OA
ATOM     21  C   UNL     1      16.957   6.475  20.539  0.00  0.00    +0.164 C 
ATOM     22  C   UNL     1      16.163   6.432  20.759  0.00  0.00    +0.127 C 
ENDROOT
BRANCH   8   7
ATOM      7  O   UNL     1      12.019   6.795  20.214  0.00  0.00    -0.343 OA
BRANCH   7   6
ATOM      6  C   UNL     1      11.655   7.429  20.595  0.00  0.00    +0.227 C 
BRANCH   6   4
ATOM      1  C   UNL     1      10.148   7.783  22.133  0.00  0.00    +0.115 C 
ATOM      2  N   UNL     1      10.731   7.922  21.567  0.00  0.00    -0.274 N 
ATOM      3  C   UNL     1      10.975   8.694  21.407  0.00  0.00    +0.115 C 
ATOM      4  C   UNL     1      11.072   7.290  21.161  0.00  0.00    +0.256 C 
ATOM      5  O   UNL     1      10.828   6.518  21.321  0.00  0.00    -0.272 OA
ENDBRANCH   6   4
ENDBRANCH   7   6
ENDBRANCH   8   7
TORSDOF 3
ENDMDL
MODEL 10
REMARK VINA RESULT:      -7.3     17.676     19.146
REMARK  Name = 
REMARK  3 active torsions:
REMARK  status: ('A' for Active; 'I' for Inactive)
REMARK    1  A    between atoms: C_4  and  C_6
REMARK    2  A    between atoms: C_6  and  O_7
REMARK    3  A    between atoms: O_7  and  C_8
REMARK                            x       y       z     vdW  Elec       q    Type
REMARK                         _______ _______ _______ _____ _____    ______ ____
ROOT
ATOM      8  C   UNL     1      13.177   6.984  19.348  0.00  0.00    +0.165 C 
ATOM      9  C   UNL     1      12.782   7.022  20.072  0.00  0.00    +0.173 C 
ATOM     10  O   UNL     1      13.096   6.968  20.833  0.00  0.00    -0.349 OA
ATOM     11  C   UNL     1      13.883   6.863  21.058  0.00  0.00    +0.164 C 
ATOM     12  C   UNL     1      14.549   6.786  20.579  0.00  0.00    +0.127 C 
ATOM     13  N   UNL     1      14.594   6.795  19.755  0.00  0.00    -0.259 N 
ATOM     14  C   UNL     1      13.983   6.883  19.208  0.00  0.00    +0.127 C 
ATOM     15  C   UNL     1      15.350   6.703  19.437  0.00  0.00    +0.307 C 
ATOM     16  O   UNL     1      15.455   6.704  18.619  0.00  0.00    -0.252 OA
ATOM     17  N   UNL     1      15.999   6.612  19.937  0.00  0.00    -0.259 N 
ATOM     18  C   UNL     1      15.894   6.611  20.755  0.00  0.00    +0.127 C 
ATOM     19  C   UNL     1      16.544   6.519  21.254  0.00  0.00    +0.164 C 
ATOM     20  O   UNL     1      17.299   6.427  20.936  0.00  0.00    -0.350 OA
ATOM     21  C   UNL     1      17.405   6.428  20.118  0.00  0.00    +0.164 C 
ATOM     22  C   UNL     1      16.755   6.520  19.618  0.00  0.00    +0.127 C 
ENDROOT
BRANCH   8   7
ATOM      7  O   UNL     1      12.702   7.056  18.678  0.00  0.00    -0.343 OA
BRANCH   7   6
ATOM      6  C   UNL     1      12.352   7.780  18.496  0.00  0.00    +0.227 C 
BRANCH   6   4
ATOM      1  C   UNL     1      11.074   8.633  16.946  0.00  0.00    +0.115 C 
ATOM      2  N   UNL     1      11.469   8.534  17.663  0.00  0.00    -0.274 N 
ATOM      3  C   UNL     1      11.376   9.091  18.265  0.00  0.00    +0.115 C 
ATOM      4  C   UNL     1      11.957   7.879  17.779  0.00  0.00    +0.256 C 
ATOM      5  O   UNL     1      12.049   7.322  17.177  0.00  0.00    -0.272 OA
ENDBRANCH   6   4
ENDBRANCH   7   6
ENDBRANCH   8   7
TORSDOF 3
ENDMDL
