MODEL 1
REMARK VINA RESULT:     -14.5      0.000      0.000
REMARK  Name = 
REMARK  6 active torsions:
REMARK  status: ('A' for Active; 'I' for Inactive)
REMARK    1  A    between atoms: C_2  and  N_3
REMARK    2  A    between atoms: C_2  and  C_27
REMARK    3  A    between atoms: C_4  and  O_6
REMARK    4  A    between atoms: O_6  and  C_7
REMARK    5  A    between atoms: C_9  and  C_12
REMARK    6  A    between atoms: N_15  and  C_19
REMARK                            x       y       z     vdW  Elec       q    Type
REMARK                         _______ _______ _______ _____ _____    ______ ____
ROOT
ATOM      7  C   UNL     1      -3.800   3.548  24.912  0.00  0.00    +0.193 C 
ATOM      8  C   UNL     1      -3.846   2.801  25.260  0.00  0.00    +0.057 C 
ATOM      9  C   UNL     1      -4.311   2.322  24.775  0.00  0.00    +0.050 C 
ATOM     10  C   UNL     1      -4.553   2.772  24.128  0.00  0.00    -0.023 C 
ATOM     11  C   UNL     1      -4.237   3.530  24.213  0.00  0.00    +0.012 C 
ENDROOT
BRANCH   9  12
ATOM     12  C   UNL     1      -4.501   1.531  24.914  0.00  0.00    +0.011 A 
ATOM     13  C   UNL     1      -4.019   0.881  24.753  0.00  0.00    +0.058 A 
ATOM     14  C   UNL     1      -3.263   0.908  24.425  0.00  0.00    +0.052 C 
ATOM     15  N   UNL     1      -4.426   0.200  24.978  0.00  0.00    -0.234 N 
ATOM     16  N   UNL     1      -5.160   0.429  25.278  0.00  0.00    -0.170 NA
ATOM     17  C   UNL     1      -5.206   1.252  25.239  0.00  0.00    +0.077 A 
ATOM     18  C   UNL     1      -5.845   1.714  25.481  0.00  0.00    +0.054 C 
BRANCH  15  19
ATOM     19  C   UNL     1      -4.149  -0.574  24.914  0.00  0.00    +0.083 A 
ATOM     20  C   UNL     1      -3.681  -0.896  25.513  0.00  0.00    +0.019 A 
ATOM     21  C   UNL     1      -3.404  -1.670  25.449  0.00  0.00    -0.002 A 
ATOM     22  C   UNL     1      -3.594  -2.124  24.786  0.00  0.00    -0.011 A 
ATOM     23  C   UNL     1      -3.317  -2.897  24.722  0.00  0.00    +0.032 C 
ATOM     24  C   UNL     1      -4.062  -1.802  24.187  0.00  0.00    +0.055 A 
ATOM     25 CL   UNL     1      -4.253  -2.255  23.525  0.00  0.00    -0.083 Cl
ATOM     26  C   UNL     1      -4.340  -1.028  24.251  0.00  0.00    +0.030 A 
ENDBRANCH  15  19
ENDBRANCH   9  12
BRANCH   7   6
ATOM      6  O   UNL     1      -3.391   4.198  25.211  0.00  0.00    -0.433 OA
BRANCH   6   4
ATOM      3  N   UNL     1      -2.006   3.951  25.467  0.00  0.00    -0.166 NA
ATOM      4  C   UNL     1      -2.597   4.310  25.017  0.00  0.00    +0.422 C 
ATOM      5  O   UNL     1      -2.394   4.782  24.372  0.00  0.00    -0.225 OA
BRANCH   3   2
ATOM      1  C   UNL     1      -0.948   4.809  25.037  0.00  0.00    +0.028 C 
ATOM      2  C   UNL     1      -1.213   4.064  25.273  0.00  0.00    +0.121 C 
BRANCH   2  27
ATOM     27  C   UNL     1      -0.684   3.431  25.313  0.00  0.00    -0.002 A 
ATOM     28  C   UNL     1      -0.504   3.091  26.043  0.00  0.00    -0.003 A 
ATOM     29  C   UNL     1       0.024   2.459  26.083  0.00  0.00    -0.000 A 
ATOM     30  C   UNL     1       0.373   2.167  25.394  0.00  0.00    -0.000 A 
ATOM     31  C   UNL     1       0.193   2.509  24.665  0.00  0.00    -0.000 A 
ATOM     32  C   UNL     1      -0.336   3.141  24.625  0.00  0.00    -0.003 A 
ENDBRANCH   2  27
ENDBRANCH   3   2
ENDBRANCH   6   4
ENDBRANCH   7   6
TORSDOF 6
ENDMDL
MODEL 2
REMARK VINA RESULT:     -13.0      1.116      1.695
REMARK  Name = 
REMARK  6 active torsions:
REMARK  status: ('A' for Active; 'I' for Inactive)
REMARK    1  A    between atoms: C_2  and  N_3
REMARK    2  A    between atoms: C_2  and  C_27
REMARK    3  A    between atoms: C_4  and  O_6
REMARK    4  A    between atoms: O_6  and  C_7
REMARK    5  A    between atoms: C_9  and  C_12
REMARK    6  A    between atoms: N_15  and  C_19
REMARK                            x       y       z     vdW  Elec       q    Type
REMARK                         _______ _______ _______ _____ _____    ______ ____
ROOT
ATOM      7  C   UNL     1      -4.714   2.948  25.034  0.00  0.00    +0.193 C 
ATOM      8  C   UNL     1      -4.131   2.407  24.813  0.00  0.00    +0.057 C 
ATOM      9  C   UNL     1      -4.507   1.713  24.571  0.00  0.00    +0.050 C 
ATOM     10  C   UNL     1      -5.321   1.826  24.643  0.00  0.00    -0.023 C 
ATOM     11  C   UNL     1      -5.449   2.589  24.929  0.00  0.00    +0.012 C 
ENDROOT
BRANCH   9  12
ATOM     12  C   UNL     1      -4.133   1.028  24.305  0.00  0.00    +0.011 A 
ATOM     13  C   UNL     1      -4.188   0.280  24.650  0.00  0.00    +0.058 A 
ATOM     14  C   UNL     1      -4.625   0.087  25.323  0.00  0.00    +0.052 C 
ATOM     15  N   UNL     1      -3.727  -0.240  24.205  0.00  0.00    -0.234 N 
ATOM     16  N   UNL     1      -3.389   0.186  23.584  0.00  0.00    -0.170 NA
ATOM     17  C   UNL     1      -3.640   0.969  23.646  0.00  0.00    +0.077 A 
ATOM     18  C   UNL     1      -3.433   1.586  23.139  0.00  0.00    +0.054 C 
BRANCH  15  19
ATOM     19  C   UNL     1      -3.624  -1.045  24.354  0.00  0.00    +0.083 A 
ATOM     20  C   UNL     1      -3.071  -1.294  24.914  0.00  0.00    +0.019 A 
ATOM     21  C   UNL     1      -2.968  -2.098  25.063  0.00  0.00    -0.002 A 
ATOM     22  C   UNL     1      -3.417  -2.655  24.652  0.00  0.00    -0.011 A 
ATOM     23  C   UNL     1      -3.313  -3.459  24.801  0.00  0.00    +0.032 C 
ATOM     24  C   UNL     1      -3.969  -2.407  24.092  0.00  0.00    +0.055 A 
ATOM     25 CL   UNL     1      -4.419  -2.963  23.681  0.00  0.00    -0.083 Cl
ATOM     26  C   UNL     1      -4.073  -1.602  23.943  0.00  0.00    +0.030 A 
ENDBRANCH  15  19
ENDBRANCH   9  12
BRANCH   7   6
ATOM      6  O   UNL     1      -4.584   3.713  25.311  0.00  0.00    -0.433 OA
BRANCH   6   4
ATOM      3  N   UNL     1      -3.249   4.215  25.395  0.00  0.00    -0.166 NA
ATOM      4  C   UNL     1      -3.911   3.882  25.757  0.00  0.00    +0.422 C 
ATOM      5  O   UNL     1      -3.901   3.718  26.565  0.00  0.00    -0.225 OA
BRANCH   3   2
ATOM      1  C   UNL     1      -2.630   4.448  26.662  0.00  0.00    +0.028 C 
ATOM      2  C   UNL     1      -2.576   4.384  25.841  0.00  0.00    +0.121 C 
BRANCH   2  27
ATOM     27  C   UNL     1      -1.848   4.489  25.466  0.00  0.00    -0.002 A 
ATOM     28  C   UNL     1      -1.318   3.858  25.412  0.00  0.00    -0.003 A 
ATOM     29  C   UNL     1      -0.590   3.962  25.037  0.00  0.00    -0.000 A 
ATOM     30  C   UNL     1      -0.392   4.697  24.718  0.00  0.00    -0.000 A 
ATOM     31  C   UNL     1      -0.922   5.327  24.773  0.00  0.00    -0.000 A 
ATOM     32  C   UNL     1      -1.650   5.223  25.148  0.00  0.00    -0.003 A 
ENDBRANCH   2  27
ENDBRANCH   3   2
ENDBRANCH   6   4
ENDBRANCH   7   6
TORSDOF 6
ENDMDL
MODEL 3
REMARK VINA RESULT:     -12.4      1.652      3.362
REMARK  Name = 
REMARK  6 active torsions:
REMARK  status: ('A' for Active; 'I' for Inactive)
REMARK    1  A    between atoms: C_2  and  N_3
REMARK    2  A    between atoms: C_2  and  C_27
REMARK    3  A    between atoms: C_4  and  O_6
REMARK    4  A    between atoms: O_6  and  C_7
REMARK    5  A    between atoms: C_9  and  C_12
REMARK    6  A    between atoms: N_15  and  C_19
REMARK                            x       y       z     vdW  Elec       q    Type
REMARK                         _______ _______ _______ _____ _____    ______ ____
ROOT
ATOM      7  C   UNL     1      -0.348   2.466  24.593  0.00  0.00    +0.193 C 
ATOM      8  C   UNL     1      -0.711   1.824  24.223  0.00  0.00    +0.057 C 
ATOM      9  C   UNL     1      -0.464   1.136  24.606  0.00  0.00    +0.050 C 
ATOM     10  C   UNL     1       0.051   1.353  25.213  0.00  0.00    -0.023 C 
ATOM     11  C   UNL     1       0.122   2.175  25.205  0.00  0.00    +0.012 C 
ENDROOT
BRANCH   9  12
ATOM     12  C   UNL     1      -0.692   0.367  24.416  0.00  0.00    +0.011 A 
ATOM     13  C   UNL     1      -1.370  -0.019  24.686  0.00  0.00    +0.058 A 
ATOM     14  C   UNL     1      -1.938   0.296  25.193  0.00  0.00    +0.052 C 
ATOM     15  N   UNL     1      -1.379  -0.777  24.358  0.00  0.00    -0.234 N 
ATOM     16  N   UNL     1      -0.707  -0.859  23.886  0.00  0.00    -0.170 NA
ATOM     17  C   UNL     1      -0.283  -0.152  23.921  0.00  0.00    +0.077 A 
ATOM     18  C   UNL     1       0.426   0.008  23.531  0.00  0.00    +0.054 C 
BRANCH  15  19
ATOM     19  C   UNL     1      -1.958  -1.351  24.481  0.00  0.00    +0.083 A 
ATOM     20  C   UNL     1      -1.794  -2.007  24.955  0.00  0.00    +0.019 A 
ATOM     21  C   UNL     1      -2.373  -2.582  25.078  0.00  0.00    -0.002 A 
ATOM     22  C   UNL     1      -3.116  -2.501  24.728  0.00  0.00    -0.011 A 
ATOM     23  C   UNL     1      -3.695  -3.075  24.851  0.00  0.00    +0.032 C 
ATOM     24  C   UNL     1      -3.280  -1.846  24.255  0.00  0.00    +0.055 A 
ATOM     25 CL   UNL     1      -4.022  -1.765  23.904  0.00  0.00    -0.083 Cl
ATOM     26  C   UNL     1      -2.700  -1.271  24.131  0.00  0.00    +0.030 A 
ENDBRANCH  15  19
ENDBRANCH   9  12
BRANCH   7   6
ATOM      6  O   UNL     1      -0.441   3.259  24.388  0.00  0.00    -0.433 OA
BRANCH   6   4
ATOM      3  N   UNL     1      -1.759   3.765  24.608  0.00  0.00    -0.166 NA
ATOM      4  C   UNL     1      -0.960   3.738  24.813  0.00  0.00    +0.422 C 
ATOM      5  O   UNL     1      -0.681   4.190  25.444  0.00  0.00    -0.225 OA
BRANCH   3   2
ATOM      1  C   UNL     1      -2.013   4.956  25.356  0.00  0.00    +0.028 C 
ATOM      2  C   UNL     1      -2.278   4.244  25.033  0.00  0.00    +0.121 C 
BRANCH   2  27
ATOM     27  C   UNL     1      -3.064   4.012  25.137  0.00  0.00    -0.002 A 
ATOM     28  C   UNL     1      -3.545   3.883  24.479  0.00  0.00    -0.003 A 
ATOM     29  C   UNL     1      -4.330   3.650  24.582  0.00  0.00    -0.000 A 
ATOM     30  C   UNL     1      -4.634   3.547  25.343  0.00  0.00    -0.000 A 
ATOM     31  C   UNL     1      -4.151   3.676  25.999  0.00  0.00    -0.000 A 
ATOM     32  C   UNL     1      -3.367   3.909  25.896  0.00  0.00    -0.003 A 
ENDBRANCH   2  27
ENDBRANCH   3   2
ENDBRANCH   6   4
ENDBRANCH   7   6
TORSDOF 6
ENDMDL
MODEL 4
REMARK VINA RESULT:     -12.3      2.409      4.907
REMARK  Name = 
REMARK  6 active torsions:
REMARK  status: ('A' for Active; 'I' for Inactive)
REMARK    1  A    between atoms: C_2  and  N_3
REMARK    2  A    between atoms: C_2  and  C_27
REMARK    3  A    between atoms: C_4  and  O_6
REMARK    4  A    between atoms: O_6  and  C_7
REMARK    5  A    between atoms: C_9  and  C_12
REMARK    6  A    between atoms: N_15  and  C_19
REMARK                            x       y       z     vdW  Elec       q    Type
REMARK                         _______ _______ _______ _____ _____    ______ ____
ROOT
ATOM      7  C   UNL     1      -0.688   0.592  23.860  0.00  0.00    +0.193 C 
ATOM      8  C   UNL     1      -1.499   0.734  23.792  0.00  0.00    +0.057 C 
ATOM      9  C   UNL     1      -1.617   1.551  23.817  0.00  0.00    +0.050 C 
ATOM     10  C   UNL     1      -0.881   1.913  23.900  0.00  0.00    -0.023 C 
ATOM     11  C   UNL     1      -0.307   1.320  23.926  0.00  0.00    +0.012 C 
ENDROOT
BRANCH   9  12
ATOM     12  C   UNL     1      -2.344   1.936  23.767  0.00  0.00    +0.011 A 
ATOM     13  C   UNL     1      -2.843   2.116  24.399  0.00  0.00    +0.058 A 
ATOM     14  C   UNL     1      -2.701   1.941  25.193  0.00  0.00    +0.052 C 
ATOM     15  N   UNL     1      -3.508   2.501  24.099  0.00  0.00    -0.234 N 
ATOM     16  N   UNL     1      -3.420   2.559  23.280  0.00  0.00    -0.170 NA
ATOM     17  C   UNL     1      -2.702   2.211  23.075  0.00  0.00    +0.077 A 
ATOM     18  C   UNL     1      -2.393   2.147  22.312  0.00  0.00    +0.054 C 
BRANCH  15  19
ATOM     19  C   UNL     1      -4.148   2.778  24.539  0.00  0.00    +0.083 A 
ATOM     20  C   UNL     1      -4.130   3.540  24.858  0.00  0.00    +0.019 A 
ATOM     21  C   UNL     1      -4.770   3.817  25.298  0.00  0.00    -0.002 A 
ATOM     22  C   UNL     1      -5.428   3.335  25.420  0.00  0.00    -0.011 A 
ATOM     23  C   UNL     1      -6.068   3.612  25.860  0.00  0.00    +0.032 C 
ATOM     24  C   UNL     1      -5.446   2.574  25.101  0.00  0.00    +0.055 A 
ATOM     25 CL   UNL     1      -6.103   2.091  25.223  0.00  0.00    -0.083 Cl
ATOM     26  C   UNL     1      -4.806   2.296  24.661  0.00  0.00    +0.030 A 
ENDBRANCH  15  19
ENDBRANCH   9  12
BRANCH   7   6
ATOM      6  O   UNL     1      -0.325  -0.147  23.860  0.00  0.00    -0.433 OA
BRANCH   6   4
ATOM      3  N   UNL     1      -1.120  -1.282  24.212  0.00  0.00    -0.166 NA
ATOM      4  C   UNL     1      -0.551  -0.718  24.411  0.00  0.00    +0.422 C 
ATOM      5  O   UNL     1      -0.208  -0.724  25.161  0.00  0.00    -0.225 OA
BRANCH   3   2
ATOM      1  C   UNL     1      -0.793  -2.149  25.300  0.00  0.00    +0.028 C 
ATOM      2  C   UNL     1      -1.345  -1.852  24.764  0.00  0.00    +0.121 C 
BRANCH   2  27
ATOM     27  C   UNL     1      -2.124  -2.126  24.779  0.00  0.00    -0.002 A 
ATOM     28  C   UNL     1      -2.649  -1.842  25.349  0.00  0.00    -0.003 A 
ATOM     29  C   UNL     1      -3.427  -2.115  25.365  0.00  0.00    -0.000 A 
ATOM     30  C   UNL     1      -3.681  -2.672  24.810  0.00  0.00    -0.000 A 
ATOM     31  C   UNL     1      -3.155  -2.955  24.241  0.00  0.00    -0.000 A 
ATOM     32  C   UNL     1      -2.377  -2.682  24.226  0.00  0.00    -0.003 A 
ENDBRANCH   2  27
ENDBRANCH   3   2
ENDBRANCH   6   4
ENDBRANCH   7   6
TORSDOF 6
ENDMDL
MODEL 5
REMARK VINA RESULT:     -11.7      2.260      4.898
REMARK  Name = 
REMARK  6 active torsions:
REMARK  status: ('A' for Active; 'I' for Inactive)
REMARK    1  A    between atoms: C_2  and  N_3
REMARK    2  A    between atoms: C_2  and  C_27
REMARK    3  A    between atoms: C_4  and  O_6
REMARK    4  A    between atoms: O_6  and  C_7
REMARK    5  A    between atoms: C_9  and  C_12
REMARK    6  A    between atoms: N_15  and  C_19
REMARK                            x       y       z     vdW  Elec       q    Type
REMARK                         _______ _______ _______ _____ _____    ______ ____
ROOT
ATOM      7  C   UNL     1      -4.668   0.318  24.934  0.00  0.00    +0.193 C 
ATOM      8  C   UNL     1      -4.234   0.906  25.318  0.00  0.00    +0.057 C 
ATOM      9  C   UNL     1      -4.373   1.621  24.929  0.00  0.00    +0.050 C 
ATOM     10  C   UNL     1      -4.892   1.474  24.305  0.00  0.00    -0.023 C 
ATOM     11  C   UNL     1      -5.074   0.669  24.308  0.00  0.00    +0.012 C 
ENDROOT
BRANCH   9  12
ATOM     12  C   UNL     1      -4.050   2.352  25.129  0.00  0.00    +0.011 A 
ATOM     13  C   UNL     1      -3.300   2.626  24.919  0.00  0.00    +0.058 A 
ATOM     14  C   UNL     1      -2.743   2.215  24.471  0.00  0.00    +0.052 C 
ATOM     15  N   UNL     1      -3.207   3.382  25.235  0.00  0.00    -0.234 N 
ATOM     16  N   UNL     1      -3.899   3.576  25.641  0.00  0.00    -0.170 NA
ATOM     17  C   UNL     1      -4.419   2.940  25.576  0.00  0.00    +0.077 A 
ATOM     18  C   UNL     1      -5.177   2.898  25.900  0.00  0.00    +0.054 C 
BRANCH  15  19
ATOM     19  C   UNL     1      -2.539   3.860  25.159  0.00  0.00    +0.083 A 
ATOM     20  C   UNL     1      -2.607   4.614  24.829  0.00  0.00    +0.019 A 
ATOM     21  C   UNL     1      -1.939   5.092  24.753  0.00  0.00    -0.002 A 
ATOM     22  C   UNL     1      -1.204   4.818  25.006  0.00  0.00    -0.011 A 
ATOM     23  C   UNL     1      -0.536   5.296  24.930  0.00  0.00    +0.032 C 
ATOM     24  C   UNL     1      -1.136   4.065  25.336  0.00  0.00    +0.055 A 
ATOM     25 CL   UNL     1      -0.401   3.790  25.590  0.00  0.00    -0.083 Cl
ATOM     26  C   UNL     1      -1.804   3.586  25.412  0.00  0.00    +0.030 A 
ENDBRANCH  15  19
ENDBRANCH   9  12
BRANCH   7   6
ATOM      6  O   UNL     1      -4.690  -0.479  25.140  0.00  0.00    -0.433 OA
BRANCH   6   4
ATOM      3  N   UNL     1      -3.473  -1.223  25.230  0.00  0.00    -0.166 NA
ATOM      4  C   UNL     1      -4.149  -1.007  24.809  0.00  0.00    +0.422 C 
ATOM      5  O   UNL     1      -4.285  -1.318  24.058  0.00  0.00    -0.225 OA
BRANCH   3   2
ATOM      1  C   UNL     1      -3.200  -2.431  24.519  0.00  0.00    +0.028 C 
ATOM      2  C   UNL     1      -2.933  -1.750  24.899  0.00  0.00    +0.121 C 
BRANCH   2  27
ATOM     27  C   UNL     1      -2.123  -1.596  24.948  0.00  0.00    -0.002 A 
ATOM     28  C   UNL     1      -1.636  -1.736  24.297  0.00  0.00    -0.003 A 
ATOM     29  C   UNL     1      -0.827  -1.582  24.346  0.00  0.00    -0.000 A 
ATOM     30  C   UNL     1      -0.505  -1.288  25.047  0.00  0.00    -0.000 A 
ATOM     31  C   UNL     1      -0.992  -1.148  25.697  0.00  0.00    -0.000 A 
ATOM     32  C   UNL     1      -1.801  -1.302  25.648  0.00  0.00    -0.003 A 
ENDBRANCH   2  27
ENDBRANCH   3   2
ENDBRANCH   6   4
ENDBRANCH   7   6
TORSDOF 6
ENDMDL
MODEL 6
REMARK VINA RESULT:     -11.4      1.912      3.775
REMARK  Name = 
REMARK  6 active torsions:
REMARK  status: ('A' for Active; 'I' for Inactive)
REMARK    1  A    between atoms: C_2  and  N_3
REMARK    2  A    between atoms: C_2  and  C_27
REMARK    3  A    between atoms: C_4  and  O_6
REMARK    4  A    between atoms: O_6  and  C_7
REMARK    5  A    between atoms: C_9  and  C_12
REMARK    6  A    between atoms: N_15  and  C_19
REMARK                            x       y       z     vdW  Elec       q    Type
REMARK                         _______ _______ _______ _____ _____    ______ ____
ROOT
ATOM      7  C   UNL     1      -1.898   3.521  25.279  0.00  0.00    +0.193 C 
ATOM      8  C   UNL     1      -1.817   2.820  24.850  0.00  0.00    +0.057 C 
ATOM      9  C   UNL     1      -1.204   2.383  25.190  0.00  0.00    +0.050 C 
ATOM     10  C   UNL     1      -0.907   2.814  25.828  0.00  0.00    -0.023 C 
ATOM     11  C   UNL     1      -1.336   3.517  25.883  0.00  0.00    +0.012 C 
ENDROOT
BRANCH   9  12
ATOM     12  C   UNL     1      -0.937   1.645  24.936  0.00  0.00    +0.011 A 
ATOM     13  C   UNL     1      -1.316   0.923  25.058  0.00  0.00    +0.058 A 
ATOM     14  C   UNL     1      -2.031   0.812  25.455  0.00  0.00    +0.052 C 
ATOM     15  N   UNL     1      -0.856   0.332  24.712  0.00  0.00    -0.234 N 
ATOM     16  N   UNL     1      -0.192   0.689  24.377  0.00  0.00    -0.170 NA
ATOM     17  C   UNL     1      -0.242   1.500  24.515  0.00  0.00    +0.077 A 
ATOM     18  C   UNL     1       0.307   2.068  24.275  0.00  0.00    +0.054 C 
BRANCH  15  19
ATOM     19  C   UNL     1      -1.029  -0.474  24.703  0.00  0.00    +0.083 A 
ATOM     20  C   UNL     1      -1.689  -0.751  24.290  0.00  0.00    +0.019 A 
ATOM     21  C   UNL     1      -1.862  -1.557  24.281  0.00  0.00    -0.002 A 
ATOM     22  C   UNL     1      -1.377  -2.088  24.685  0.00  0.00    -0.011 A 
ATOM     23  C   UNL     1      -1.550  -2.894  24.676  0.00  0.00    +0.032 C 
ATOM     24  C   UNL     1      -0.718  -1.813  25.098  0.00  0.00    +0.055 A 
ATOM     25 CL   UNL     1      -0.232  -2.343  25.502  0.00  0.00    -0.083 Cl
ATOM     26  C   UNL     1      -0.544  -1.006  25.107  0.00  0.00    +0.030 A 
ENDBRANCH  15  19
ENDBRANCH   9  12
BRANCH   7   6
ATOM      6  O   UNL     1      -2.444   4.119  25.130  0.00  0.00    -0.433 OA
BRANCH   6   4
ATOM      3  N   UNL     1      -3.821   3.750  25.033  0.00  0.00    -0.166 NA
ATOM      4  C   UNL     1      -3.199   4.082  25.461  0.00  0.00    +0.422 C 
ATOM      5  O   UNL     1      -3.330   4.376  26.220  0.00  0.00    -0.225 OA
BRANCH   3   2
ATOM      1  C   UNL     1      -4.886   4.367  25.760  0.00  0.00    +0.028 C 
ATOM      2  C   UNL     1      -4.575   3.713  25.364  0.00  0.00    +0.121 C 
BRANCH   2  27
ATOM     27  C   UNL     1      -5.020   3.020  25.301  0.00  0.00    -0.002 A 
ATOM     28  C   UNL     1      -5.430   2.733  25.957  0.00  0.00    -0.003 A 
ATOM     29  C   UNL     1      -5.875   2.040  25.894  0.00  0.00    -0.000 A 
ATOM     30  C   UNL     1      -5.909   1.636  25.175  0.00  0.00    -0.000 A 
ATOM     31  C   UNL     1      -5.499   1.924  24.520  0.00  0.00    -0.000 A 
ATOM     32  C   UNL     1      -5.054   2.616  24.583  0.00  0.00    -0.003 A 
ENDBRANCH   2  27
ENDBRANCH   3   2
ENDBRANCH   6   4
ENDBRANCH   7   6
TORSDOF 6
ENDMDL
