MODEL 1
REMARK VINA RESULT:     -11.0      0.000      0.000
REMARK  Name = 
REMARK  6 active torsions:
REMARK  status: ('A' for Active; 'I' for Inactive)
REMARK    1  A    between atoms: N_2  and  C_4
REMARK    2  A    between atoms: C_7  and  C_10
REMARK    3  A    between atoms: N_12  and  C_13
REMARK    4  A    between atoms: C_13  and  C_14
REMARK    5  A    between atoms: C_21  and  C_22
REMARK    6  A    between atoms: C_22  and  N_23
REMARK                            x       y       z     vdW  Elec       q    Type
REMARK                         _______ _______ _______ _____ _____    ______ ____
ROOT
ATOM     14  C   UNL     1      -4.535   2.389  25.057  0.00  0.00    +0.079 C 
ATOM     15  C   UNL     1      -4.653   3.021  25.494  0.00  0.00    +0.018 C 
ATOM     16  C   UNL     1      -4.086   3.556  25.714  0.00  0.00    +0.005 C 
ATOM     17  C   UNL     1      -4.425   4.215  26.218  0.00  0.00    +0.017 C 
ATOM     18  C   UNL     1      -4.444   3.665  25.865  0.00  0.00    +0.072 C 
ATOM     19  N   UNL     1      -3.962   2.938  25.285  0.00  0.00    -0.272 NA
ATOM     20  C   UNL     1      -3.067   2.990  25.117  0.00  0.00    +0.073 C 
ATOM     21  C   UNL     1      -3.225   3.600  25.549  0.00  0.00    +0.032 C 
ENDROOT
BRANCH  14  13
ATOM     13  C   UNL     1      -4.786   1.705  24.670  0.00  0.00    +0.131 C 
BRANCH  13  12
ATOM     10  C   UNL     1      -4.681   0.285  24.551  0.00  0.00    +0.265 C 
ATOM     11  O   UNL     1      -5.477   0.244  24.340  0.00  0.00    -0.268 OA
ATOM     12  N   UNL     1      -4.335   1.016  24.716  0.00  0.00    -0.200 NA
BRANCH  10   7
ATOM      4  C   UNL     1      -3.328  -1.782  24.688  0.00  0.00    +0.048 A 
ATOM      5  C   UNL     1      -3.466  -1.334  25.367  0.00  0.00    +0.015 A 
ATOM      6  C   UNL     1      -3.917  -0.645  25.321  0.00  0.00    +0.006 A 
ATOM      7  C   UNL     1      -4.230  -0.404  24.596  0.00  0.00    +0.055 A 
ATOM      8  C   UNL     1      -4.092  -0.852  23.918  0.00  0.00    +0.006 A 
ATOM      9  C   UNL     1      -3.641  -1.542  23.964  0.00  0.00    +0.015 A 
BRANCH   4   2
ATOM      1  C   UNL     1      -3.232  -3.182  24.959  0.00  0.00    +0.112 C 
ATOM      2  N   UNL     1      -2.876  -2.471  24.735  0.00  0.00    -0.304 N 
ATOM      3  C   UNL     1      -2.071  -2.451  24.559  0.00  0.00    +0.112 C 
ENDBRANCH   4   2
ENDBRANCH  10   7
ENDBRANCH  13  12
ENDBRANCH  14  13
BRANCH  21  22
ATOM     22  C   UNL     1      -2.696   4.179  25.806  0.00  0.00    +0.073 C 
BRANCH  22  23
ATOM     23  N   UNL     1      -1.927   4.196  25.510  0.00  0.00    -0.273 NA
ATOM     24  C   UNL     1      -1.687   4.818  25.023  0.00  0.00    +0.072 C 
ATOM     25  C   UNL     1      -0.917   4.835  24.726  0.00  0.00    +0.017 C 
ATOM     26  C   UNL     1      -0.388   4.231  24.916  0.00  0.00    +0.003 C 
ATOM     27  C   UNL     1      -0.628   3.610  25.402  0.00  0.00    +0.017 C 
ATOM     28  C   UNL     1      -1.398   3.593  25.699  0.00  0.00    +0.072 C 
ENDBRANCH  22  23
ENDBRANCH  21  22
TORSDOF 6
ENDMDL
MODEL 2
REMARK VINA RESULT:     -10.6      1.648      2.943
REMARK  Name = 
REMARK  6 active torsions:
REMARK  status: ('A' for Active; 'I' for Inactive)
REMARK    1  A    between atoms: N_2  and  C_4
REMARK    2  A    between atoms: C_7  and  C_10
REMARK    3  A    between atoms: N_12  and  C_13
REMARK    4  A    between atoms: C_13  and  C_14
REMARK    5  A    between atoms: C_21  and  C_22
REMARK    6  A    between atoms: C_22  and  N_23
REMARK                            x       y       z     vdW  Elec       q    Type
REMARK                         _______ _______ _______ _____ _____    ______ ____
ROOT
ATOM     14  C   UNL     1      -0.874   1.535  25.575  0.00  0.00    +0.079 C 
ATOM     15  C   UNL     1      -0.596   2.259  25.504  0.00  0.00    +0.018 C 
ATOM     16  C   UNL     1      -1.042   2.928  25.410  0.00  0.00    +0.005 C 
ATOM     17  C   UNL     1      -0.531   3.663  25.347  0.00  0.00    +0.017 C 
ATOM     18  C   UNL     1      -0.649   3.024  25.415  0.00  0.00    +0.072 C 
ATOM     19  N   UNL     1      -1.321   2.222  25.480  0.00  0.00    -0.272 NA
ATOM     20  C   UNL     1      -2.222   2.362  25.429  0.00  0.00    +0.073 C 
ATOM     21  C   UNL     1      -1.909   3.055  25.362  0.00  0.00    +0.032 C 
ENDROOT
BRANCH  14  13
ATOM     13  C   UNL     1      -0.789   0.721  25.671  0.00  0.00    +0.131 C 
BRANCH  13  12
ATOM     10  C   UNL     1      -1.315  -0.601  25.532  0.00  0.00    +0.265 C 
ATOM     11  O   UNL     1      -0.689  -0.897  25.980  0.00  0.00    -0.268 OA
ATOM     12  N   UNL     1      -1.365   0.208  25.377  0.00  0.00    -0.200 NA
BRANCH  10   7
ATOM      4  C   UNL     1      -3.043  -2.137  24.652  0.00  0.00    +0.048 A 
ATOM      5  C   UNL     1      -2.281  -2.150  24.336  0.00  0.00    +0.015 A 
ATOM      6  C   UNL     1      -1.705  -1.637  24.629  0.00  0.00    +0.006 A 
ATOM      7  C   UNL     1      -1.891  -1.113  25.239  0.00  0.00    +0.055 A 
ATOM      8  C   UNL     1      -2.652  -1.101  25.554  0.00  0.00    +0.006 A 
ATOM      9  C   UNL     1      -3.229  -1.614  25.261  0.00  0.00    +0.015 A 
BRANCH   4   2
ATOM      1  C   UNL     1      -4.221  -2.359  23.875  0.00  0.00    +0.112 C 
ATOM      2  N   UNL     1      -3.619  -2.650  24.358  0.00  0.00    -0.304 N 
ATOM      3  C   UNL     1      -3.592  -3.453  24.546  0.00  0.00    +0.112 C 
ENDBRANCH   4   2
ENDBRANCH  10   7
ENDBRANCH  13  12
ENDBRANCH  14  13
BRANCH  21  22
ATOM     22  C   UNL     1      -2.303   3.774  25.266  0.00  0.00    +0.073 C 
BRANCH  22  23
ATOM     23  N   UNL     1      -3.125   3.788  25.208  0.00  0.00    -0.273 NA
ATOM     24  C   UNL     1      -3.585   3.858  25.890  0.00  0.00    +0.072 C 
ATOM     25  C   UNL     1      -4.408   3.872  25.832  0.00  0.00    +0.017 C 
ATOM     26  C   UNL     1      -4.771   3.816  25.093  0.00  0.00    +0.003 C 
ATOM     27  C   UNL     1      -4.312   3.747  24.411  0.00  0.00    +0.017 C 
ATOM     28  C   UNL     1      -3.489   3.733  24.469  0.00  0.00    +0.072 C 
ENDBRANCH  22  23
ENDBRANCH  21  22
TORSDOF 6
ENDMDL
MODEL 3
REMARK VINA RESULT:     -10.6      0.961      1.494
REMARK  Name = 
REMARK  6 active torsions:
REMARK  status: ('A' for Active; 'I' for Inactive)
REMARK    1  A    between atoms: N_2  and  C_4
REMARK    2  A    between atoms: C_7  and  C_10
REMARK    3  A    between atoms: N_12  and  C_13
REMARK    4  A    between atoms: C_13  and  C_14
REMARK    5  A    between atoms: C_21  and  C_22
REMARK    6  A    between atoms: C_22  and  N_23
REMARK                            x       y       z     vdW  Elec       q    Type
REMARK                         _______ _______ _______ _____ _____    ______ ____
ROOT
ATOM     14  C   UNL     1      -5.072   1.327  24.959  0.00  0.00    +0.079 C 
ATOM     15  C   UNL     1      -5.479   1.924  25.247  0.00  0.00    +0.018 C 
ATOM     16  C   UNL     1      -5.195   2.672  25.373  0.00  0.00    +0.005 C 
ATOM     17  C   UNL     1      -5.824   3.215  25.712  0.00  0.00    +0.017 C 
ATOM     18  C   UNL     1      -5.584   2.652  25.483  0.00  0.00    +0.072 C 
ATOM     19  N   UNL     1      -4.790   2.092  25.090  0.00  0.00    -0.272 NA
ATOM     20  C   UNL     1      -3.971   2.472  24.954  0.00  0.00    +0.073 C 
ATOM     21  C   UNL     1      -4.406   3.032  25.239  0.00  0.00    +0.032 C 
ENDROOT
BRANCH  14  13
ATOM     13  C   UNL     1      -4.987   0.544  24.714  0.00  0.00    +0.131 C 
BRANCH  13  12
ATOM     10  C   UNL     1      -4.161  -0.603  24.506  0.00  0.00    +0.265 C 
ATOM     11  O   UNL     1      -4.779  -0.977  24.110  0.00  0.00    -0.268 OA
ATOM     12  N   UNL     1      -4.264   0.158  24.809  0.00  0.00    -0.200 NA
BRANCH  10   7
ATOM      4  C   UNL     1      -1.992  -1.761  24.791  0.00  0.00    +0.048 A 
ATOM      5  C   UNL     1      -2.011  -0.979  24.527  0.00  0.00    +0.015 A 
ATOM      6  C   UNL     1      -2.733  -0.593  24.432  0.00  0.00    +0.006 A 
ATOM      7  C   UNL     1      -3.438  -0.989  24.601  0.00  0.00    +0.055 A 
ATOM      8  C   UNL     1      -3.419  -1.770  24.865  0.00  0.00    +0.006 A 
ATOM      9  C   UNL     1      -2.696  -2.156  24.960  0.00  0.00    +0.015 A 
BRANCH   4   2
ATOM      1  C   UNL     1      -0.670  -1.794  25.331  0.00  0.00    +0.112 C 
ATOM      2  N   UNL     1      -1.269  -2.147  24.885  0.00  0.00    -0.304 N 
ATOM      3  C   UNL     1      -1.144  -2.883  24.535  0.00  0.00    +0.112 C 
ENDBRANCH   4   2
ENDBRANCH  10   7
ENDBRANCH  13  12
ENDBRANCH  14  13
BRANCH  21  22
ATOM     22  C   UNL     1      -4.180   3.811  25.391  0.00  0.00    +0.073 C 
BRANCH  22  23
ATOM     23  N   UNL     1      -3.381   4.012  25.410  0.00  0.00    -0.273 NA
ATOM     24  C   UNL     1      -2.993   4.223  24.713  0.00  0.00    +0.072 C 
ATOM     25  C   UNL     1      -2.193   4.424  24.731  0.00  0.00    +0.017 C 
ATOM     26  C   UNL     1      -1.781   4.415  25.446  0.00  0.00    +0.003 C 
ATOM     27  C   UNL     1      -2.169   4.205  26.143  0.00  0.00    +0.017 C 
ATOM     28  C   UNL     1      -2.969   4.003  26.125  0.00  0.00    +0.072 C 
ENDBRANCH  22  23
ENDBRANCH  21  22
TORSDOF 6
ENDMDL
MODEL 4
REMARK VINA RESULT:     -10.5      1.119      5.183
REMARK  Name = 
REMARK  6 active torsions:
REMARK  status: ('A' for Active; 'I' for Inactive)
REMARK    1  A    between atoms: N_2  and  C_4
REMARK    2  A    between atoms: C_7  and  C_10
REMARK    3  A    between atoms: N_12  and  C_13
REMARK    4  A    between atoms: C_13  and  C_14
REMARK    5  A    between atoms: C_21  and  C_22
REMARK    6  A    between atoms: C_22  and  N_23
REMARK                            x       y       z     vdW  Elec       q    Type
REMARK                         _______ _______ _______ _____ _____    ______ ____
ROOT
ATOM     14  C   UNL     1      -4.291   0.381  24.693  0.00  0.00    +0.079 C 
ATOM     15  C   UNL     1      -4.452  -0.319  24.395  0.00  0.00    +0.018 C 
ATOM     16  C   UNL     1      -3.943  -0.948  24.364  0.00  0.00    +0.005 C 
ATOM     17  C   UNL     1      -4.320  -1.665  23.981  0.00  0.00    +0.017 C 
ATOM     18  C   UNL     1      -4.298  -1.050  24.200  0.00  0.00    +0.072 C 
ATOM     19  N   UNL     1      -3.777  -0.264  24.658  0.00  0.00    -0.272 NA
ATOM     20  C   UNL     1      -2.914  -0.372  24.934  0.00  0.00    +0.073 C 
ATOM     21  C   UNL     1      -3.112  -1.045  24.631  0.00  0.00    +0.032 C 
ENDROOT
BRANCH  14  13
ATOM     13  C   UNL     1      -4.483   1.158  24.891  0.00  0.00    +0.131 C 
BRANCH  13  12
ATOM     10  C   UNL     1      -4.095   2.524  25.049  0.00  0.00    +0.265 C 
ATOM     11  O   UNL     1      -4.884   2.737  25.154  0.00  0.00    -0.268 OA
ATOM     12  N   UNL     1      -3.894   1.735  24.917  0.00  0.00    -0.200 NA
BRANCH  10   7
ATOM      4  C   UNL     1      -2.326   4.253  25.128  0.00  0.00    +0.048 A 
ATOM      5  C   UNL     1      -2.509   3.883  24.413  0.00  0.00    +0.015 A 
ATOM      6  C   UNL     1      -3.098   3.306  24.387  0.00  0.00    +0.006 A 
ATOM      7  C   UNL     1      -3.505   3.100  25.075  0.00  0.00    +0.055 A 
ATOM      8  C   UNL     1      -3.322   3.471  25.789  0.00  0.00    +0.006 A 
ATOM      9  C   UNL     1      -2.733   4.048  25.815  0.00  0.00    +0.015 A 
BRANCH   4   2
ATOM      1  C   UNL     1      -0.944   4.611  25.087  0.00  0.00    +0.112 C 
ATOM      2  N   UNL     1      -1.736   4.830  25.153  0.00  0.00    -0.304 N 
ATOM      3  C   UNL     1      -1.939   5.624  25.244  0.00  0.00    +0.112 C 
ENDBRANCH   4   2
ENDBRANCH  10   7
ENDBRANCH  13  12
ENDBRANCH  14  13
BRANCH  21  22
ATOM     22  C   UNL     1      -2.644  -1.722  24.569  0.00  0.00    +0.073 C 
BRANCH  22  23
ATOM     23  N   UNL     1      -1.829  -1.670  24.679  0.00  0.00    -0.273 NA
ATOM     24  C   UNL     1      -1.506  -1.784  25.430  0.00  0.00    +0.072 C 
ATOM     25  C   UNL     1      -0.690  -1.732  25.540  0.00  0.00    +0.017 C 
ATOM     26  C   UNL     1      -0.197  -1.566  24.900  0.00  0.00    +0.003 C 
ATOM     27  C   UNL     1      -0.518  -1.451  24.149  0.00  0.00    +0.017 C 
ATOM     28  C   UNL     1      -1.334  -1.503  24.039  0.00  0.00    +0.072 C 
ENDBRANCH  22  23
ENDBRANCH  21  22
TORSDOF 6
ENDMDL
MODEL 5
REMARK VINA RESULT:     -10.2      2.095      6.163
REMARK  Name = 
REMARK  6 active torsions:
REMARK  status: ('A' for Active; 'I' for Inactive)
REMARK    1  A    between atoms: N_2  and  C_4
REMARK    2  A    between atoms: C_7  and  C_10
REMARK    3  A    between atoms: N_12  and  C_13
REMARK    4  A    between atoms: C_13  and  C_14
REMARK    5  A    between atoms: C_21  and  C_22
REMARK    6  A    between atoms: C_22  and  N_23
REMARK                            x       y       z     vdW  Elec       q    Type
REMARK                         _______ _______ _______ _____ _____    ______ ____
ROOT
ATOM     14  C   UNL     1      -0.395  -0.266  24.581  0.00  0.00    +0.079 C 
ATOM     15  C   UNL     1      -0.330  -0.971  24.903  0.00  0.00    +0.018 C 
ATOM     16  C   UNL     1      -0.938  -1.489  25.031  0.00  0.00    +0.005 C 
ATOM     17  C   UNL     1      -0.655  -2.249  25.414  0.00  0.00    +0.017 C 
ATOM     18  C   UNL     1      -0.591  -1.651  25.160  0.00  0.00    +0.072 C 
ATOM     19  N   UNL     1      -1.010  -0.799  24.714  0.00  0.00    -0.272 NA
ATOM     20  C   UNL     1      -1.906  -0.753  24.545  0.00  0.00    +0.073 C 
ATOM     21  C   UNL     1      -1.799  -1.438  24.865  0.00  0.00    +0.032 C 
ENDROOT
BRANCH  14  13
ATOM     13  C   UNL     1      -0.089   0.452  24.314  0.00  0.00    +0.131 C 
BRANCH  13  12
ATOM     10  C   UNL     1      -0.058   1.876  24.433  0.00  0.00    +0.265 C 
ATOM     11  O   UNL     1       0.713   1.884  24.143  0.00  0.00    -0.268 OA
ATOM     12  N   UNL     1      -0.460   1.160  24.519  0.00  0.00    -0.200 NA
BRANCH  10   7
ATOM      4  C   UNL     1      -1.171   3.999  25.049  0.00  0.00    +0.048 A 
ATOM      5  C   UNL     1      -1.118   3.776  24.256  0.00  0.00    +0.015 A 
ATOM      6  C   UNL     1      -0.747   3.069  24.051  0.00  0.00    +0.006 A 
ATOM      7  C   UNL     1      -0.429   2.584  24.639  0.00  0.00    +0.055 A 
ATOM      8  C   UNL     1      -0.483   2.807  25.431  0.00  0.00    +0.006 A 
ATOM      9  C   UNL     1      -0.854   3.515  25.636  0.00  0.00    +0.015 A 
BRANCH   4   2
ATOM      1  C   UNL     1      -1.201   5.427  25.038  0.00  0.00    +0.112 C 
ATOM      2  N   UNL     1      -1.542   4.707  25.253  0.00  0.00    -0.304 N 
ATOM      3  C   UNL     1      -2.253   4.696  25.671  0.00  0.00    +0.112 C 
ENDBRANCH   4   2
ENDBRANCH  10   7
ENDBRANCH  13  12
ENDBRANCH  14  13
BRANCH  21  22
ATOM     22  C   UNL     1      -2.372  -2.010  25.023  0.00  0.00    +0.073 C 
BRANCH  22  23
ATOM     23  N   UNL     1      -3.099  -1.982  24.635  0.00  0.00    -0.273 NA
ATOM     24  C   UNL     1      -3.310  -2.583  24.110  0.00  0.00    +0.072 C 
ATOM     25  C   UNL     1      -4.037  -2.555  23.722  0.00  0.00    +0.017 C 
ATOM     26  C   UNL     1      -4.554  -1.928  23.859  0.00  0.00    +0.003 C 
ATOM     27  C   UNL     1      -4.345  -1.327  24.384  0.00  0.00    +0.017 C 
ATOM     28  C   UNL     1      -3.617  -1.355  24.772  0.00  0.00    +0.072 C 
ENDBRANCH  22  23
ENDBRANCH  21  22
TORSDOF 6
ENDMDL
MODEL 6
REMARK VINA RESULT:     -10.0      1.983      5.510
REMARK  Name = 
REMARK  6 active torsions:
REMARK  status: ('A' for Active; 'I' for Inactive)
REMARK    1  A    between atoms: N_2  and  C_4
REMARK    2  A    between atoms: C_7  and  C_10
REMARK    3  A    between atoms: N_12  and  C_13
REMARK    4  A    between atoms: C_13  and  C_14
REMARK    5  A    between atoms: C_21  and  C_22
REMARK    6  A    between atoms: C_22  and  N_23
REMARK                            x       y       z     vdW  Elec       q    Type
REMARK                         _______ _______ _______ _____ _____    ______ ____
ROOT
ATOM     14  C   UNL     1      -0.970   1.074  24.318  0.00  0.00    +0.079 C 
ATOM     15  C   UNL     1      -0.460   0.504  24.174  0.00  0.00    +0.018 C 
ATOM     16  C   UNL     1      -0.587  -0.285  24.304  0.00  0.00    +0.005 C 
ATOM     17  C   UNL     1       0.125  -0.780  24.072  0.00  0.00    +0.017 C 
ATOM     18  C   UNL     1      -0.216  -0.228  24.152  0.00  0.00    +0.072 C 
ATOM     19  N   UNL     1      -1.091   0.268  24.447  0.00  0.00    -0.272 NA
ATOM     20  C   UNL     1      -1.805  -0.197  24.776  0.00  0.00    +0.073 C 
ATOM     21  C   UNL     1      -1.277  -0.726  24.620  0.00  0.00    +0.032 C 
ENDROOT
BRANCH  14  13
ATOM     13  C   UNL     1      -1.205   1.865  24.331  0.00  0.00    +0.131 C 
BRANCH  13  12
ATOM     10  C   UNL     1      -2.206   2.854  24.576  0.00  0.00    +0.265 C 
ATOM     11  O   UNL     1      -1.671   3.447  24.370  0.00  0.00    -0.268 OA
ATOM     12  N   UNL     1      -1.973   2.063  24.557  0.00  0.00    -0.200 NA
BRANCH  10   7
ATOM      4  C   UNL     1      -4.511   3.449  25.252  0.00  0.00    +0.048 A 
ATOM      5  C   UNL     1      -3.880   3.604  25.760  0.00  0.00    +0.015 A 
ATOM      6  C   UNL     1      -3.111   3.406  25.535  0.00  0.00    +0.006 A 
ATOM      7  C   UNL     1      -2.974   3.052  24.801  0.00  0.00    +0.055 A 
ATOM      8  C   UNL     1      -3.606   2.898  24.294  0.00  0.00    +0.006 A 
ATOM      9  C   UNL     1      -4.374   3.096  24.519  0.00  0.00    +0.015 A 
BRANCH   4   2
ATOM      1  C   UNL     1      -5.802   3.057  25.723  0.00  0.00    +0.112 C 
ATOM      2  N   UNL     1      -5.279   3.647  25.478  0.00  0.00    -0.304 N 
ATOM      3  C   UNL     1      -5.525   4.434  25.460  0.00  0.00    +0.112 C 
ENDBRANCH   4   2
ENDBRANCH  10   7
ENDBRANCH  13  12
ENDBRANCH  14  13
BRANCH  21  22
ATOM     22  C   UNL     1      -1.341  -1.542  24.728  0.00  0.00    +0.073 C 
BRANCH  22  23
ATOM     23  N   UNL     1      -2.084  -1.890  24.801  0.00  0.00    -0.273 NA
ATOM     24  C   UNL     1      -2.395  -2.333  24.177  0.00  0.00    +0.072 C 
ATOM     25  C   UNL     1      -3.139  -2.682  24.250  0.00  0.00    +0.017 C 
ATOM     26  C   UNL     1      -3.573  -2.588  24.945  0.00  0.00    +0.003 C 
ATOM     27  C   UNL     1      -3.263  -2.146  25.569  0.00  0.00    +0.017 C 
ATOM     28  C   UNL     1      -2.519  -1.797  25.496  0.00  0.00    +0.072 C 
ENDBRANCH  22  23
ENDBRANCH  21  22
TORSDOF 6
ENDMDL
MODEL 7
REMARK VINA RESULT:      -9.9      1.943      3.411
REMARK  Name = 
REMARK  6 active torsions:
REMARK  status: ('A' for Active; 'I' for Inactive)
REMARK    1  A    between atoms: N_2  and  C_4
REMARK    2  A    between atoms: C_7  and  C_10
REMARK    3  A    between atoms: N_12  and  C_13
REMARK    4  A    between atoms: C_13  and  C_14
REMARK    5  A    between atoms: C_21  and  C_22
REMARK    6  A    between atoms: C_22  and  N_23
REMARK                            x       y       z     vdW  Elec       q    Type
REMARK                         _______ _______ _______ _____ _____    ______ ____
ROOT
ATOM     14  C   UNL     1      -1.715   3.021  25.430  0.00  0.00    +0.079 C 
ATOM     15  C   UNL     1      -2.035   3.682  25.687  0.00  0.00    +0.018 C 
ATOM     16  C   UNL     1      -2.824   3.863  25.670  0.00  0.00    +0.005 C 
ATOM     17  C   UNL     1      -2.988   4.674  26.015  0.00  0.00    +0.017 C 
ATOM     18  C   UNL     1      -2.616   4.169  25.834  0.00  0.00    +0.072 C 
ATOM     19  N   UNL     1      -2.518   3.212  25.416  0.00  0.00    -0.272 NA
ATOM     20  C   UNL     1      -3.250   2.754  25.119  0.00  0.00    +0.073 C 
ATOM     21  C   UNL     1      -3.523   3.417  25.383  0.00  0.00    +0.032 C 
ENDROOT
BRANCH  14  13
ATOM     13  C   UNL     1      -1.076   2.521  25.284  0.00  0.00    +0.131 C 
BRANCH  13  12
ATOM     10  C   UNL     1      -0.552   1.205  25.096  0.00  0.00    +0.265 C 
ATOM     11  O   UNL     1       0.208   1.518  25.022  0.00  0.00    -0.268 OA
ATOM     12  N   UNL     1      -1.194   1.707  25.227  0.00  0.00    -0.200 NA
BRANCH  10   7
ATOM      4  C   UNL     1      -0.905  -1.238  24.925  0.00  0.00    +0.048 A 
ATOM      5  C   UNL     1      -0.560  -0.827  24.299  0.00  0.00    +0.015 A 
ATOM      6  C   UNL     1      -0.442  -0.012  24.356  0.00  0.00    +0.006 A 
ATOM      7  C   UNL     1      -0.670   0.391  25.039  0.00  0.00    +0.055 A 
ATOM      8  C   UNL     1      -1.015  -0.021  25.665  0.00  0.00    +0.006 A 
ATOM      9  C   UNL     1      -1.133  -0.835  25.608  0.00  0.00    +0.015 A 
BRANCH   4   2
ATOM      1  C   UNL     1      -1.718  -2.345  24.533  0.00  0.00    +0.112 C 
ATOM      2  N   UNL     1      -1.023  -2.053  24.867  0.00  0.00    -0.304 N 
ATOM      3  C   UNL     1      -0.447  -2.574  25.143  0.00  0.00    +0.112 C 
ENDBRANCH   4   2
ENDBRANCH  10   7
ENDBRANCH  13  12
ENDBRANCH  14  13
BRANCH  21  22
ATOM     22  C   UNL     1      -4.311   3.662  25.395  0.00  0.00    +0.073 C 
BRANCH  22  23
ATOM     23  N   UNL     1      -4.917   3.103  25.374  0.00  0.00    -0.273 NA
ATOM     24  C   UNL     1      -5.354   2.942  26.055  0.00  0.00    +0.072 C 
ATOM     25  C   UNL     1      -5.960   2.383  26.033  0.00  0.00    +0.017 C 
ATOM     26  C   UNL     1      -6.129   1.984  25.331  0.00  0.00    +0.003 C 
ATOM     27  C   UNL     1      -5.692   2.144  24.650  0.00  0.00    +0.017 C 
ATOM     28  C   UNL     1      -5.086   2.704  24.672  0.00  0.00    +0.072 C 
ENDBRANCH  22  23
ENDBRANCH  21  22
TORSDOF 6
ENDMDL
MODEL 8
REMARK VINA RESULT:      -9.9      3.405      4.715
REMARK  Name = 
REMARK  6 active torsions:
REMARK  status: ('A' for Active; 'I' for Inactive)
REMARK    1  A    between atoms: N_2  and  C_4
REMARK    2  A    between atoms: C_7  and  C_10
REMARK    3  A    between atoms: N_12  and  C_13
REMARK    4  A    between atoms: C_13  and  C_14
REMARK    5  A    between atoms: C_21  and  C_22
REMARK    6  A    between atoms: C_22  and  N_23
REMARK                            x       y       z     vdW  Elec       q    Type
REMARK                         _______ _______ _______ _____ _____    ______ ____
ROOT
ATOM     14  C   UNL     1      -2.074   1.341  23.779  0.00  0.00    +0.079 C 
ATOM     15  C   UNL     1      -2.386   1.846  23.276  0.00  0.00    +0.018 C 
ATOM     16  C   UNL     1      -3.099   2.219  23.363  0.00  0.00    +0.005 C 
ATOM     17  C   UNL     1      -3.278   2.763  22.673  0.00  0.00    +0.017 C 
ATOM     18  C   UNL     1      -2.925   2.334  23.017  0.00  0.00    +0.072 C 
ATOM     19  N   UNL     1      -2.800   1.725  23.861  0.00  0.00    -0.272 NA
ATOM     20  C   UNL     1      -3.437   1.694  24.514  0.00  0.00    +0.073 C 
ATOM     21  C   UNL     1      -3.708   2.184  23.995  0.00  0.00    +0.032 C 
ENDROOT
BRANCH  14  13
ATOM     13  C   UNL     1      -1.482   0.826  24.033  0.00  0.00    +0.131 C 
BRANCH  13  12
ATOM     10  C   UNL     1      -0.141   0.340  23.941  0.00  0.00    +0.265 C 
ATOM     11  O   UNL     1      -0.277  -0.157  24.585  0.00  0.00    -0.268 OA
ATOM     12  N   UNL     1      -0.744   0.832  23.665  0.00  0.00    -0.200 NA
BRANCH  10   7
ATOM      4  C   UNL     1       2.073   0.358  22.836  0.00  0.00    +0.048 A 
ATOM      5  C   UNL     1       1.884   0.939  23.391  0.00  0.00    +0.015 A 
ATOM      6  C   UNL     1       1.146   0.933  23.759  0.00  0.00    +0.006 A 
ATOM      7  C   UNL     1       0.597   0.346  23.573  0.00  0.00    +0.055 A 
ATOM      8  C   UNL     1       0.786  -0.235  23.019  0.00  0.00    +0.006 A 
ATOM      9  C   UNL     1       1.524  -0.229  22.651  0.00  0.00    +0.015 A 
BRANCH   4   2
ATOM      1  C   UNL     1       3.441   0.768  22.818  0.00  0.00    +0.112 C 
ATOM      2  N   UNL     1       2.812   0.365  22.469  0.00  0.00    -0.304 N 
ATOM      3  C   UNL     1       2.920  -0.030  21.753  0.00  0.00    +0.112 C 
ENDBRANCH   4   2
ENDBRANCH  10   7
ENDBRANCH  13  12
ENDBRANCH  14  13
BRANCH  21  22
ATOM     22  C   UNL     1      -4.423   2.595  24.022  0.00  0.00    +0.073 C 
BRANCH  22  23
ATOM     23  N   UNL     1      -4.912   2.526  24.681  0.00  0.00    -0.273 NA
ATOM     24  C   UNL     1      -4.846   3.065  25.303  0.00  0.00    +0.072 C 
ATOM     25  C   UNL     1      -5.336   2.996  25.963  0.00  0.00    +0.017 C 
ATOM     26  C   UNL     1      -5.893   2.389  26.002  0.00  0.00    +0.003 C 
ATOM     27  C   UNL     1      -5.960   1.850  25.381  0.00  0.00    +0.017 C 
ATOM     28  C   UNL     1      -5.470   1.919  24.721  0.00  0.00    +0.072 C 
ENDBRANCH  22  23
ENDBRANCH  21  22
TORSDOF 6
ENDMDL
MODEL 9
REMARK VINA RESULT:      -9.9      4.611      6.589
REMARK  Name = 
REMARK  6 active torsions:
REMARK  status: ('A' for Active; 'I' for Inactive)
REMARK    1  A    between atoms: N_2  and  C_4
REMARK    2  A    between atoms: C_7  and  C_10
REMARK    3  A    between atoms: N_12  and  C_13
REMARK    4  A    between atoms: C_13  and  C_14
REMARK    5  A    between atoms: C_21  and  C_22
REMARK    6  A    between atoms: C_22  and  N_23
REMARK                            x       y       z     vdW  Elec       q    Type
REMARK                         _______ _______ _______ _____ _____    ______ ____
ROOT
ATOM     14  C   UNL     1       0.057   0.162  23.713  0.00  0.00    +0.079 C 
ATOM     15  C   UNL     1      -0.231   0.519  24.341  0.00  0.00    +0.018 C 
ATOM     16  C   UNL     1      -0.901   0.303  24.741  0.00  0.00    +0.005 C 
ATOM     17  C   UNL     1      -1.064   0.843  25.438  0.00  0.00    +0.017 C 
ATOM     18  C   UNL     1      -0.735   0.627  24.916  0.00  0.00    +0.072 C 
ATOM     19  N   UNL     1      -0.624  -0.053  24.126  0.00  0.00    -0.272 NA
ATOM     20  C   UNL     1      -1.227  -0.727  24.001  0.00  0.00    +0.073 C 
ATOM     21  C   UNL     1      -1.477  -0.348  24.615  0.00  0.00    +0.032 C 
ENDROOT
BRANCH  14  13
ATOM     13  C   UNL     1       0.611   0.070  23.109  0.00  0.00    +0.131 C 
BRANCH  13  12
ATOM     10  C   UNL     1       1.970   0.010  22.674  0.00  0.00    +0.265 C 
ATOM     11  O   UNL     1       1.718  -0.146  21.904  0.00  0.00    -0.268 OA
ATOM     12  N   UNL     1       1.417   0.118  23.276  0.00  0.00    -0.200 NA
BRANCH  10   7
ATOM      4  C   UNL     1       4.389   0.154  23.176  0.00  0.00    +0.048 A 
ATOM      5  C   UNL     1       3.975  -0.541  23.339  0.00  0.00    +0.015 A 
ATOM      6  C   UNL     1       3.169  -0.589  23.171  0.00  0.00    +0.006 A 
ATOM      7  C   UNL     1       2.777   0.058  22.841  0.00  0.00    +0.055 A 
ATOM      8  C   UNL     1       3.191   0.752  22.679  0.00  0.00    +0.006 A 
ATOM      9  C   UNL     1       3.997   0.800  22.846  0.00  0.00    +0.015 A 
BRANCH   4   2
ATOM      1  C   UNL     1       5.449   0.545  24.050  0.00  0.00    +0.112 C 
ATOM      2  N   UNL     1       5.196   0.202  23.344  0.00  0.00    -0.304 N 
ATOM      3  C   UNL     1       5.747  -0.093  22.807  0.00  0.00    +0.112 C 
ENDBRANCH   4   2
ENDBRANCH  10   7
ENDBRANCH  13  12
ENDBRANCH  14  13
BRANCH  21  22
ATOM     22  C   UNL     1      -2.148  -0.516  25.066  0.00  0.00    +0.073 C 
BRANCH  22  23
ATOM     23  N   UNL     1      -2.718  -1.036  24.777  0.00  0.00    -0.273 NA
ATOM     24  C   UNL     1      -2.642  -1.847  24.912  0.00  0.00    +0.072 C 
ATOM     25  C   UNL     1      -3.214  -2.367  24.623  0.00  0.00    +0.017 C 
ATOM     26  C   UNL     1      -3.860  -2.078  24.201  0.00  0.00    +0.003 C 
ATOM     27  C   UNL     1      -3.936  -1.268  24.066  0.00  0.00    +0.017 C 
ATOM     28  C   UNL     1      -3.365  -0.747  24.354  0.00  0.00    +0.072 C 
ENDBRANCH  22  23
ENDBRANCH  21  22
TORSDOF 6
ENDMDL
MODEL 10
REMARK VINA RESULT:      -7.3     15.640     18.823
REMARK  Name = 
REMARK  6 active torsions:
REMARK  status: ('A' for Active; 'I' for Inactive)
REMARK    1  A    between atoms: N_2  and  C_4
REMARK    2  A    between atoms: C_7  and  C_10
REMARK    3  A    between atoms: N_12  and  C_13
REMARK    4  A    between atoms: C_13  and  C_14
REMARK    5  A    between atoms: C_21  and  C_22
REMARK    6  A    between atoms: C_22  and  N_23
REMARK                            x       y       z     vdW  Elec       q    Type
REMARK                         _______ _______ _______ _____ _____    ______ ____
ROOT
ATOM     14  C   UNL     1      13.123   7.779  18.281  0.00  0.00    +0.079 C 
ATOM     15  C   UNL     1      13.689   7.636  17.766  0.00  0.00    +0.018 C 
ATOM     16  C   UNL     1      14.435   7.377  17.944  0.00  0.00    +0.005 C 
ATOM     17  C   UNL     1      14.937   7.273  17.208  0.00  0.00    +0.017 C 
ATOM     18  C   UNL     1      14.397   7.422  17.544  0.00  0.00    +0.072 C 
ATOM     19  N   UNL     1      13.886   7.515  18.455  0.00  0.00    -0.272 NA
ATOM     20  C   UNL     1      14.298   7.316  19.244  0.00  0.00    +0.073 C 
ATOM     21  C   UNL     1      14.825   7.187  18.707  0.00  0.00    +0.032 C 
ENDROOT
BRANCH  14  13
ATOM     13  C   UNL     1      12.361   8.011  18.490  0.00  0.00    +0.131 C 
BRANCH  13  12
ATOM     10  C   UNL     1      11.375   8.264  19.494  0.00  0.00    +0.265 C 
ATOM     11  O   UNL     1      10.817   8.420  18.907  0.00  0.00    -0.268 OA
ATOM     12  N   UNL     1      12.147   8.060  19.286  0.00  0.00    -0.200 NA
BRANCH  10   7
ATOM      4  C   UNL     1      10.736   8.409  21.880  0.00  0.00    +0.048 A 
ATOM      5  C   UNL     1      10.710   7.682  21.490  0.00  0.00    +0.015 A 
ATOM      6  C   UNL     1      10.923   7.634  20.694  0.00  0.00    +0.006 A 
ATOM      7  C   UNL     1      11.162   8.312  20.289  0.00  0.00    +0.055 A 
ATOM      8  C   UNL     1      11.188   9.038  20.680  0.00  0.00    +0.006 A 
ATOM      9  C   UNL     1      10.975   9.087  21.475  0.00  0.00    +0.015 A 
BRANCH   4   2
ATOM      1  C   UNL     1      10.812   9.072  23.143  0.00  0.00    +0.112 C 
ATOM      2  N   UNL     1      10.523   8.457  22.676  0.00  0.00    -0.304 N 
ATOM      3  C   UNL     1      10.021   7.890  23.003  0.00  0.00    +0.112 C 
ENDBRANCH   4   2
ENDBRANCH  10   7
ENDBRANCH  13  12
ENDBRANCH  14  13
BRANCH  21  22
ATOM     22  C   UNL     1      15.599   6.925  18.820  0.00  0.00    +0.073 C 
BRANCH  22  23
ATOM     23  N   UNL     1      15.930   6.930  19.575  0.00  0.00    -0.273 NA
ATOM     24  C   UNL     1      16.450   7.532  19.794  0.00  0.00    +0.072 C 
ATOM     25  C   UNL     1      16.781   7.538  20.550  0.00  0.00    +0.017 C 
ATOM     26  C   UNL     1      16.592   6.941  21.087  0.00  0.00    +0.003 C 
ATOM     27  C   UNL     1      16.072   6.339  20.870  0.00  0.00    +0.017 C 
ATOM     28  C   UNL     1      15.741   6.334  20.114  0.00  0.00    +0.072 C 
ENDBRANCH  22  23
ENDBRANCH  21  22
TORSDOF 6
ENDMDL
