REMARK  Name = 
REMARK  7 active torsions:
REMARK  status: ('A' for Active; 'I' for Inactive)
REMARK    1  A    between atoms: O_2  and  C_3
REMARK    2  A    between atoms: C_3  and  C_5
REMARK    3  A    between atoms: C_5  and  O_6
REMARK    4  A    between atoms: O_6  and  C_7
REMARK    5  A    between atoms: C_11  and  N_15
REMARK    6  A    between atoms: N_18  and  C_19
REMARK    7  A    between atoms: C_21  and  C_25
REMARK                            x       y       z     vdW  Elec       q    Type
REMARK                         _______ _______ _______ _____ _____    ______ ____
ROOT
ATOM      7  C   UNL     1       6.286   1.204   0.000  0.00  0.00    +0.175 C 
ATOM      8  C   UNL     1       6.372   2.025   0.000  0.00  0.00    +0.174 C 
ATOM      9  O   UNL     1       7.179   2.196   0.000  0.00  0.00    -0.349 OA
ATOM     10  C   UNL     1       7.592   1.482   0.000  0.00  0.00    +0.167 C 
ATOM     11  C   UNL     1       8.345   1.146   0.000  0.00  0.00    +0.156 C 
ATOM     12  C   UNL     1       8.259   0.326   0.000  0.00  0.00    +0.166 C 
ATOM     13  O   UNL     1       7.452   0.154   0.000  0.00  0.00    -0.349 OA
ATOM     14  C   UNL     1       7.040   0.869   0.000  0.00  0.00    +0.173 C 
ENDROOT
BRANCH  11  15
ATOM     15  N   UNL     1       9.060   1.559   0.000  0.00  0.00    -0.184 NA
ATOM     16  C   UNL     1       9.774   1.146   0.000  0.00  0.00    +0.344 C 
ATOM     17  O   UNL     1       9.774   0.321   0.000  0.00  0.00    -0.249 OA
ATOM     18  N   UNL     1      10.489   1.559   0.000  0.00  0.00    -0.161 NA
BRANCH  18  19
ATOM     19  C   UNL     1      11.203   1.146   0.000  0.00  0.00    +0.075 A 
ATOM     20  C   UNL     1      11.918   1.559   0.000  0.00  0.00    +0.021 A 
ATOM     21  C   UNL     1      12.632   1.146   0.000  0.00  0.00    +0.073 A 
ATOM     22  C   UNL     1      12.632   0.321   0.000  0.00  0.00    +0.004 A 
ATOM     23  C   UNL     1      11.918  -0.091   0.000  0.00  0.00    +0.001 A 
ATOM     24  C   UNL     1      11.203   0.321   0.000  0.00  0.00    +0.017 A 
BRANCH  21  25
ATOM     25  C   UNL     1      13.347   1.559   0.000  0.00  0.00    +0.419 C 
ATOM     26  F   UNL     1      14.061   1.971   0.000  0.00  0.00    -0.166 F 
ATOM     27  F   UNL     1      13.759   0.844   0.000  0.00  0.00    -0.166 F 
ATOM     28  F   UNL     1      12.934   2.273   0.000  0.00  0.00    -0.166 F 
ENDBRANCH  21  25
ENDBRANCH  18  19
ENDBRANCH  11  15
BRANCH   7   6
ATOM      6  O   UNL     1       5.572   0.792   0.000  0.00  0.00    -0.340 OA
BRANCH   6   5
ATOM      5  C   UNL     1       4.857   1.204   0.000  0.00  0.00    +0.252 C 
BRANCH   5   3
ATOM      3  C   UNL     1       4.143   0.792   0.000  0.00  0.00    +0.348 C 
ATOM      4  O   UNL     1       4.143  -0.033   0.000  0.00  0.00    -0.247 OA
BRANCH   3   2
ATOM      1  C   UNL     1       2.714   0.792   0.000  0.00  0.00    +0.256 C 
ATOM      2  O   UNL     1       3.428   1.204   0.000  0.00  0.00    -0.443 OA
ENDBRANCH   3   2
ENDBRANCH   5   3
ENDBRANCH   6   5
ENDBRANCH   7   6
TORSDOF 7
