REMARK  Name = 
REMARK  8 active torsions:
REMARK  status: ('A' for Active; 'I' for Inactive)
REMARK    1  A    between atoms: O_2  and  C_3
REMARK    2  A    between atoms: C_4  and  C_5
REMARK    3  A    between atoms: C_5  and  N_6
REMARK    4  A    between atoms: C_7  and  C_9
REMARK    5  A    between atoms: C_9  and  C_10
REMARK    6  A    between atoms: C_15  and  C_16
REMARK    7  A    between atoms: C_16  and  C_17
REMARK    8  A    between atoms: C_20  and  C_22
REMARK                            x       y       z     vdW  Elec       q    Type
REMARK                         _______ _______ _______ _____ _____    ______ ____
ROOT
ATOM     10  C   UNL     1       2.143  -2.062   0.000  0.00  0.00    +0.012 C 
ATOM     11  C   UNL     1       2.143  -1.238   0.000  0.00  0.00    +0.019 C 
ATOM     12  C   UNL     1       2.858  -0.825   0.000  0.00  0.00    +0.089 C 
ATOM     13  N   UNL     1       3.572  -1.238   0.000  0.00  0.00    -0.218 NA
ATOM     14  C   UNL     1       3.572  -2.062   0.000  0.00  0.00    +0.089 C 
ATOM     15  C   UNL     1       2.858  -2.475   0.000  0.00  0.00    +0.024 C 
ENDROOT
BRANCH  10   9
ATOM      9  C   UNL     1       1.429  -2.475   0.000  0.00  0.00    +0.087 C 
BRANCH   9   7
ATOM      6  N   UNL     1       0.000  -2.475   0.000  0.00  0.00    -0.200 NA
ATOM      7  C   UNL     1       0.715  -2.062   0.000  0.00  0.00    +0.242 C 
ATOM      8  O   UNL     1       0.715  -1.238   0.000  0.00  0.00    -0.273 OA
BRANCH   6   5
ATOM      5  C   UNL     1      -0.715  -2.062   0.000  0.00  0.00    +0.144 C 
BRANCH   5   4
ATOM      3  C   UNL     1      -2.143  -2.062   0.000  0.00  0.00    +0.136 A 
ATOM      4  C   UNL     1      -1.429  -2.475   0.000  0.00  0.00    +0.033 A 
ATOM     25  C   UNL     1      -1.429  -3.300   0.000  0.00  0.00    +0.000 A 
ATOM     26  C   UNL     1      -2.143  -3.712   0.000  0.00  0.00    -0.000 A 
ATOM     27  C   UNL     1      -2.858  -3.300   0.000  0.00  0.00    +0.003 A 
ATOM     28  C   UNL     1      -2.858  -2.475   0.000  0.00  0.00    +0.037 A 
BRANCH   3   2
ATOM      1  C   UNL     1      -2.858  -0.825   0.000  0.00  0.00    +0.252 C 
ATOM      2  O   UNL     1      -2.143  -1.238   0.000  0.00  0.00    -0.472 OA
ENDBRANCH   3   2
ENDBRANCH   5   4
ENDBRANCH   6   5
ENDBRANCH   9   7
ENDBRANCH  10   9
BRANCH  15  16
ATOM     16  C   UNL     1       2.858  -3.300   0.000  0.00  0.00    +0.051 C 
BRANCH  16  17
ATOM     17  C   UNL     1       3.572  -3.712   0.000  0.00  0.00    +0.101 A 
ATOM     18  N   UNL     1       4.326  -3.377   0.000  0.00  0.00    -0.081 NA
ATOM     19  O   UNL     1       4.878  -3.990   0.000  0.00  0.00    -0.347 OA
ATOM     20  C   UNL     1       4.466  -4.705   0.000  0.00  0.00    +0.256 A 
ATOM     21  C   UNL     1       3.659  -4.533   0.000  0.00  0.00    +0.065 A 
BRANCH  20  22
ATOM     22  C   UNL     1       4.801  -5.458   0.000  0.00  0.00    +0.424 C 
ATOM     23  O   UNL     1       5.622  -5.544   0.000  0.00  0.00    -0.237 OA
ATOM     24  O   UNL     1       4.316  -6.126   0.000  0.00  0.00    -0.237 OA
ENDBRANCH  20  22
ENDBRANCH  16  17
ENDBRANCH  15  16
TORSDOF 8
