MODEL 1
REMARK VINA RESULT:     -11.8      0.000      0.000
REMARK  Name = 
REMARK  5 active torsions:
REMARK  status: ('A' for Active; 'I' for Inactive)
REMARK    1  A    between atoms: C_4  and  C_5
REMARK    2  A    between atoms: C_12  and  O_14
REMARK    3  A    between atoms: O_14  and  C_15
REMARK    4  A    between atoms: C_18  and  S_21
REMARK    5  A    between atoms: C_25  and  C_27
REMARK                            x       y       z     vdW  Elec       q    Type
REMARK                         _______ _______ _______ _____ _____    ______ ____
ROOT
ATOM      5  C   UNL     1      -2.265   2.776  25.385  0.00  0.00    +0.252 C 
ATOM      6  O   UNL     1      -2.573   2.578  26.124  0.00  0.00    -0.270 OA
ATOM      7  N   UNL     1      -2.547   2.401  24.707  0.00  0.00    -0.270 N 
ATOM      8  C   UNL     1      -2.202   2.640  23.995  0.00  0.00    +0.126 C 
ATOM      9  C   UNL     1      -2.360   2.374  23.231  0.00  0.00    +0.164 C 
ATOM     10  O   UNL     1      -2.904   1.802  22.988  0.00  0.00    -0.348 OA
ATOM     11  C   UNL     1      -3.423   1.357  23.450  0.00  0.00    +0.187 C 
ATOM     12  C   UNL     1      -3.526   1.372  24.269  0.00  0.00    +0.215 C 
ATOM     13  C   UNL     1      -3.136   1.837  24.827  0.00  0.00    +0.140 C 
ENDROOT
BRANCH   5   4
ATOM      1  C   UNL     1      -0.849   5.223  24.720  0.00  0.00    +0.072 C 
ATOM      2  C   UNL     1      -1.024   4.475  25.019  0.00  0.00    +0.123 A 
ATOM      3  C   UNL     1      -1.745   4.079  24.944  0.00  0.00    +0.040 A 
ATOM      4  C   UNL     1      -1.675   3.349  25.325  0.00  0.00    +0.095 A 
ATOM     25  C   UNL     1      -0.912   3.295  25.634  0.00  0.00    +0.220 A 
ATOM     26  O   UNL     1      -0.510   3.990  25.445  0.00  0.00    -0.454 OA
BRANCH  25  27
ATOM     27  C   UNL     1      -0.605   2.658  26.058  0.00  0.00    +0.451 C 
ATOM     28  F   UNL     1      -0.298   2.020  26.482  0.00  0.00    -0.163 F 
ATOM     29  F   UNL     1      -0.968   2.938  26.743  0.00  0.00    -0.163 F 
ATOM     30  F   UNL     1      -0.242   2.377  25.373  0.00  0.00    -0.163 F 
ENDBRANCH  25  27
ENDBRANCH   5   4
BRANCH  12  14
ATOM     14  O   UNL     1      -4.095   0.854  24.567  0.00  0.00    -0.475 OA
BRANCH  14  15
ATOM     15  C   UNL     1      -3.950   0.042  24.573  0.00  0.00    +0.139 A 
ATOM     16  C   UNL     1      -3.648  -0.318  25.252  0.00  0.00    +0.038 A 
ATOM     17  C   UNL     1      -3.503  -1.130  25.257  0.00  0.00    +0.021 A 
ATOM     18  C   UNL     1      -3.659  -1.583  24.585  0.00  0.00    +0.106 A 
ATOM     19  C   UNL     1      -3.961  -1.222  23.907  0.00  0.00    +0.021 A 
ATOM     20  C   UNL     1      -4.106  -0.410  23.902  0.00  0.00    +0.038 A 
BRANCH  18  21
ATOM     21  S   UNL     1      -3.514  -2.394  24.591  0.00  0.00    +0.010 S 
ATOM     22  C   UNL     1      -3.370  -3.206  24.597  0.00  0.00    +0.182 C 
ATOM     23  O   UNL     1      -4.210  -2.522  24.165  0.00  0.00    -0.169 OA
ATOM     24  O   UNL     1      -2.819  -2.267  25.017  0.00  0.00    -0.169 OA
ENDBRANCH  18  21
ENDBRANCH  14  15
ENDBRANCH  12  14
TORSDOF 5
ENDMDL
MODEL 2
REMARK VINA RESULT:     -11.7      1.593      1.945
REMARK  Name = 
REMARK  5 active torsions:
REMARK  status: ('A' for Active; 'I' for Inactive)
REMARK    1  A    between atoms: C_4  and  C_5
REMARK    2  A    between atoms: C_12  and  O_14
REMARK    3  A    between atoms: O_14  and  C_15
REMARK    4  A    between atoms: C_18  and  S_21
REMARK    5  A    between atoms: C_25  and  C_27
REMARK                            x       y       z     vdW  Elec       q    Type
REMARK                         _______ _______ _______ _____ _____    ______ ____
ROOT
ATOM      5  C   UNL     1      -1.470   2.865  25.673  0.00  0.00    +0.252 C 
ATOM      6  O   UNL     1      -1.629   2.646  26.453  0.00  0.00    -0.270 OA
ATOM      7  N   UNL     1      -1.286   2.289  25.112  0.00  0.00    -0.270 N 
ATOM      8  C   UNL     1      -1.137   2.567  24.349  0.00  0.00    +0.126 C 
ATOM      9  C   UNL     1      -0.940   2.137  23.674  0.00  0.00    +0.164 C 
ATOM     10  O   UNL     1      -0.843   1.321  23.594  0.00  0.00    -0.348 OA
ATOM     11  C   UNL     1      -0.920   0.735  24.170  0.00  0.00    +0.187 C 
ATOM     12  C   UNL     1      -1.112   0.820  24.968  0.00  0.00    +0.215 C 
ATOM     13  C   UNL     1      -1.275   1.512  25.387  0.00  0.00    +0.140 C 
ENDROOT
BRANCH   5   4
ATOM      1  C   UNL     1      -0.701   5.483  24.679  0.00  0.00    +0.072 C 
ATOM      2  C   UNL     1      -1.143   4.864  24.998  0.00  0.00    +0.123 A 
ATOM      3  C   UNL     1      -0.875   4.094  25.130  0.00  0.00    +0.040 A 
ATOM      4  C   UNL     1      -1.497   3.660  25.455  0.00  0.00    +0.095 A 
ATOM     25  C   UNL     1      -2.149   4.161  25.524  0.00  0.00    +0.220 A 
ATOM     26  O   UNL     1      -1.930   4.905  25.242  0.00  0.00    -0.454 OA
BRANCH  25  27
ATOM     27  C   UNL     1      -2.889   3.954  25.823  0.00  0.00    +0.451 C 
ATOM     28  F   UNL     1      -3.629   3.748  26.122  0.00  0.00    -0.163 F 
ATOM     29  F   UNL     1      -3.164   3.829  25.056  0.00  0.00    -0.163 F 
ATOM     30  F   UNL     1      -2.614   4.080  26.591  0.00  0.00    -0.163 F 
ENDBRANCH  25  27
ENDBRANCH   5   4
BRANCH  12  14
ATOM     14  O   UNL     1      -1.145   0.120  25.404  0.00  0.00    -0.475 OA
BRANCH  14  15
ATOM     15  C   UNL     1      -1.691  -0.465  25.204  0.00  0.00    +0.139 A 
ATOM     16  C   UNL     1      -1.447  -1.127  24.777  0.00  0.00    +0.038 A 
ATOM     17  C   UNL     1      -1.993  -1.712  24.577  0.00  0.00    +0.021 A 
ATOM     18  C   UNL     1      -2.783  -1.635  24.803  0.00  0.00    +0.106 A 
ATOM     19  C   UNL     1      -3.026  -0.972  25.230  0.00  0.00    +0.021 A 
ATOM     20  C   UNL     1      -2.480  -0.387  25.430  0.00  0.00    +0.038 A 
BRANCH  18  21
ATOM     21  S   UNL     1      -3.329  -2.220  24.602  0.00  0.00    +0.010 S 
ATOM     22  C   UNL     1      -3.874  -2.806  24.402  0.00  0.00    +0.182 C 
ATOM     23  O   UNL     1      -3.074  -2.677  25.241  0.00  0.00    -0.169 OA
ATOM     24  O   UNL     1      -3.584  -1.764  23.964  0.00  0.00    -0.169 OA
ENDBRANCH  18  21
ENDBRANCH  14  15
ENDBRANCH  12  14
TORSDOF 5
ENDMDL
MODEL 3
REMARK VINA RESULT:     -11.2      2.529      5.270
REMARK  Name = 
REMARK  5 active torsions:
REMARK  status: ('A' for Active; 'I' for Inactive)
REMARK    1  A    between atoms: C_4  and  C_5
REMARK    2  A    between atoms: C_12  and  O_14
REMARK    3  A    between atoms: O_14  and  C_15
REMARK    4  A    between atoms: C_18  and  S_21
REMARK    5  A    between atoms: C_25  and  C_27
REMARK                            x       y       z     vdW  Elec       q    Type
REMARK                         _______ _______ _______ _____ _____    ______ ____
ROOT
ATOM      5  C   UNL     1      -2.736  -0.343  25.294  0.00  0.00    +0.252 C 
ATOM      6  O   UNL     1      -3.056   0.057  25.942  0.00  0.00    -0.270 OA
ATOM      7  N   UNL     1      -1.984  -0.147  25.019  0.00  0.00    -0.270 N 
ATOM      8  C   UNL     1      -1.715  -0.579  24.370  0.00  0.00    +0.126 C 
ATOM      9  C   UNL     1      -0.997  -0.516  23.970  0.00  0.00    +0.164 C 
ATOM     10  O   UNL     1      -0.367  -0.004  24.122  0.00  0.00    -0.348 OA
ATOM     11  C   UNL     1      -0.302   0.571  24.711  0.00  0.00    +0.187 C 
ATOM     12  C   UNL     1      -0.850   0.775  25.293  0.00  0.00    +0.215 C 
ATOM     13  C   UNL     1      -1.598   0.456  25.429  0.00  0.00    +0.140 C 
ENDROOT
BRANCH   5   4
ATOM      1  C   UNL     1      -3.543  -2.931  24.253  0.00  0.00    +0.072 C 
ATOM      2  C   UNL     1      -3.540  -2.129  24.444  0.00  0.00    +0.123 A 
ATOM      3  C   UNL     1      -2.945  -1.730  24.855  0.00  0.00    +0.040 A 
ATOM      4  C   UNL     1      -3.169  -0.938  24.923  0.00  0.00    +0.095 A 
ATOM     25  C   UNL     1      -3.900  -0.848  24.553  0.00  0.00    +0.220 A 
ATOM     26  O   UNL     1      -4.130  -1.583  24.257  0.00  0.00    -0.454 OA
BRANCH  25  27
ATOM     27  C   UNL     1      -4.328  -0.145  24.490  0.00  0.00    +0.451 C 
ATOM     28  F   UNL     1      -4.756   0.557  24.426  0.00  0.00    -0.163 F 
ATOM     29  F   UNL     1      -4.037  -0.037  23.726  0.00  0.00    -0.163 F 
ATOM     30  F   UNL     1      -4.619  -0.254  25.254  0.00  0.00    -0.163 F 
ENDBRANCH  25  27
ENDBRANCH   5   4
BRANCH  12  14
ATOM     14  O   UNL     1      -0.619   1.380  25.805  0.00  0.00    -0.475 OA
BRANCH  14  15
ATOM     15  C   UNL     1      -0.793   2.165  25.622  0.00  0.00    +0.139 A 
ATOM     16  C   UNL     1      -1.378   2.566  26.044  0.00  0.00    +0.038 A 
ATOM     17  C   UNL     1      -1.553   3.351  25.860  0.00  0.00    +0.021 A 
ATOM     18  C   UNL     1      -1.143   3.736  25.255  0.00  0.00    +0.106 A 
ATOM     19  C   UNL     1      -0.559   3.334  24.834  0.00  0.00    +0.021 A 
ATOM     20  C   UNL     1      -0.384   2.548  25.017  0.00  0.00    +0.038 A 
BRANCH  18  21
ATOM     21  S   UNL     1      -1.318   4.520  25.073  0.00  0.00    +0.010 S 
ATOM     22  C   UNL     1      -1.494   5.305  24.890  0.00  0.00    +0.182 C 
ATOM     23  O   UNL     1      -2.125   4.346  25.097  0.00  0.00    -0.169 OA
ATOM     24  O   UNL     1      -0.512   4.695  25.048  0.00  0.00    -0.169 OA
ENDBRANCH  18  21
ENDBRANCH  14  15
ENDBRANCH  12  14
TORSDOF 5
ENDMDL
MODEL 4
REMARK VINA RESULT:     -11.1      2.172      5.120
REMARK  Name = 
REMARK  5 active torsions:
REMARK  status: ('A' for Active; 'I' for Inactive)
REMARK    1  A    between atoms: C_4  and  C_5
REMARK    2  A    between atoms: C_12  and  O_14
REMARK    3  A    between atoms: O_14  and  C_15
REMARK    4  A    between atoms: C_18  and  S_21
REMARK    5  A    between atoms: C_25  and  C_27
REMARK                            x       y       z     vdW  Elec       q    Type
REMARK                         _______ _______ _______ _____ _____    ______ ____
ROOT
ATOM      5  C   UNL     1      -3.957  -0.173  25.059  0.00  0.00    +0.252 C 
ATOM      6  O   UNL     1      -4.247   0.050  25.799  0.00  0.00    -0.270 OA
ATOM      7  N   UNL     1      -3.734   0.403  24.513  0.00  0.00    -0.270 N 
ATOM      8  C   UNL     1      -3.452   0.121  23.790  0.00  0.00    +0.126 C 
ATOM      9  C   UNL     1      -3.188   0.551  23.137  0.00  0.00    +0.164 C 
ATOM     10  O   UNL     1      -3.142   1.370  23.045  0.00  0.00    -0.348 OA
ATOM     11  C   UNL     1      -3.347   1.960  23.584  0.00  0.00    +0.187 C 
ATOM     12  C   UNL     1      -3.650   1.878  24.347  0.00  0.00    +0.215 C 
ATOM     13  C   UNL     1      -3.822   1.184  24.760  0.00  0.00    +0.140 C 
ENDROOT
BRANCH   5   4
ATOM      1  C   UNL     1      -4.265  -2.721  23.699  0.00  0.00    +0.072 C 
ATOM      2  C   UNL     1      -4.032  -2.144  24.241  0.00  0.00    +0.123 A 
ATOM      3  C   UNL     1      -4.245  -1.347  24.221  0.00  0.00    +0.040 A 
ATOM      4  C   UNL     1      -3.891  -0.972  24.866  0.00  0.00    +0.095 A 
ATOM     25  C   UNL     1      -3.459  -1.538  25.283  0.00  0.00    +0.220 A 
ATOM     26  O   UNL     1      -3.547  -2.262  24.897  0.00  0.00    -0.454 OA
BRANCH  25  27
ATOM     27  C   UNL     1      -3.018  -1.404  25.967  0.00  0.00    +0.451 C 
ATOM     28  F   UNL     1      -2.576  -1.270  26.650  0.00  0.00    -0.163 F 
ATOM     29  F   UNL     1      -3.705  -1.450  26.420  0.00  0.00    -0.163 F 
ATOM     30  F   UNL     1      -2.330  -1.359  25.514  0.00  0.00    -0.163 F 
ENDBRANCH  25  27
ENDBRANCH   5   4
BRANCH  12  14
ATOM     14  O   UNL     1      -3.800   2.582  24.751  0.00  0.00    -0.475 OA
BRANCH  14  15
ATOM     15  C   UNL     1      -3.203   3.145  24.833  0.00  0.00    +0.139 A 
ATOM     16  C   UNL     1      -2.601   3.029  25.386  0.00  0.00    +0.038 A 
ATOM     17  C   UNL     1      -2.004   3.592  25.469  0.00  0.00    +0.021 A 
ATOM     18  C   UNL     1      -2.008   4.271  25.000  0.00  0.00    +0.106 A 
ATOM     19  C   UNL     1      -2.610   4.386  24.448  0.00  0.00    +0.021 A 
ATOM     20  C   UNL     1      -3.207   3.823  24.365  0.00  0.00    +0.038 A 
BRANCH  18  21
ATOM     21  S   UNL     1      -1.411   4.833  25.083  0.00  0.00    +0.010 S 
ATOM     22  C   UNL     1      -0.813   5.396  25.166  0.00  0.00    +0.182 C 
ATOM     23  O   UNL     1      -0.870   4.309  24.745  0.00  0.00    -0.169 OA
ATOM     24  O   UNL     1      -1.951   5.358  25.420  0.00  0.00    -0.169 OA
ENDBRANCH  18  21
ENDBRANCH  14  15
ENDBRANCH  12  14
TORSDOF 5
ENDMDL
