REMARK  Name = 
REMARK  7 active torsions:
REMARK  status: ('A' for Active; 'I' for Inactive)
REMARK    1  A    between atoms: C_2  and  C_3
REMARK    2  A    between atoms: C_3  and  C_4
REMARK    3  A    between atoms: C_9  and  C_10
REMARK    4  A    between atoms: C_10  and  C_11
REMARK    5  A    between atoms: C_14  and  C_15
REMARK    6  A    between atoms: C_15  and  C_16
REMARK    7  A    between atoms: N_23  and  C_24
REMARK                            x       y       z     vdW  Elec       q    Type
REMARK                         _______ _______ _______ _____ _____    ______ ____
ROOT
ATOM      4  C   UNL     1      -3.709  -4.562   0.000  0.00  0.00    +0.012 C 
ATOM      5  C   UNL     1      -4.423  -4.974   0.000  0.00  0.00    +0.019 C 
ATOM      6  C   UNL     1      -5.138  -4.562   0.000  0.00  0.00    +0.089 C 
ATOM      7  N   UNL     1      -5.138  -3.737   0.000  0.00  0.00    -0.218 NA
ATOM      8  C   UNL     1      -4.423  -3.324   0.000  0.00  0.00    +0.089 C 
ATOM      9  C   UNL     1      -3.709  -3.737   0.000  0.00  0.00    +0.024 C 
ENDROOT
BRANCH   4   3
ATOM      3  C   UNL     1      -2.994  -4.974   0.000  0.00  0.00    +0.087 C 
BRANCH   3   2
ATOM      1  O   UNL     1      -3.709  -6.212   0.000  0.00  0.00    -0.273 OA
ATOM      2  C   UNL     1      -2.994  -5.799   0.000  0.00  0.00    +0.241 C 
ATOM     23  N   UNL     1      -2.280  -6.212   0.000  0.00  0.00    -0.207 NA
BRANCH  23  24
ATOM     24  C   UNL     1      -2.280  -7.037   0.000  0.00  0.00    +0.095 C 
ATOM     25  C   UNL     1      -1.867  -7.751   0.000  0.00  0.00    +0.023 C 
ATOM     26  C   UNL     1      -2.692  -7.751   0.000  0.00  0.00    +0.023 C 
ENDBRANCH  23  24
ENDBRANCH   3   2
ENDBRANCH   4   3
BRANCH   9  10
ATOM     10  C   UNL     1      -2.994  -3.324   0.000  0.00  0.00    +0.051 C 
BRANCH  10  11
ATOM     11  C   UNL     1      -2.994  -2.499   0.000  0.00  0.00    +0.100 A 
ATOM     12  N   UNL     1      -3.662  -2.014   0.000  0.00  0.00    -0.082 NA
ATOM     13  O   UNL     1      -3.407  -1.230   0.000  0.00  0.00    -0.358 OA
ATOM     14  C   UNL     1      -2.582  -1.230   0.000  0.00  0.00    +0.154 A 
ATOM     22  C   UNL     1      -2.327  -2.014   0.000  0.00  0.00    +0.054 A 
BRANCH  14  15
ATOM     15  C   UNL     1      -2.097  -0.562   0.000  0.00  0.00    +0.067 C 
BRANCH  15  16
ATOM     16  C   UNL     1      -2.432   0.192   0.000  0.00  0.00    +0.008 C 
ATOM     17  C   UNL     1      -3.253   0.278   0.000  0.00  0.00    +0.000 C 
ATOM     18  C   UNL     1      -3.588   1.031   0.000  0.00  0.00    +0.000 C 
ATOM     19  C   UNL     1      -3.103   1.699   0.000  0.00  0.00    +0.000 C 
ATOM     20  C   UNL     1      -2.283   1.613   0.000  0.00  0.00    +0.000 C 
ATOM     21  C   UNL     1      -1.948   0.859   0.000  0.00  0.00    +0.000 C 
ENDBRANCH  15  16
ENDBRANCH  14  15
ENDBRANCH  10  11
ENDBRANCH   9  10
TORSDOF 7
