MODEL 1
REMARK VINA RESULT:      -8.8      0.000      0.000
REMARK  Name = 
REMARK  6 active torsions:
REMARK  status: ('A' for Active; 'I' for Inactive)
REMARK    1  A    between atoms: C_2  and  C_3
REMARK    2  A    between atoms: C_3  and  N_4
REMARK    3  A    between atoms: N_7  and  C_8
REMARK    4  A    between atoms: C_12  and  N_16
REMARK    5  A    between atoms: C_19  and  C_23
REMARK    6  A    between atoms: C_26  and  C_29
REMARK                            x       y       z     vdW  Elec       q    Type
REMARK                         _______ _______ _______ _____ _____    ______ ____
ROOT
ATOM     16  N   UNL     1      -0.197   0.652  23.285  0.00  0.00    -0.200 NA
ATOM     17  C   UNL     1      -0.701   0.375  23.876  0.00  0.00    +0.237 A 
ATOM     18  N   UNL     1      -1.421   0.752  24.015  0.00  0.00    -0.212 NA
ATOM     19  C   UNL     1      -1.925   0.475  24.606  0.00  0.00    +0.086 A 
ATOM     20  C   UNL     1      -1.709  -0.180  25.059  0.00  0.00    +0.040 A 
ATOM     21  C   UNL     1      -0.989  -0.558  24.920  0.00  0.00    +0.103 A 
ATOM     22  N   UNL     1      -0.485  -0.280  24.329  0.00  0.00    -0.211 NA
ENDROOT
BRANCH  16  12
ATOM      8  C   UNL     1       2.566   0.420  22.928  0.00  0.00    +0.156 C 
ATOM      9  C   UNL     1       2.460   1.227  23.057  0.00  0.00    +0.166 C 
ATOM     10  O   UNL     1       1.654   1.362  23.170  0.00  0.00    -0.350 OA
ATOM     11  C   UNL     1       1.263   0.639  23.112  0.00  0.00    +0.166 C 
ATOM     12  C   UNL     1       0.524   0.274  23.146  0.00  0.00    +0.154 C 
ATOM     13  C   UNL     1       0.630  -0.533  23.017  0.00  0.00    +0.166 C 
ATOM     14  O   UNL     1       1.436  -0.668  22.903  0.00  0.00    -0.350 OA
ATOM     15  C   UNL     1       1.827   0.056  22.962  0.00  0.00    +0.166 C 
BRANCH   8   7
ATOM      4  N   UNL     1       4.701  -0.035  22.979  0.00  0.00    -0.182 NA
ATOM      5  C   UNL     1       3.981   0.343  23.118  0.00  0.00    +0.340 C 
ATOM      6  O   UNL     1       3.954   1.022  23.586  0.00  0.00    -0.249 OA
ATOM      7  N   UNL     1       3.287   0.042  22.789  0.00  0.00    -0.184 NA
BRANCH   4   3
ATOM      3  C   UNL     1       5.395   0.266  23.309  0.00  0.00    +0.143 C 
BRANCH   3   2
ATOM      1  C   UNL     1       6.711  -0.284  23.224  0.00  0.00    -0.003 C 
ATOM      2  C   UNL     1       5.974  -0.247  23.593  0.00  0.00    -0.003 C 
ENDBRANCH   3   2
ENDBRANCH   4   3
ENDBRANCH   8   7
ENDBRANCH  16  12
BRANCH  19  23
ATOM     23  C   UNL     1      -2.645   0.852  24.745  0.00  0.00    +0.018 A 
ATOM     24  C   UNL     1      -2.675   1.676  24.806  0.00  0.00    +0.001 A 
ATOM     25  C   UNL     1      -3.395   2.053  24.945  0.00  0.00    +0.000 A 
ATOM     26  C   UNL     1      -4.085   1.609  25.023  0.00  0.00    +0.000 A 
ATOM     27  C   UNL     1      -4.056   0.786  24.962  0.00  0.00    +0.000 A 
ATOM     28  C   UNL     1      -3.335   0.409  24.823  0.00  0.00    +0.001 A 
BRANCH  26  29
ATOM     29  C   UNL     1      -4.805   1.986  25.162  0.00  0.00    +0.000 A 
ATOM     30  C   UNL     1      -4.817   2.747  25.480  0.00  0.00    +0.000 A 
ATOM     31  C   UNL     1      -5.538   3.125  25.619  0.00  0.00    +0.000 A 
ATOM     32  C   UNL     1      -6.246   2.741  25.441  0.00  0.00    +0.000 A 
ATOM     33  C   UNL     1      -6.234   1.979  25.123  0.00  0.00    +0.000 A 
ATOM     34  C   UNL     1      -5.514   1.602  24.985  0.00  0.00    +0.000 A 
ENDBRANCH  26  29
ENDBRANCH  19  23
TORSDOF 6
ENDMDL
MODEL 2
REMARK VINA RESULT:      -5.7      1.683      7.764
REMARK  Name = 
REMARK  6 active torsions:
REMARK  status: ('A' for Active; 'I' for Inactive)
REMARK    1  A    between atoms: C_2  and  C_3
REMARK    2  A    between atoms: C_3  and  N_4
REMARK    3  A    between atoms: N_7  and  C_8
REMARK    4  A    between atoms: C_12  and  N_16
REMARK    5  A    between atoms: C_19  and  C_23
REMARK    6  A    between atoms: C_26  and  C_29
REMARK                            x       y       z     vdW  Elec       q    Type
REMARK                         _______ _______ _______ _____ _____    ______ ____
ROOT
ATOM     16  N   UNL     1      -0.069   0.817  24.086  0.00  0.00    -0.200 NA
ATOM     17  C   UNL     1       0.397   0.466  23.503  0.00  0.00    +0.237 A 
ATOM     18  N   UNL     1       1.218   0.460  23.578  0.00  0.00    -0.212 NA
ATOM     19  C   UNL     1       1.684   0.109  22.995  0.00  0.00    +0.086 A 
ATOM     20  C   UNL     1       1.329  -0.237  22.336  0.00  0.00    +0.040 A 
ATOM     21  C   UNL     1       0.507  -0.231  22.260  0.00  0.00    +0.103 A 
ATOM     22  N   UNL     1       0.042   0.120  22.844  0.00  0.00    -0.211 NA
ENDROOT
BRANCH  16  12
ATOM      8  C   UNL     1      -2.643   1.906  23.994  0.00  0.00    +0.156 C 
ATOM      9  C   UNL     1      -2.164   2.563  24.129  0.00  0.00    +0.166 C 
ATOM     10  O   UNL     1      -1.381   2.305  24.167  0.00  0.00    -0.350 OA
ATOM     11  C   UNL     1      -1.376   1.488  24.056  0.00  0.00    +0.166 C 
ATOM     12  C   UNL     1      -0.891   0.823  24.010  0.00  0.00    +0.154 C 
ATOM     13  C   UNL     1      -1.369   0.165  23.876  0.00  0.00    +0.166 C 
ATOM     14  O   UNL     1      -2.152   0.424  23.838  0.00  0.00    -0.350 OA
ATOM     15  C   UNL     1      -2.156   1.241  23.949  0.00  0.00    +0.166 C 
BRANCH   8   7
ATOM      4  N   UNL     1      -4.755   2.191  24.463  0.00  0.00    -0.182 NA
ATOM      5  C   UNL     1      -3.934   2.185  24.539  0.00  0.00    +0.340 C 
ATOM      6  O   UNL     1      -3.582   2.453  25.236  0.00  0.00    -0.249 OA
ATOM      7  N   UNL     1      -3.464   1.911  23.919  0.00  0.00    -0.184 NA
BRANCH   4   3
ATOM      3  C   UNL     1      -5.225   2.465  25.084  0.00  0.00    +0.143 C 
BRANCH   3   2
ATOM      1  C   UNL     1      -6.372   2.180  25.887  0.00  0.00    -0.003 C 
ATOM      2  C   UNL     1      -6.010   2.220  25.146  0.00  0.00    -0.003 C 
ENDBRANCH   3   2
ENDBRANCH   4   3
ENDBRANCH   8   7
ENDBRANCH  16  12
BRANCH  19  23
ATOM     23  C   UNL     1       2.505   0.103  23.071  0.00  0.00    +0.018 A 
ATOM     24  C   UNL     1       2.890  -0.577  23.341  0.00  0.00    +0.001 A 
ATOM     25  C   UNL     1       3.711  -0.583  23.416  0.00  0.00    +0.000 A 
ATOM     26  C   UNL     1       4.149   0.089  23.223  0.00  0.00    +0.000 A 
ATOM     27  C   UNL     1       3.764   0.768  22.953  0.00  0.00    +0.000 A 
ATOM     28  C   UNL     1       2.943   0.774  22.878  0.00  0.00    +0.001 A 
BRANCH  26  29
ATOM     29  C   UNL     1       4.970   0.083  23.298  0.00  0.00    +0.000 A 
ATOM     30  C   UNL     1       5.437  -0.232  22.696  0.00  0.00    +0.000 A 
ATOM     31  C   UNL     1       6.259  -0.239  22.772  0.00  0.00    +0.000 A 
ATOM     32  C   UNL     1       6.613   0.071  23.449  0.00  0.00    +0.000 A 
ATOM     33  C   UNL     1       6.145   0.387  24.051  0.00  0.00    +0.000 A 
ATOM     34  C   UNL     1       5.324   0.393  23.976  0.00  0.00    +0.000 A 
ENDBRANCH  26  29
ENDBRANCH  19  23
TORSDOF 6
ENDMDL
MODEL 3
REMARK VINA RESULT:      -5.3      2.250      7.598
REMARK  Name = 
REMARK  6 active torsions:
REMARK  status: ('A' for Active; 'I' for Inactive)
REMARK    1  A    between atoms: C_2  and  C_3
REMARK    2  A    between atoms: C_3  and  N_4
REMARK    3  A    between atoms: N_7  and  C_8
REMARK    4  A    between atoms: C_12  and  N_16
REMARK    5  A    between atoms: C_19  and  C_23
REMARK    6  A    between atoms: C_26  and  C_29
REMARK                            x       y       z     vdW  Elec       q    Type
REMARK                         _______ _______ _______ _____ _____    ______ ____
ROOT
ATOM     16  N   UNL     1      -1.417   1.868  23.262  0.00  0.00    -0.200 NA
ATOM     17  C   UNL     1      -0.989   1.194  23.470  0.00  0.00    +0.237 A 
ATOM     18  N   UNL     1      -0.176   1.164  23.334  0.00  0.00    -0.212 NA
ATOM     19  C   UNL     1       0.253   0.490  23.542  0.00  0.00    +0.086 A 
ATOM     20  C   UNL     1      -0.132  -0.153  23.886  0.00  0.00    +0.040 A 
ATOM     21  C   UNL     1      -0.946  -0.123  24.022  0.00  0.00    +0.103 A 
ATOM     22  N   UNL     1      -1.373   0.551  23.813  0.00  0.00    -0.211 NA
ENDROOT
BRANCH  16  12
ATOM      8  C   UNL     1      -3.821   2.821  24.326  0.00  0.00    +0.156 C 
ATOM      9  C   UNL     1      -3.257   3.335  24.641  0.00  0.00    +0.166 C 
ATOM     10  O   UNL     1      -2.517   3.103  24.360  0.00  0.00    -0.350 OA
ATOM     11  C   UNL     1      -2.622   2.447  23.873  0.00  0.00    +0.166 C 
ATOM     12  C   UNL     1      -2.231   1.898  23.398  0.00  0.00    +0.154 C 
ATOM     13  C   UNL     1      -2.794   1.384  23.082  0.00  0.00    +0.166 C 
ATOM     14  O   UNL     1      -3.534   1.616  23.363  0.00  0.00    -0.350 OA
ATOM     15  C   UNL     1      -3.428   2.273  23.851  0.00  0.00    +0.166 C 
BRANCH   8   7
ATOM      4  N   UNL     1      -5.745   2.740  25.354  0.00  0.00    -0.182 NA
ATOM      5  C   UNL     1      -4.932   2.710  25.218  0.00  0.00    +0.340 C 
ATOM      6  O   UNL     1      -4.415   2.539  25.839  0.00  0.00    -0.249 OA
ATOM      7  N   UNL     1      -4.634   2.851  24.461  0.00  0.00    -0.184 NA
BRANCH   4   3
ATOM      3  C   UNL     1      -6.042   2.599  26.111  0.00  0.00    +0.143 C 
BRANCH   3   2
ATOM      1  C   UNL     1      -6.763   1.685  26.940  0.00  0.00    -0.003 C 
ATOM      2  C   UNL     1      -6.666   2.070  26.217  0.00  0.00    -0.003 C 
ENDBRANCH   3   2
ENDBRANCH   4   3
ENDBRANCH   8   7
ENDBRANCH  16  12
BRANCH  19  23
ATOM     23  C   UNL     1       1.065   0.460  23.406  0.00  0.00    +0.018 A 
ATOM     24  C   UNL     1       1.558   1.045  23.718  0.00  0.00    +0.001 A 
ATOM     25  C   UNL     1       2.371   1.015  23.582  0.00  0.00    +0.000 A 
ATOM     26  C   UNL     1       2.692   0.401  23.135  0.00  0.00    +0.000 A 
ATOM     27  C   UNL     1       2.200  -0.184  22.824  0.00  0.00    +0.000 A 
ATOM     28  C   UNL     1       1.387  -0.154  22.960  0.00  0.00    +0.001 A 
BRANCH  26  29
ATOM     29  C   UNL     1       3.505   0.370  23.000  0.00  0.00    +0.000 A 
ATOM     30  C   UNL     1       3.972  -0.170  23.413  0.00  0.00    +0.000 A 
ATOM     31  C   UNL     1       4.786  -0.200  23.277  0.00  0.00    +0.000 A 
ATOM     32  C   UNL     1       5.131   0.309  22.728  0.00  0.00    +0.000 A 
ATOM     33  C   UNL     1       4.664   0.849  22.315  0.00  0.00    +0.000 A 
ATOM     34  C   UNL     1       3.851   0.879  22.451  0.00  0.00    +0.000 A 
ENDBRANCH  26  29
ENDBRANCH  19  23
TORSDOF 6
ENDMDL
MODEL 4
REMARK VINA RESULT:      -5.0     15.219     15.812
REMARK  Name = 
REMARK  6 active torsions:
REMARK  status: ('A' for Active; 'I' for Inactive)
REMARK    1  A    between atoms: C_2  and  C_3
REMARK    2  A    between atoms: C_3  and  N_4
REMARK    3  A    between atoms: N_7  and  C_8
REMARK    4  A    between atoms: C_12  and  N_16
REMARK    5  A    between atoms: C_19  and  C_23
REMARK    6  A    between atoms: C_26  and  C_29
REMARK                            x       y       z     vdW  Elec       q    Type
REMARK                         _______ _______ _______ _____ _____    ______ ____
ROOT
ATOM     16  N   UNL     1      -5.550 -10.595  13.756  0.00  0.00    -0.200 NA
ATOM     17  C   UNL     1      -6.265 -10.185  13.740  0.00  0.00    +0.237 A 
ATOM     18  N   UNL     1      -6.791 -10.247  14.372  0.00  0.00    -0.212 NA
ATOM     19  C   UNL     1      -7.507  -9.837  14.355  0.00  0.00    +0.086 A 
ATOM     20  C   UNL     1      -7.697  -9.365  13.706  0.00  0.00    +0.040 A 
ATOM     21  C   UNL     1      -7.170  -9.303  13.073  0.00  0.00    +0.103 A 
ATOM     22  N   UNL     1      -6.455  -9.713  13.090  0.00  0.00    -0.211 NA
ENDROOT
BRANCH  16  12
ATOM      8  C   UNL     1      -3.078 -10.360  12.471  0.00  0.00    +0.156 C 
ATOM      9  C   UNL     1      -2.875 -10.371  13.271  0.00  0.00    +0.166 C 
ATOM     10  O   UNL     1      -3.570 -10.439  13.709  0.00  0.00    -0.350 OA
ATOM     11  C   UNL     1      -4.203 -10.471  13.181  0.00  0.00    +0.166 C 
ATOM     12  C   UNL     1      -5.023 -10.533  13.124  0.00  0.00    +0.154 C 
ATOM     13  C   UNL     1      -5.226 -10.523  12.324  0.00  0.00    +0.166 C 
ATOM     14  O   UNL     1      -4.530 -10.454  11.887  0.00  0.00    -0.350 OA
ATOM     15  C   UNL     1      -3.898 -10.422  12.416  0.00  0.00    +0.166 C 
BRANCH   8   7
ATOM      4  N   UNL     1      -1.377  -9.729  11.257  0.00  0.00    -0.182 NA
ATOM      5  C   UNL     1      -1.902  -9.791  11.889  0.00  0.00    +0.340 C 
ATOM      6  O   UNL     1      -1.780  -9.346  12.574  0.00  0.00    -0.249 OA
ATOM      7  N   UNL     1      -2.551 -10.298  11.839  0.00  0.00    -0.184 NA
BRANCH   4   3
ATOM      3  C   UNL     1      -0.728  -9.222  11.308  0.00  0.00    +0.143 C 
BRANCH   3   2
ATOM      1  C   UNL     1       0.531  -8.773  10.802  0.00  0.00    -0.003 C 
ATOM      2  C   UNL     1      -0.153  -9.227  10.717  0.00  0.00    -0.003 C 
ENDBRANCH   3   2
ENDBRANCH   4   3
ENDBRANCH   8   7
ENDBRANCH  16  12
BRANCH  19  23
ATOM     23  C   UNL     1      -8.033  -9.898  14.987  0.00  0.00    +0.018 A 
ATOM     24  C   UNL     1      -7.809  -9.635  15.738  0.00  0.00    +0.001 A 
ATOM     25  C   UNL     1      -8.334  -9.697  16.370  0.00  0.00    +0.000 A 
ATOM     26  C   UNL     1      -9.084 -10.021  16.254  0.00  0.00    +0.000 A 
ATOM     27  C   UNL     1      -9.308 -10.284  15.504  0.00  0.00    +0.000 A 
ATOM     28  C   UNL     1      -8.782 -10.222  14.871  0.00  0.00    +0.001 A 
BRANCH  26  29
ATOM     29  C   UNL     1      -9.610 -10.083  16.886  0.00  0.00    +0.000 A 
ATOM     30  C   UNL     1      -9.554 -10.719  17.408  0.00  0.00    +0.000 A 
ATOM     31  C   UNL     1     -10.080 -10.781  18.040  0.00  0.00    +0.000 A 
ATOM     32  C   UNL     1     -10.662 -10.206  18.150  0.00  0.00    +0.000 A 
ATOM     33  C   UNL     1     -10.718  -9.570  17.628  0.00  0.00    +0.000 A 
ATOM     34  C   UNL     1     -10.192  -9.508  16.996  0.00  0.00    +0.000 A 
ENDBRANCH  26  29
ENDBRANCH  19  23
TORSDOF 6
ENDMDL
