MODEL 1
REMARK VINA RESULT:     -11.3      0.000      0.000
REMARK  Name = 
REMARK  5 active torsions:
REMARK  status: ('A' for Active; 'I' for Inactive)
REMARK    1  A    between atoms: C_4  and  C_18
REMARK    2  A    between atoms: C_6  and  C_8
REMARK    3  A    between atoms: C_11  and  C_14
REMARK    4  A    between atoms: C_25  and  C_26
REMARK    5  A    between atoms: C_26  and  N_27
REMARK                            x       y       z     vdW  Elec       q    Type
REMARK                         _______ _______ _______ _____ _____    ______ ____
ROOT
ATOM     18  C   UNL     1      -1.113   1.996  24.263  0.00  0.00    +0.056 C 
ATOM     19  C   UNL     1      -1.049   1.904  23.493  0.00  0.00    +0.078 C 
ATOM     20  N   UNL     1      -0.620   1.498  24.070  0.00  0.00    -0.272 NA
ATOM     21  C   UNL     1      -0.942   1.854  25.003  0.00  0.00    +0.072 C 
ATOM     22  C   UNL     1      -0.910   1.847  25.655  0.00  0.00    +0.018 C 
ATOM     23  C   UNL     1      -0.688   1.595  24.823  0.00  0.00    +0.010 C 
ATOM     24  C   UNL     1      -0.069   0.976  24.760  0.00  0.00    +0.018 C 
ATOM     25  C   UNL     1       0.024   0.855  24.012  0.00  0.00    +0.079 C 
ENDROOT
BRANCH  18   4
ATOM      1  C   UNL     1      -1.705   4.616  25.243  0.00  0.00    +0.074 C 
ATOM      2  C   UNL     1      -1.957   3.862  25.022  0.00  0.00    +0.139 A 
ATOM      3  N   UNL     1      -1.410   3.307  24.753  0.00  0.00    -0.235 NA
ATOM      4  C   UNL     1      -1.662   2.552  24.533  0.00  0.00    +0.063 A 
ATOM      5  C   UNL     1      -2.460   2.354  24.581  0.00  0.00    +0.034 A 
ATOM      6  C   UNL     1      -3.007   2.909  24.850  0.00  0.00    +0.084 A 
ATOM      7  N   UNL     1      -2.756   3.663  25.071  0.00  0.00    -0.231 NA
BRANCH   6   8
ATOM      8  C   UNL     1      -3.807   2.711  24.898  0.00  0.00    +0.018 A 
ATOM      9  C   UNL     1      -4.192   2.724  25.628  0.00  0.00    +0.001 A 
ATOM     10  C   UNL     1      -4.991   2.526  25.678  0.00  0.00    +0.004 A 
ATOM     11  C   UNL     1      -5.406   2.315  24.996  0.00  0.00    +0.071 A 
ATOM     12  C   UNL     1      -5.022   2.301  24.267  0.00  0.00    +0.004 A 
ATOM     13  C   UNL     1      -4.222   2.499  24.218  0.00  0.00    +0.001 A 
BRANCH  11  14
ATOM     14  C   UNL     1      -6.206   2.117  25.046  0.00  0.00    +0.419 C 
ATOM     15  F   UNL     1      -7.005   1.918  25.095  0.00  0.00    -0.166 F 
ATOM     16  F   UNL     1      -6.368   2.855  25.378  0.00  0.00    -0.166 F 
ATOM     17  F   UNL     1      -6.043   1.379  24.713  0.00  0.00    -0.166 F 
ENDBRANCH  11  14
ENDBRANCH   6   8
ENDBRANCH  18   4
BRANCH  25  26
ATOM     26  C   UNL     1       0.455   0.406  23.471  0.00  0.00    +0.133 C 
BRANCH  26  27
ATOM     27  N   UNL     1       1.253   0.570  23.341  0.00  0.00    -0.187 NA
ATOM     28  C   UNL     1       1.658   0.187  22.733  0.00  0.00    +0.323 C 
ATOM     29  O   UNL     1       1.266  -0.360  22.256  0.00  0.00    -0.251 OA
ATOM     30  N   UNL     1       2.456   0.351  22.602  0.00  0.00    -0.258 N 
ATOM     31  C   UNL     1       2.862  -0.032  21.994  0.00  0.00    +0.127 C 
ATOM     32  C   UNL     1       3.660   0.132  21.864  0.00  0.00    +0.164 C 
ATOM     33  O   UNL     1       4.052   0.679  22.341  0.00  0.00    -0.350 OA
ATOM     34  C   UNL     1       3.646   1.062  22.949  0.00  0.00    +0.164 C 
ATOM     35  C   UNL     1       2.849   0.898  23.079  0.00  0.00    +0.127 C 
ENDBRANCH  26  27
ENDBRANCH  25  26
TORSDOF 5
ENDMDL
MODEL 2
REMARK VINA RESULT:     -10.6      1.615      2.580
REMARK  Name = 
REMARK  5 active torsions:
REMARK  status: ('A' for Active; 'I' for Inactive)
REMARK    1  A    between atoms: C_4  and  C_18
REMARK    2  A    between atoms: C_6  and  C_8
REMARK    3  A    between atoms: C_11  and  C_14
REMARK    4  A    between atoms: C_25  and  C_26
REMARK    5  A    between atoms: C_26  and  N_27
REMARK                            x       y       z     vdW  Elec       q    Type
REMARK                         _______ _______ _______ _____ _____    ______ ____
ROOT
ATOM     18  C   UNL     1       0.147   0.446  23.962  0.00  0.00    +0.056 C 
ATOM     19  C   UNL     1       0.658   1.022  24.073  0.00  0.00    +0.078 C 
ATOM     20  N   UNL     1       0.742   0.390  23.549  0.00  0.00    -0.272 NA
ATOM     21  C   UNL     1      -0.116  -0.205  23.641  0.00  0.00    +0.072 C 
ATOM     22  C   UNL     1      -0.465  -0.729  23.467  0.00  0.00    +0.018 C 
ATOM     23  C   UNL     1       0.237  -0.171  23.446  0.00  0.00    +0.010 C 
ATOM     24  C   UNL     1       0.880  -0.382  22.887  0.00  0.00    +0.018 C 
ATOM     25  C   UNL     1       1.407   0.164  22.966  0.00  0.00    +0.079 C 
ENDROOT
BRANCH  18   4
ATOM      1  C   UNL     1      -1.494  -0.643  26.034  0.00  0.00    +0.074 C 
ATOM      2  C   UNL     1      -1.367  -0.079  25.445  0.00  0.00    +0.139 A 
ATOM      3  N   UNL     1      -0.674  -0.098  24.998  0.00  0.00    -0.235 NA
ATOM      4  C   UNL     1      -0.547   0.466  24.409  0.00  0.00    +0.063 A 
ATOM      5  C   UNL     1      -1.113   1.048  24.267  0.00  0.00    +0.034 A 
ATOM      6  C   UNL     1      -1.806   1.068  24.714  0.00  0.00    +0.084 A 
ATOM      7  N   UNL     1      -1.933   0.504  25.303  0.00  0.00    -0.231 NA
BRANCH   6   8
ATOM      8  C   UNL     1      -2.372   1.650  24.573  0.00  0.00    +0.018 A 
ATOM      9  C   UNL     1      -2.276   2.405  24.891  0.00  0.00    +0.001 A 
ATOM     10  C   UNL     1      -2.842   2.989  24.750  0.00  0.00    +0.004 A 
ATOM     11  C   UNL     1      -3.505   2.817  24.290  0.00  0.00    +0.071 A 
ATOM     12  C   UNL     1      -3.601   2.062  23.972  0.00  0.00    +0.004 A 
ATOM     13  C   UNL     1      -3.035   1.479  24.113  0.00  0.00    +0.001 A 
BRANCH  11  14
ATOM     14  C   UNL     1      -4.071   3.400  24.149  0.00  0.00    +0.419 C 
ATOM     15  F   UNL     1      -4.637   3.984  24.007  0.00  0.00    -0.166 F 
ATOM     16  F   UNL     1      -4.261   3.411  24.952  0.00  0.00    -0.166 F 
ATOM     17  F   UNL     1      -3.882   3.389  23.346  0.00  0.00    -0.166 F 
ENDBRANCH  11  14
ENDBRANCH   6   8
ENDBRANCH  18   4
BRANCH  25  26
ATOM     26  C   UNL     1       2.144   0.407  22.688  0.00  0.00    +0.133 C 
BRANCH  26  27
ATOM     27  N   UNL     1       2.833   0.068  22.991  0.00  0.00    -0.187 NA
ATOM     28  C   UNL     1       3.562   0.429  22.858  0.00  0.00    +0.323 C 
ATOM     29  O   UNL     1       3.604   1.129  22.422  0.00  0.00    -0.251 OA
ATOM     30  N   UNL     1       4.251   0.090  23.161  0.00  0.00    -0.258 N 
ATOM     31  C   UNL     1       4.981   0.451  23.029  0.00  0.00    +0.127 C 
ATOM     32  C   UNL     1       5.670   0.112  23.332  0.00  0.00    +0.164 C 
ATOM     33  O   UNL     1       5.628  -0.587  23.768  0.00  0.00    -0.350 OA
ATOM     34  C   UNL     1       4.897  -0.948  23.900  0.00  0.00    +0.164 C 
ATOM     35  C   UNL     1       4.209  -0.609  23.597  0.00  0.00    +0.127 C 
ENDBRANCH  26  27
ENDBRANCH  25  26
TORSDOF 5
ENDMDL
MODEL 3
REMARK VINA RESULT:     -10.6      3.975      4.913
REMARK  Name = 
REMARK  5 active torsions:
REMARK  status: ('A' for Active; 'I' for Inactive)
REMARK    1  A    between atoms: C_4  and  C_18
REMARK    2  A    between atoms: C_6  and  C_8
REMARK    3  A    between atoms: C_11  and  C_14
REMARK    4  A    between atoms: C_25  and  C_26
REMARK    5  A    between atoms: C_26  and  N_27
REMARK                            x       y       z     vdW  Elec       q    Type
REMARK                         _______ _______ _______ _____ _____    ______ ____
ROOT
ATOM     18  C   UNL     1      -4.527   1.631  24.789  0.00  0.00    +0.056 C 
ATOM     19  C   UNL     1      -4.128   1.371  24.173  0.00  0.00    +0.078 C 
ATOM     20  N   UNL     1      -4.573   0.912  24.694  0.00  0.00    -0.272 NA
ATOM     21  C   UNL     1      -4.981   1.562  25.410  0.00  0.00    +0.072 C 
ATOM     22  C   UNL     1      -5.344   1.664  25.942  0.00  0.00    +0.018 C 
ATOM     23  C   UNL     1      -4.961   1.174  25.296  0.00  0.00    +0.010 C 
ATOM     24  C   UNL     1      -5.117   0.310  25.323  0.00  0.00    +0.018 C 
ATOM     25  C   UNL     1      -4.740   0.015  24.728  0.00  0.00    +0.079 C 
ENDROOT
BRANCH  18   4
ATOM      1  C   UNL     1      -5.882   4.075  25.392  0.00  0.00    +0.074 C 
ATOM      2  C   UNL     1      -5.182   3.665  25.240  0.00  0.00    +0.139 A 
ATOM      3  N   UNL     1      -5.204   2.854  25.091  0.00  0.00    -0.235 NA
ATOM      4  C   UNL     1      -4.505   2.443  24.938  0.00  0.00    +0.063 A 
ATOM      5  C   UNL     1      -3.784   2.843  24.935  0.00  0.00    +0.034 A 
ATOM      6  C   UNL     1      -3.762   3.654  25.085  0.00  0.00    +0.084 A 
ATOM      7  N   UNL     1      -4.461   4.065  25.237  0.00  0.00    -0.231 NA
BRANCH   6   8
ATOM      8  C   UNL     1      -3.041   4.055  25.082  0.00  0.00    +0.018 A 
ATOM      9  C   UNL     1      -2.744   4.365  24.377  0.00  0.00    +0.001 A 
ATOM     10  C   UNL     1      -2.023   4.766  24.373  0.00  0.00    +0.004 A 
ATOM     11  C   UNL     1      -1.599   4.858  25.075  0.00  0.00    +0.071 A 
ATOM     12  C   UNL     1      -1.896   4.548  25.779  0.00  0.00    +0.004 A 
ATOM     13  C   UNL     1      -2.617   4.147  25.783  0.00  0.00    +0.001 A 
BRANCH  11  14
ATOM     14  C   UNL     1      -0.878   5.259  25.071  0.00  0.00    +0.419 C 
ATOM     15  F   UNL     1      -0.158   5.661  25.068  0.00  0.00    -0.166 F 
ATOM     16  F   UNL     1      -0.477   4.539  25.023  0.00  0.00    -0.166 F 
ATOM     17  F   UNL     1      -1.279   5.978  25.120  0.00  0.00    -0.166 F 
ENDBRANCH  11  14
ENDBRANCH   6   8
ENDBRANCH  18   4
BRANCH  25  26
ATOM     26  C   UNL     1      -4.578  -0.696  24.344  0.00  0.00    +0.133 C 
BRANCH  26  27
ATOM     27  N   UNL     1      -3.843  -1.058  24.437  0.00  0.00    -0.187 NA
ATOM     28  C   UNL     1      -3.732  -1.836  24.186  0.00  0.00    +0.323 C 
ATOM     29  O   UNL     1      -4.356  -2.251  23.841  0.00  0.00    -0.251 OA
ATOM     30  N   UNL     1      -2.997  -2.198  24.279  0.00  0.00    -0.258 N 
ATOM     31  C   UNL     1      -2.885  -2.976  24.028  0.00  0.00    +0.127 C 
ATOM     32  C   UNL     1      -2.150  -3.339  24.121  0.00  0.00    +0.164 C 
ATOM     33  O   UNL     1      -1.526  -2.923  24.466  0.00  0.00    -0.350 OA
ATOM     34  C   UNL     1      -1.638  -2.145  24.717  0.00  0.00    +0.164 C 
ATOM     35  C   UNL     1      -2.372  -1.783  24.624  0.00  0.00    +0.127 C 
ENDBRANCH  26  27
ENDBRANCH  25  26
TORSDOF 5
ENDMDL
MODEL 4
REMARK VINA RESULT:     -10.3      1.632      2.116
REMARK  Name = 
REMARK  5 active torsions:
REMARK  status: ('A' for Active; 'I' for Inactive)
REMARK    1  A    between atoms: C_4  and  C_18
REMARK    2  A    between atoms: C_6  and  C_8
REMARK    3  A    between atoms: C_11  and  C_14
REMARK    4  A    between atoms: C_25  and  C_26
REMARK    5  A    between atoms: C_26  and  N_27
REMARK                            x       y       z     vdW  Elec       q    Type
REMARK                         _______ _______ _______ _____ _____    ______ ____
ROOT
ATOM     18  C   UNL     1      -1.559  -0.011  24.200  0.00  0.00    +0.056 C 
ATOM     19  C   UNL     1      -1.593  -0.063  23.424  0.00  0.00    +0.078 C 
ATOM     20  N   UNL     1      -0.906  -0.052  23.882  0.00  0.00    -0.272 NA
ATOM     21  C   UNL     1      -1.204   0.025  24.884  0.00  0.00    +0.072 C 
ATOM     22  C   UNL     1      -1.056   0.064  25.519  0.00  0.00    +0.018 C 
ATOM     23  C   UNL     1      -0.881  -0.001  24.642  0.00  0.00    +0.010 C 
ATOM     24  C   UNL     1      -0.033  -0.041  24.419  0.00  0.00    +0.018 C 
ATOM     25  C   UNL     1      -0.023  -0.093  23.658  0.00  0.00    +0.079 C 
ENDROOT
BRANCH  18   4
ATOM      1  C   UNL     1      -3.603  -1.247  25.770  0.00  0.00    +0.074 C 
ATOM      2  C   UNL     1      -3.297  -0.580  25.392  0.00  0.00    +0.139 A 
ATOM      3  N   UNL     1      -2.581  -0.629  24.985  0.00  0.00    -0.235 NA
ATOM      4  C   UNL     1      -2.276   0.038  24.607  0.00  0.00    +0.063 A 
ATOM      5  C   UNL     1      -2.685   0.753  24.636  0.00  0.00    +0.034 A 
ATOM      6  C   UNL     1      -3.401   0.801  25.043  0.00  0.00    +0.084 A 
ATOM      7  N   UNL     1      -3.707   0.135  25.421  0.00  0.00    -0.231 NA
BRANCH   6   8
ATOM      8  C   UNL     1      -3.812   1.516  25.072  0.00  0.00    +0.018 A 
ATOM      9  C   UNL     1      -3.489   2.161  25.473  0.00  0.00    +0.001 A 
ATOM     10  C   UNL     1      -3.899   2.877  25.503  0.00  0.00    +0.004 A 
ATOM     11  C   UNL     1      -4.633   2.947  25.132  0.00  0.00    +0.071 A 
ATOM     12  C   UNL     1      -4.955   2.302  24.731  0.00  0.00    +0.004 A 
ATOM     13  C   UNL     1      -4.545   1.587  24.701  0.00  0.00    +0.001 A 
BRANCH  11  14
ATOM     14  C   UNL     1      -5.043   3.662  25.161  0.00  0.00    +0.419 C 
ATOM     15  F   UNL     1      -5.453   4.378  25.191  0.00  0.00    -0.166 F 
ATOM     16  F   UNL     1      -5.552   3.347  25.730  0.00  0.00    -0.166 F 
ATOM     17  F   UNL     1      -4.534   3.976  24.593  0.00  0.00    -0.166 F 
ENDBRANCH  11  14
ENDBRANCH   6   8
ENDBRANCH  18   4
BRANCH  25  26
ATOM     26  C   UNL     1       0.487  -0.152  23.013  0.00  0.00    +0.133 C 
BRANCH  26  27
ATOM     27  N   UNL     1       1.263   0.122  23.073  0.00  0.00    -0.187 NA
ATOM     28  C   UNL     1       1.793  -0.003  22.454  0.00  0.00    +0.323 C 
ATOM     29  O   UNL     1       1.549  -0.401  21.774  0.00  0.00    -0.251 OA
ATOM     30  N   UNL     1       2.569   0.271  22.515  0.00  0.00    -0.258 N 
ATOM     31  C   UNL     1       3.101   0.146  21.895  0.00  0.00    +0.127 C 
ATOM     32  C   UNL     1       3.877   0.420  21.956  0.00  0.00    +0.164 C 
ATOM     33  O   UNL     1       4.121   0.818  22.636  0.00  0.00    -0.350 OA
ATOM     34  C   UNL     1       3.590   0.943  23.255  0.00  0.00    +0.164 C 
ATOM     35  C   UNL     1       2.815   0.669  23.194  0.00  0.00    +0.127 C 
ENDBRANCH  26  27
ENDBRANCH  25  26
TORSDOF 5
ENDMDL
MODEL 5
REMARK VINA RESULT:     -10.1      2.524      3.470
REMARK  Name = 
REMARK  5 active torsions:
REMARK  status: ('A' for Active; 'I' for Inactive)
REMARK    1  A    between atoms: C_4  and  C_18
REMARK    2  A    between atoms: C_6  and  C_8
REMARK    3  A    between atoms: C_11  and  C_14
REMARK    4  A    between atoms: C_25  and  C_26
REMARK    5  A    between atoms: C_26  and  N_27
REMARK                            x       y       z     vdW  Elec       q    Type
REMARK                         _______ _______ _______ _____ _____    ______ ____
ROOT
ATOM     18  C   UNL     1      -1.385   1.715  24.939  0.00  0.00    +0.056 C 
ATOM     19  C   UNL     1      -1.682   1.277  24.368  0.00  0.00    +0.078 C 
ATOM     20  N   UNL     1      -1.167   1.023  24.961  0.00  0.00    -0.272 NA
ATOM     21  C   UNL     1      -0.958   1.852  25.567  0.00  0.00    +0.072 C 
ATOM     22  C   UNL     1      -0.654   2.118  26.081  0.00  0.00    +0.018 C 
ATOM     23  C   UNL     1      -0.880   1.458  25.517  0.00  0.00    +0.010 C 
ATOM     24  C   UNL     1      -0.528   0.672  25.683  0.00  0.00    +0.018 C 
ATOM     25  C   UNL     1      -0.797   0.208  25.140  0.00  0.00    +0.079 C 
ENDROOT
BRANCH  18   4
ATOM      1  C   UNL     1      -0.681   4.481  24.769  0.00  0.00    +0.074 C 
ATOM      2  C   UNL     1      -1.252   3.894  24.871  0.00  0.00    +0.139 A 
ATOM      3  N   UNL     1      -1.033   3.099  24.854  0.00  0.00    -0.235 NA
ATOM      4  C   UNL     1      -1.604   2.512  24.956  0.00  0.00    +0.063 A 
ATOM      5  C   UNL     1      -2.393   2.720  25.076  0.00  0.00    +0.034 A 
ATOM      6  C   UNL     1      -2.611   3.515  25.094  0.00  0.00    +0.084 A 
ATOM      7  N   UNL     1      -2.041   4.102  24.991  0.00  0.00    -0.231 NA
BRANCH   6   8
ATOM      8  C   UNL     1      -3.400   3.724  25.214  0.00  0.00    +0.018 A 
ATOM      9  C   UNL     1      -3.916   3.771  24.572  0.00  0.00    +0.001 A 
ATOM     10  C   UNL     1      -4.706   3.980  24.691  0.00  0.00    +0.004 A 
ATOM     11  C   UNL     1      -4.979   4.142  25.453  0.00  0.00    +0.071 A 
ATOM     12  C   UNL     1      -4.463   4.095  26.094  0.00  0.00    +0.004 A 
ATOM     13  C   UNL     1      -3.673   3.886  25.975  0.00  0.00    +0.001 A 
BRANCH  11  14
ATOM     14  C   UNL     1      -5.768   4.351  25.572  0.00  0.00    +0.419 C 
ATOM     15  F   UNL     1      -6.557   4.560  25.691  0.00  0.00    -0.166 F 
ATOM     16  F   UNL     1      -5.589   5.134  25.381  0.00  0.00    -0.166 F 
ATOM     17  F   UNL     1      -5.946   3.568  25.762  0.00  0.00    -0.166 F 
ENDBRANCH  11  14
ENDBRANCH   6   8
ENDBRANCH  18   4
BRANCH  25  26
ATOM     26  C   UNL     1      -0.769  -0.572  24.872  0.00  0.00    +0.133 C 
BRANCH  26  27
ATOM     27  N   UNL     1      -1.445  -1.044  24.904  0.00  0.00    -0.187 NA
ATOM     28  C   UNL     1      -1.458  -1.770  24.514  0.00  0.00    +0.323 C 
ATOM     29  O   UNL     1      -0.796  -2.025  24.092  0.00  0.00    -0.251 OA
ATOM     30  N   UNL     1      -2.134  -2.243  24.546  0.00  0.00    -0.258 N 
ATOM     31  C   UNL     1      -2.148  -2.970  24.155  0.00  0.00    +0.127 C 
ATOM     32  C   UNL     1      -2.824  -3.442  24.187  0.00  0.00    +0.164 C 
ATOM     33  O   UNL     1      -3.485  -3.187  24.609  0.00  0.00    -0.350 OA
ATOM     34  C   UNL     1      -3.471  -2.460  24.999  0.00  0.00    +0.164 C 
ATOM     35  C   UNL     1      -2.796  -1.988  24.967  0.00  0.00    +0.127 C 
ENDBRANCH  26  27
ENDBRANCH  25  26
TORSDOF 5
ENDMDL
MODEL 6
REMARK VINA RESULT:      -9.8      3.128      4.963
REMARK  Name = 
REMARK  5 active torsions:
REMARK  status: ('A' for Active; 'I' for Inactive)
REMARK    1  A    between atoms: C_4  and  C_18
REMARK    2  A    between atoms: C_6  and  C_8
REMARK    3  A    between atoms: C_11  and  C_14
REMARK    4  A    between atoms: C_25  and  C_26
REMARK    5  A    between atoms: C_26  and  N_27
REMARK                            x       y       z     vdW  Elec       q    Type
REMARK                         _______ _______ _______ _____ _____    ______ ____
ROOT
ATOM     18  C   UNL     1      -0.560   0.338  24.828  0.00  0.00    +0.056 C 
ATOM     19  C   UNL     1      -0.777   0.819  25.401  0.00  0.00    +0.078 C 
ATOM     20  N   UNL     1      -0.361   1.029  24.720  0.00  0.00    -0.272 NA
ATOM     21  C   UNL     1      -0.228   0.155  24.156  0.00  0.00    +0.072 C 
ATOM     22  C   UNL     1       0.002  -0.150  23.625  0.00  0.00    +0.018 C 
ATOM     23  C   UNL     1      -0.151   0.552  24.163  0.00  0.00    +0.010 C 
ATOM     24  C   UNL     1       0.158   1.325  23.885  0.00  0.00    +0.018 C 
ATOM     25  C   UNL     1      -0.036   1.829  24.425  0.00  0.00    +0.079 C 
ENDROOT
BRANCH  18   4
ATOM      1  C   UNL     1       0.124  -2.329  25.598  0.00  0.00    +0.074 C 
ATOM      2  C   UNL     1      -0.422  -1.791  25.291  0.00  0.00    +0.139 A 
ATOM      3  N   UNL     1      -0.218  -0.996  25.213  0.00  0.00    -0.235 NA
ATOM      4  C   UNL     1      -0.764  -0.459  24.906  0.00  0.00    +0.063 A 
ATOM      5  C   UNL     1      -1.513  -0.716  24.677  0.00  0.00    +0.034 A 
ATOM      6  C   UNL     1      -1.716  -1.512  24.754  0.00  0.00    +0.084 A 
ATOM      7  N   UNL     1      -1.171  -2.050  25.061  0.00  0.00    -0.231 NA
BRANCH   6   8
ATOM      8  C   UNL     1      -2.465  -1.771  24.525  0.00  0.00    +0.018 A 
ATOM      9  C   UNL     1      -3.120  -1.278  24.622  0.00  0.00    +0.001 A 
ATOM     10  C   UNL     1      -3.869  -1.536  24.393  0.00  0.00    +0.004 A 
ATOM     11  C   UNL     1      -3.964  -2.288  24.067  0.00  0.00    +0.071 A 
ATOM     12  C   UNL     1      -3.310  -2.781  23.970  0.00  0.00    +0.004 A 
ATOM     13  C   UNL     1      -2.561  -2.522  24.199  0.00  0.00    +0.001 A 
BRANCH  11  14
ATOM     14  C   UNL     1      -4.714  -2.546  23.838  0.00  0.00    +0.419 C 
ATOM     15  F   UNL     1      -5.463  -2.803  23.609  0.00  0.00    -0.166 F 
ATOM     16  F   UNL     1      -4.446  -3.327  23.843  0.00  0.00    -0.166 F 
ATOM     17  F   UNL     1      -4.980  -1.765  23.833  0.00  0.00    -0.166 F 
ENDBRANCH  11  14
ENDBRANCH   6   8
ENDBRANCH  18   4
BRANCH  25  26
ATOM     26  C   UNL     1       0.016   2.627  24.624  0.00  0.00    +0.133 C 
BRANCH  26  27
ATOM     27  N   UNL     1      -0.648   3.028  24.904  0.00  0.00    -0.187 NA
ATOM     28  C   UNL     1      -0.684   3.850  24.856  0.00  0.00    +0.323 C 
ATOM     29  O   UNL     1      -0.057   4.273  24.527  0.00  0.00    -0.251 OA
ATOM     30  N   UNL     1      -1.349   4.251  25.136  0.00  0.00    -0.258 N 
ATOM     31  C   UNL     1      -1.386   5.074  25.088  0.00  0.00    +0.127 C 
ATOM     32  C   UNL     1      -2.050   5.475  25.369  0.00  0.00    +0.164 C 
ATOM     33  O   UNL     1      -2.678   5.052  25.698  0.00  0.00    -0.350 OA
ATOM     34  C   UNL     1      -2.641   4.229  25.746  0.00  0.00    +0.164 C 
ATOM     35  C   UNL     1      -1.977   3.829  25.466  0.00  0.00    +0.127 C 
ENDBRANCH  26  27
ENDBRANCH  25  26
TORSDOF 5
ENDMDL
MODEL 7
REMARK VINA RESULT:      -9.4      3.970      7.290
REMARK  Name = 
REMARK  5 active torsions:
REMARK  status: ('A' for Active; 'I' for Inactive)
REMARK    1  A    between atoms: C_4  and  C_18
REMARK    2  A    between atoms: C_6  and  C_8
REMARK    3  A    between atoms: C_11  and  C_14
REMARK    4  A    between atoms: C_25  and  C_26
REMARK    5  A    between atoms: C_26  and  N_27
REMARK                            x       y       z     vdW  Elec       q    Type
REMARK                         _______ _______ _______ _____ _____    ______ ____
ROOT
ATOM     18  C   UNL     1       0.443   0.754  23.635  0.00  0.00    +0.056 C 
ATOM     19  C   UNL     1       0.431   1.531  23.677  0.00  0.00    +0.078 C 
ATOM     20  N   UNL     1      -0.055   1.012  24.097  0.00  0.00    -0.272 NA
ATOM     21  C   UNL     1       0.214   0.039  23.814  0.00  0.00    +0.072 C 
ATOM     22  C   UNL     1       0.135  -0.608  23.859  0.00  0.00    +0.018 C 
ATOM     23  C   UNL     1      -0.037   0.251  24.050  0.00  0.00    +0.010 C 
ATOM     24  C   UNL     1      -0.675   0.396  24.635  0.00  0.00    +0.018 C 
ATOM     25  C   UNL     1      -0.719   1.155  24.706  0.00  0.00    +0.079 C 
ENDROOT
BRANCH  18   4
ATOM      1  C   UNL     1       1.030  -0.680  21.232  0.00  0.00    +0.074 C 
ATOM      2  C   UNL     1       1.286  -0.304  21.921  0.00  0.00    +0.139 A 
ATOM      3  N   UNL     1       0.737   0.037  22.433  0.00  0.00    -0.235 NA
ATOM      4  C   UNL     1       0.993   0.412  23.122  0.00  0.00    +0.063 A 
ATOM      5  C   UNL     1       1.798   0.447  23.298  0.00  0.00    +0.034 A 
ATOM      6  C   UNL     1       2.347   0.106  22.786  0.00  0.00    +0.084 A 
ATOM      7  N   UNL     1       2.092  -0.270  22.097  0.00  0.00    -0.231 NA
BRANCH   6   8
ATOM      8  C   UNL     1       3.152   0.141  22.961  0.00  0.00    +0.018 A 
ATOM      9  C   UNL     1       3.522  -0.500  23.326  0.00  0.00    +0.001 A 
ATOM     10  C   UNL     1       4.328  -0.467  23.502  0.00  0.00    +0.004 A 
ATOM     11  C   UNL     1       4.764   0.208  23.312  0.00  0.00    +0.071 A 
ATOM     12  C   UNL     1       4.394   0.848  22.948  0.00  0.00    +0.004 A 
ATOM     13  C   UNL     1       3.588   0.815  22.772  0.00  0.00    +0.001 A 
BRANCH  11  14
ATOM     14  C   UNL     1       5.569   0.242  23.488  0.00  0.00    +0.419 C 
ATOM     15  F   UNL     1       6.374   0.276  23.665  0.00  0.00    -0.166 F 
ATOM     16  F   UNL     1       5.744  -0.085  22.751  0.00  0.00    -0.166 F 
ATOM     17  F   UNL     1       5.394   0.568  24.225  0.00  0.00    -0.166 F 
ENDBRANCH  11  14
ENDBRANCH   6   8
ENDBRANCH  18   4
BRANCH  25  26
ATOM     26  C   UNL     1      -1.128   1.752  25.101  0.00  0.00    +0.133 C 
BRANCH  26  27
ATOM     27  N   UNL     1      -1.915   1.910  24.909  0.00  0.00    -0.187 NA
ATOM     28  C   UNL     1      -2.296   2.563  25.240  0.00  0.00    +0.323 C 
ATOM     29  O   UNL     1      -1.891   3.057  25.762  0.00  0.00    -0.251 OA
ATOM     30  N   UNL     1      -3.082   2.721  25.049  0.00  0.00    -0.258 N 
ATOM     31  C   UNL     1      -3.464   3.374  25.379  0.00  0.00    +0.127 C 
ATOM     32  C   UNL     1      -4.251   3.533  25.188  0.00  0.00    +0.164 C 
ATOM     33  O   UNL     1      -4.656   3.038  24.666  0.00  0.00    -0.350 OA
ATOM     34  C   UNL     1      -4.274   2.386  24.336  0.00  0.00    +0.164 C 
ATOM     35  C   UNL     1      -3.488   2.227  24.527  0.00  0.00    +0.127 C 
ENDBRANCH  26  27
ENDBRANCH  25  26
TORSDOF 5
ENDMDL
MODEL 8
REMARK VINA RESULT:      -9.2      2.588      2.978
REMARK  Name = 
REMARK  5 active torsions:
REMARK  status: ('A' for Active; 'I' for Inactive)
REMARK    1  A    between atoms: C_4  and  C_18
REMARK    2  A    between atoms: C_6  and  C_8
REMARK    3  A    between atoms: C_11  and  C_14
REMARK    4  A    between atoms: C_25  and  C_26
REMARK    5  A    between atoms: C_26  and  N_27
REMARK                            x       y       z     vdW  Elec       q    Type
REMARK                         _______ _______ _______ _____ _____    ______ ____
ROOT
ATOM     18  C   UNL     1      -1.337   1.384  24.328  0.00  0.00    +0.056 C 
ATOM     19  C   UNL     1      -1.102   1.452  23.589  0.00  0.00    +0.078 C 
ATOM     20  N   UNL     1      -0.634   1.554  24.262  0.00  0.00    -0.272 NA
ATOM     21  C   UNL     1      -1.249   1.393  25.095  0.00  0.00    +0.072 C 
ATOM     22  C   UNL     1      -1.332   1.362  25.742  0.00  0.00    +0.018 C 
ATOM     23  C   UNL     1      -0.872   1.485  24.983  0.00  0.00    +0.010 C 
ATOM     24  C   UNL     1      -0.023   1.688  25.075  0.00  0.00    +0.018 C 
ATOM     25  C   UNL     1       0.248   1.765  24.365  0.00  0.00    +0.079 C 
ENDROOT
BRANCH  18   4
ATOM      1  C   UNL     1      -4.005   2.180  24.976  0.00  0.00    +0.074 C 
ATOM      2  C   UNL     1      -3.464   1.590  24.779  0.00  0.00    +0.139 A 
ATOM      3  N   UNL     1      -2.672   1.782  24.652  0.00  0.00    -0.235 NA
ATOM      4  C   UNL     1      -2.130   1.191  24.455  0.00  0.00    +0.063 A 
ATOM      5  C   UNL     1      -2.380   0.409  24.386  0.00  0.00    +0.034 A 
ATOM      6  C   UNL     1      -3.172   0.216  24.514  0.00  0.00    +0.084 A 
ATOM      7  N   UNL     1      -3.714   0.806  24.710  0.00  0.00    -0.231 NA
BRANCH   6   8
ATOM      8  C   UNL     1      -3.423  -0.567  24.445  0.00  0.00    +0.018 A 
ATOM      9  C   UNL     1      -3.747  -0.835  23.735  0.00  0.00    +0.001 A 
ATOM     10  C   UNL     1      -3.999  -1.617  23.665  0.00  0.00    +0.004 A 
ATOM     11  C   UNL     1      -3.926  -2.132  24.306  0.00  0.00    +0.071 A 
ATOM     12  C   UNL     1      -3.602  -1.864  25.015  0.00  0.00    +0.004 A 
ATOM     13  C   UNL     1      -3.351  -1.081  25.085  0.00  0.00    +0.001 A 
BRANCH  11  14
ATOM     14  C   UNL     1      -4.177  -2.915  24.236  0.00  0.00    +0.419 C 
ATOM     15  F   UNL     1      -4.428  -3.698  24.167  0.00  0.00    -0.166 F 
ATOM     16  F   UNL     1      -4.716  -2.690  23.653  0.00  0.00    -0.166 F 
ATOM     17  F   UNL     1      -3.638  -3.139  24.819  0.00  0.00    -0.166 F 
ENDBRANCH  11  14
ENDBRANCH   6   8
ENDBRANCH  18   4
BRANCH  25  26
ATOM     26  C   UNL     1       0.935   1.937  23.942  0.00  0.00    +0.133 C 
BRANCH  26  27
ATOM     27  N   UNL     1       1.400   1.324  23.643  0.00  0.00    -0.187 NA
ATOM     28  C   UNL     1       2.158   1.484  23.361  0.00  0.00    +0.323 C 
ATOM     29  O   UNL     1       2.452   2.254  23.377  0.00  0.00    -0.251 OA
ATOM     30  N   UNL     1       2.623   0.871  23.061  0.00  0.00    -0.258 N 
ATOM     31  C   UNL     1       3.382   1.030  22.779  0.00  0.00    +0.127 C 
ATOM     32  C   UNL     1       3.848   0.418  22.480  0.00  0.00    +0.164 C 
ATOM     33  O   UNL     1       3.554  -0.353  22.463  0.00  0.00    -0.350 OA
ATOM     34  C   UNL     1       2.795  -0.511  22.746  0.00  0.00    +0.164 C 
ATOM     35  C   UNL     1       2.330   0.100  23.044  0.00  0.00    +0.127 C 
ENDBRANCH  26  27
ENDBRANCH  25  26
TORSDOF 5
ENDMDL
