MODEL 1
REMARK VINA RESULT:     -10.9      0.000      0.000
REMARK  Name = 
REMARK  6 active torsions:
REMARK  status: ('A' for Active; 'I' for Inactive)
REMARK    1  A    between atoms: C_2  and  C_4
REMARK    2  A    between atoms: C_6  and  C_7
REMARK    3  A    between atoms: C_7  and  C_8
REMARK    4  A    between atoms: C_11  and  C_13
REMARK    5  A    between atoms: C_22  and  C_23
REMARK    6  A    between atoms: C_23  and  N_24
REMARK                            x       y       z     vdW  Elec       q    Type
REMARK                         _______ _______ _______ _____ _____    ______ ____
ROOT
ATOM      4  C   UNL     1      -3.265   1.365  23.667  0.00  0.00    +0.006 C 
ATOM      5  C   UNL     1      -3.517   2.064  24.024  0.00  0.00    +0.005 C 
ATOM      6  C   UNL     1      -4.103   2.042  24.606  0.00  0.00    +0.027 C 
ATOM     19  C   UNL     1      -4.436   1.321  24.829  0.00  0.00    -0.048 C 
ATOM     20  C   UNL     1      -5.020   1.300  25.410  0.00  0.00    +0.026 C 
ATOM     21  C   UNL     1      -4.183   0.622  24.471  0.00  0.00    -0.034 C 
ATOM     22  C   UNL     1      -3.598   0.644  23.890  0.00  0.00    +0.037 C 
ENDROOT
BRANCH   4   2
ATOM      1  C   UNL     1      -2.886   1.530  22.299  0.00  0.00    +0.000 C 
ATOM      2  C   UNL     1      -2.680   1.387  23.086  0.00  0.00    +0.000 C 
ATOM      3  C   UNL     1      -1.891   1.266  23.290  0.00  0.00    +0.000 C 
ENDBRANCH   4   2
BRANCH   6   7
ATOM      7  C   UNL     1      -4.354   2.742  24.963  0.00  0.00    +0.091 C 
BRANCH   7   8
ATOM      8  C   UNL     1      -3.803   3.259  25.292  0.00  0.00    +0.227 A 
ATOM      9  N   UNL     1      -3.803   3.538  26.069  0.00  0.00    -0.111 NA
ATOM     10  N   UNL     1      -3.154   4.040  26.159  0.00  0.00    -0.107 NA
ATOM     11  C   UNL     1      -2.754   4.071  25.438  0.00  0.00    +0.250 A 
ATOM     12  O   UNL     1      -3.155   3.588  24.902  0.00  0.00    -0.420 OA
BRANCH  11  13
ATOM     13  C   UNL     1      -2.072   4.508  25.281  0.00  0.00    +0.055 A 
ATOM     14  C   UNL     1      -1.338   4.133  25.260  0.00  0.00    +0.005 A 
ATOM     15  C   UNL     1      -0.655   4.569  25.102  0.00  0.00    +0.000 A 
ATOM     16  C   UNL     1      -0.708   5.382  24.965  0.00  0.00    +0.000 A 
ATOM     17  C   UNL     1      -1.442   5.757  24.986  0.00  0.00    +0.000 A 
ATOM     18  C   UNL     1      -2.125   5.319  25.144  0.00  0.00    +0.005 A 
ENDBRANCH  11  13
ENDBRANCH   7   8
ENDBRANCH   6   7
BRANCH  22  23
ATOM     23  C   UNL     1      -3.346  -0.055  23.533  0.00  0.00    +0.076 C 
BRANCH  23  24
ATOM     24  N   UNL     1      -3.408  -0.772  23.938  0.00  0.00    -0.270 NA
ATOM     25  C   UNL     1      -4.030  -1.288  23.770  0.00  0.00    +0.090 C 
ATOM     26  C   UNL     1      -4.092  -2.004  24.175  0.00  0.00    +0.090 C 
ATOM     27  N   UNL     1      -3.533  -2.204  24.748  0.00  0.00    -0.269 NA
ATOM     28  C   UNL     1      -3.595  -2.919  25.153  0.00  0.00    +0.090 C 
ATOM     29  C   UNL     1      -2.912  -1.688  24.915  0.00  0.00    +0.090 C 
ATOM     30  C   UNL     1      -2.850  -0.972  24.511  0.00  0.00    +0.090 C 
ENDBRANCH  23  24
ENDBRANCH  22  23
TORSDOF 6
ENDMDL
MODEL 2
REMARK VINA RESULT:     -10.9      1.453      5.481
REMARK  Name = 
REMARK  6 active torsions:
REMARK  status: ('A' for Active; 'I' for Inactive)
REMARK    1  A    between atoms: C_2  and  C_4
REMARK    2  A    between atoms: C_6  and  C_7
REMARK    3  A    between atoms: C_7  and  C_8
REMARK    4  A    between atoms: C_11  and  C_13
REMARK    5  A    between atoms: C_22  and  C_23
REMARK    6  A    between atoms: C_23  and  N_24
REMARK                            x       y       z     vdW  Elec       q    Type
REMARK                         _______ _______ _______ _____ _____    ______ ____
ROOT
ATOM      4  C   UNL     1      -1.607   1.572  24.585  0.00  0.00    +0.006 C 
ATOM      5  C   UNL     1      -2.189   1.122  24.213  0.00  0.00    +0.005 C 
ATOM      6  C   UNL     1      -2.850   1.494  23.885  0.00  0.00    +0.027 C 
ATOM     19  C   UNL     1      -2.928   2.314  23.930  0.00  0.00    -0.048 C 
ATOM     20  C   UNL     1      -3.587   2.684  23.603  0.00  0.00    +0.026 C 
ATOM     21  C   UNL     1      -2.344   2.763  24.303  0.00  0.00    -0.034 C 
ATOM     22  C   UNL     1      -1.684   2.393  24.630  0.00  0.00    +0.037 C 
ENDROOT
BRANCH   4   2
ATOM      1  C   UNL     1      -0.287   1.045  24.442  0.00  0.00    +0.000 C 
ATOM      2  C   UNL     1      -0.947   1.201  24.912  0.00  0.00    +0.000 C 
ATOM      3  C   UNL     1      -0.947   0.986  25.708  0.00  0.00    +0.000 C 
ENDBRANCH   4   2
BRANCH   6   7
ATOM      7  C   UNL     1      -3.433   1.044  23.513  0.00  0.00    +0.091 C 
BRANCH   7   8
ATOM      8  C   UNL     1      -3.740   0.377  23.886  0.00  0.00    +0.227 A 
ATOM      9  N   UNL     1      -4.390   0.362  24.395  0.00  0.00    -0.111 NA
ATOM     10  N   UNL     1      -4.504  -0.418  24.640  0.00  0.00    -0.107 NA
ATOM     11  C   UNL     1      -3.925  -0.885  24.283  0.00  0.00    +0.250 A 
ATOM     12  O   UNL     1      -3.453  -0.393  23.817  0.00  0.00    -0.420 OA
BRANCH  11  13
ATOM     13  C   UNL     1      -3.834  -1.699  24.375  0.00  0.00    +0.055 A 
ATOM     14  C   UNL     1      -4.173  -2.217  23.829  0.00  0.00    +0.005 A 
ATOM     15  C   UNL     1      -4.082  -3.032  23.920  0.00  0.00    +0.000 A 
ATOM     16  C   UNL     1      -3.651  -3.329  24.558  0.00  0.00    +0.000 A 
ATOM     17  C   UNL     1      -3.312  -2.813  25.104  0.00  0.00    +0.000 A 
ATOM     18  C   UNL     1      -3.404  -1.997  25.012  0.00  0.00    +0.005 A 
ENDBRANCH  11  13
ENDBRANCH   7   8
ENDBRANCH   6   7
BRANCH  22  23
ATOM     23  C   UNL     1      -1.102   2.841  25.002  0.00  0.00    +0.076 C 
BRANCH  23  24
ATOM     24  N   UNL     1      -1.156   3.666  25.008  0.00  0.00    -0.270 NA
ATOM     25  C   UNL     1      -0.696   4.113  24.489  0.00  0.00    +0.090 C 
ATOM     26  C   UNL     1      -0.750   4.936  24.495  0.00  0.00    +0.090 C 
ATOM     27  N   UNL     1      -1.265   5.312  25.019  0.00  0.00    -0.269 NA
ATOM     28  C   UNL     1      -1.320   6.134  25.025  0.00  0.00    +0.090 C 
ATOM     29  C   UNL     1      -1.725   4.864  25.537  0.00  0.00    +0.090 C 
ATOM     30  C   UNL     1      -1.670   4.041  25.532  0.00  0.00    +0.090 C 
ENDBRANCH  23  24
ENDBRANCH  22  23
TORSDOF 6
ENDMDL
MODEL 3
REMARK VINA RESULT:     -10.7      1.325      2.154
REMARK  Name = 
REMARK  6 active torsions:
REMARK  status: ('A' for Active; 'I' for Inactive)
REMARK    1  A    between atoms: C_2  and  C_4
REMARK    2  A    between atoms: C_6  and  C_7
REMARK    3  A    between atoms: C_7  and  C_8
REMARK    4  A    between atoms: C_11  and  C_13
REMARK    5  A    between atoms: C_22  and  C_23
REMARK    6  A    between atoms: C_23  and  N_24
REMARK                            x       y       z     vdW  Elec       q    Type
REMARK                         _______ _______ _______ _____ _____    ______ ____
ROOT
ATOM      4  C   UNL     1      -3.052   0.835  24.614  0.00  0.00    +0.006 C 
ATOM      5  C   UNL     1      -2.344   1.252  24.536  0.00  0.00    +0.005 C 
ATOM      6  C   UNL     1      -1.624   0.849  24.553  0.00  0.00    +0.027 C 
ATOM     19  C   UNL     1      -1.612   0.030  24.649  0.00  0.00    -0.048 C 
ATOM     20  C   UNL     1      -0.892  -0.373  24.666  0.00  0.00    +0.026 C 
ATOM     21  C   UNL     1      -2.320  -0.387  24.727  0.00  0.00    -0.034 C 
ATOM     22  C   UNL     1      -3.040   0.015  24.709  0.00  0.00    +0.037 C 
ENDROOT
BRANCH   4   2
ATOM      1  C   UNL     1      -4.163   1.413  25.302  0.00  0.00    +0.000 C 
ATOM      2  C   UNL     1      -3.771   1.238  24.596  0.00  0.00    +0.000 C 
ATOM      3  C   UNL     1      -4.099   1.466  23.875  0.00  0.00    +0.000 C 
ENDBRANCH   4   2
BRANCH   6   7
ATOM      7  C   UNL     1      -0.917   1.266  24.476  0.00  0.00    +0.091 C 
BRANCH   7   8
ATOM      8  C   UNL     1      -0.822   1.991  24.855  0.00  0.00    +0.227 A 
ATOM      9  N   UNL     1      -0.439   2.115  25.576  0.00  0.00    -0.111 NA
ATOM     10  N   UNL     1      -0.473   2.921  25.748  0.00  0.00    -0.107 NA
ATOM     11  C   UNL     1      -0.876   3.296  25.134  0.00  0.00    +0.250 A 
ATOM     12  O   UNL     1      -1.092   2.721  24.582  0.00  0.00    -0.420 OA
BRANCH  11  13
ATOM     13  C   UNL     1      -1.036   4.103  25.080  0.00  0.00    +0.055 A 
ATOM     14  C   UNL     1      -1.717   4.413  25.427  0.00  0.00    +0.005 A 
ATOM     15  C   UNL     1      -1.879   5.220  25.374  0.00  0.00    +0.000 A 
ATOM     16  C   UNL     1      -1.357   5.718  24.972  0.00  0.00    +0.000 A 
ATOM     17  C   UNL     1      -0.676   5.410  24.625  0.00  0.00    +0.000 A 
ATOM     18  C   UNL     1      -0.516   4.601  24.679  0.00  0.00    +0.005 A 
ENDBRANCH  11  13
ENDBRANCH   7   8
ENDBRANCH   6   7
BRANCH  22  23
ATOM     23  C   UNL     1      -3.747  -0.401  24.787  0.00  0.00    +0.076 C 
BRANCH  23  24
ATOM     24  N   UNL     1      -3.763  -1.216  24.652  0.00  0.00    -0.270 NA
ATOM     25  C   UNL     1      -3.965  -1.506  23.907  0.00  0.00    +0.090 C 
ATOM     26  C   UNL     1      -3.981  -2.320  23.772  0.00  0.00    +0.090 C 
ATOM     27  N   UNL     1      -3.796  -2.843  24.383  0.00  0.00    -0.269 NA
ATOM     28  C   UNL     1      -3.812  -3.656  24.249  0.00  0.00    +0.090 C 
ATOM     29  C   UNL     1      -3.594  -2.552  25.128  0.00  0.00    +0.090 C 
ATOM     30  C   UNL     1      -3.578  -1.738  25.263  0.00  0.00    +0.090 C 
ENDBRANCH  23  24
ENDBRANCH  22  23
TORSDOF 6
ENDMDL
MODEL 4
REMARK VINA RESULT:     -10.3      2.030      3.510
REMARK  Name = 
REMARK  6 active torsions:
REMARK  status: ('A' for Active; 'I' for Inactive)
REMARK    1  A    between atoms: C_2  and  C_4
REMARK    2  A    between atoms: C_6  and  C_7
REMARK    3  A    between atoms: C_7  and  C_8
REMARK    4  A    between atoms: C_11  and  C_13
REMARK    5  A    between atoms: C_22  and  C_23
REMARK    6  A    between atoms: C_23  and  N_24
REMARK                            x       y       z     vdW  Elec       q    Type
REMARK                         _______ _______ _______ _____ _____    ______ ____
ROOT
ATOM      4  C   UNL     1      -1.198   2.332  24.699  0.00  0.00    +0.006 C 
ATOM      5  C   UNL     1      -1.818   2.779  24.388  0.00  0.00    +0.005 C 
ATOM      6  C   UNL     1      -2.285   2.469  23.782  0.00  0.00    +0.027 C 
ATOM     19  C   UNL     1      -2.132   1.714  23.488  0.00  0.00    -0.048 C 
ATOM     20  C   UNL     1      -2.599   1.405  22.883  0.00  0.00    +0.026 C 
ATOM     21  C   UNL     1      -1.511   1.268  23.799  0.00  0.00    -0.034 C 
ATOM     22  C   UNL     1      -1.044   1.577  24.404  0.00  0.00    +0.037 C 
ENDROOT
BRANCH   4   2
ATOM      1  C   UNL     1       0.007   2.970  25.129  0.00  0.00    +0.000 C 
ATOM      2  C   UNL     1      -0.731   2.642  25.304  0.00  0.00    +0.000 C 
ATOM      3  C   UNL     1      -1.000   2.624  26.083  0.00  0.00    +0.000 C 
ENDBRANCH   4   2
BRANCH   6   7
ATOM      7  C   UNL     1      -2.905   2.916  23.472  0.00  0.00    +0.091 C 
BRANCH   7   8
ATOM      8  C   UNL     1      -3.564   3.086  23.936  0.00  0.00    +0.227 A 
ATOM      9  N   UNL     1      -3.843   3.840  24.125  0.00  0.00    -0.111 NA
ATOM     10  N   UNL     1      -4.513   3.752  24.600  0.00  0.00    -0.107 NA
ATOM     11  C   UNL     1      -4.647   2.945  24.705  0.00  0.00    +0.250 A 
ATOM     12  O   UNL     1      -4.061   2.533  24.295  0.00  0.00    -0.420 OA
BRANCH  11  13
ATOM     13  C   UNL     1      -5.259   2.608  25.143  0.00  0.00    +0.055 A 
ATOM     14  C   UNL     1      -5.757   2.050  24.795  0.00  0.00    +0.005 A 
ATOM     15  C   UNL     1      -6.370   1.712  25.231  0.00  0.00    +0.000 A 
ATOM     16  C   UNL     1      -6.485   1.934  26.018  0.00  0.00    +0.000 A 
ATOM     17  C   UNL     1      -5.988   2.492  26.367  0.00  0.00    +0.000 A 
ATOM     18  C   UNL     1      -5.375   2.829  25.929  0.00  0.00    +0.005 A 
ENDBRANCH  11  13
ENDBRANCH   7   8
ENDBRANCH   6   7
BRANCH  22  23
ATOM     23  C   UNL     1      -0.424   1.131  24.715  0.00  0.00    +0.076 C 
BRANCH  23  24
ATOM     24  N   UNL     1      -0.485   0.308  24.751  0.00  0.00    -0.270 NA
ATOM     25  C   UNL     1      -0.126  -0.157  24.172  0.00  0.00    +0.090 C 
ATOM     26  C   UNL     1      -0.187  -0.979  24.208  0.00  0.00    +0.090 C 
ATOM     27  N   UNL     1      -0.606  -1.336  24.823  0.00  0.00    -0.269 NA
ATOM     28  C   UNL     1      -0.667  -2.157  24.859  0.00  0.00    +0.090 C 
ATOM     29  C   UNL     1      -0.964  -0.869  25.401  0.00  0.00    +0.090 C 
ATOM     30  C   UNL     1      -0.904  -0.047  25.365  0.00  0.00    +0.090 C 
ENDBRANCH  23  24
ENDBRANCH  22  23
TORSDOF 6
ENDMDL
MODEL 5
REMARK VINA RESULT:     -10.2      1.184      5.423
REMARK  Name = 
REMARK  6 active torsions:
REMARK  status: ('A' for Active; 'I' for Inactive)
REMARK    1  A    between atoms: C_2  and  C_4
REMARK    2  A    between atoms: C_6  and  C_7
REMARK    3  A    between atoms: C_7  and  C_8
REMARK    4  A    between atoms: C_11  and  C_13
REMARK    5  A    between atoms: C_22  and  C_23
REMARK    6  A    between atoms: C_23  and  N_24
REMARK                            x       y       z     vdW  Elec       q    Type
REMARK                         _______ _______ _______ _____ _____    ______ ____
ROOT
ATOM      4  C   UNL     1      -4.053   2.809  25.018  0.00  0.00    +0.006 C 
ATOM      5  C   UNL     1      -4.268   2.162  24.554  0.00  0.00    +0.005 C 
ATOM      6  C   UNL     1      -3.721   1.830  24.030  0.00  0.00    +0.027 C 
ATOM     19  C   UNL     1      -2.962   2.147  23.972  0.00  0.00    -0.048 C 
ATOM     20  C   UNL     1      -2.416   1.816  23.450  0.00  0.00    +0.026 C 
ATOM     21  C   UNL     1      -2.748   2.794  24.437  0.00  0.00    -0.034 C 
ATOM     22  C   UNL     1      -3.293   3.125  24.959  0.00  0.00    +0.037 C 
ENDROOT
BRANCH   4   2
ATOM      1  C   UNL     1      -5.129   3.713  25.274  0.00  0.00    +0.000 C 
ATOM      2  C   UNL     1      -4.599   3.139  25.540  0.00  0.00    +0.000 C 
ATOM      3  C   UNL     1      -4.615   2.897  26.328  0.00  0.00    +0.000 C 
ENDBRANCH   4   2
BRANCH   6   7
ATOM      7  C   UNL     1      -3.936   1.183  23.566  0.00  0.00    +0.091 C 
BRANCH   7   8
ATOM      8  C   UNL     1      -4.144   0.470  23.923  0.00  0.00    +0.227 A 
ATOM      9  N   UNL     1      -4.874   0.295  24.267  0.00  0.00    -0.111 NA
ATOM     10  N   UNL     1      -4.840  -0.477  24.556  0.00  0.00    -0.107 NA
ATOM     11  C   UNL     1      -4.090  -0.779  24.391  0.00  0.00    +0.250 A 
ATOM     12  O   UNL     1      -3.660  -0.193  23.999  0.00  0.00    -0.420 OA
BRANCH  11  13
ATOM     13  C   UNL     1      -3.818  -1.534  24.582  0.00  0.00    +0.055 A 
ATOM     14  C   UNL     1      -3.920  -2.157  24.051  0.00  0.00    +0.005 A 
ATOM     15  C   UNL     1      -3.648  -2.912  24.242  0.00  0.00    +0.000 A 
ATOM     16  C   UNL     1      -3.273  -3.043  24.965  0.00  0.00    +0.000 A 
ATOM     17  C   UNL     1      -3.170  -2.422  25.497  0.00  0.00    +0.000 A 
ATOM     18  C   UNL     1      -3.443  -1.666  25.305  0.00  0.00    +0.005 A 
ENDBRANCH  11  13
ENDBRANCH   7   8
ENDBRANCH   6   7
BRANCH  22  23
ATOM     23  C   UNL     1      -3.079   3.772  25.424  0.00  0.00    +0.076 C 
BRANCH  23  24
ATOM     24  N   UNL     1      -2.363   4.160  25.286  0.00  0.00    -0.270 NA
ATOM     25  C   UNL     1      -2.349   4.852  24.837  0.00  0.00    +0.090 C 
ATOM     26  C   UNL     1      -1.634   5.239  24.700  0.00  0.00    +0.090 C 
ATOM     27  N   UNL     1      -0.933   4.935  25.012  0.00  0.00    -0.269 NA
ATOM     28  C   UNL     1      -0.219   5.323  24.875  0.00  0.00    +0.090 C 
ATOM     29  C   UNL     1      -0.948   4.244  25.461  0.00  0.00    +0.090 C 
ATOM     30  C   UNL     1      -1.664   3.856  25.598  0.00  0.00    +0.090 C 
ENDBRANCH  23  24
ENDBRANCH  22  23
TORSDOF 6
ENDMDL
MODEL 6
REMARK VINA RESULT:      -9.9      1.695      5.187
REMARK  Name = 
REMARK  6 active torsions:
REMARK  status: ('A' for Active; 'I' for Inactive)
REMARK    1  A    between atoms: C_2  and  C_4
REMARK    2  A    between atoms: C_6  and  C_7
REMARK    3  A    between atoms: C_7  and  C_8
REMARK    4  A    between atoms: C_11  and  C_13
REMARK    5  A    between atoms: C_22  and  C_23
REMARK    6  A    between atoms: C_23  and  N_24
REMARK                            x       y       z     vdW  Elec       q    Type
REMARK                         _______ _______ _______ _____ _____    ______ ____
ROOT
ATOM      4  C   UNL     1      -1.389   2.672  24.895  0.00  0.00    +0.006 C 
ATOM      5  C   UNL     1      -1.087   1.991  24.541  0.00  0.00    +0.005 C 
ATOM      6  C   UNL     1      -1.506   1.623  23.933  0.00  0.00    +0.027 C 
ATOM     19  C   UNL     1      -2.227   1.935  23.679  0.00  0.00    -0.048 C 
ATOM     20  C   UNL     1      -2.645   1.567  23.072  0.00  0.00    +0.026 C 
ATOM     21  C   UNL     1      -2.528   2.617  24.035  0.00  0.00    -0.034 C 
ATOM     22  C   UNL     1      -2.109   2.985  24.642  0.00  0.00    +0.037 C 
ENDROOT
BRANCH   4   2
ATOM      1  C   UNL     1      -0.563   3.744  25.356  0.00  0.00    +0.000 C 
ATOM      2  C   UNL     1      -0.970   3.040  25.503  0.00  0.00    +0.000 C 
ATOM      3  C   UNL     1      -0.957   2.707  26.256  0.00  0.00    +0.000 C 
ENDBRANCH   4   2
BRANCH   6   7
ATOM      7  C   UNL     1      -1.204   0.942  23.579  0.00  0.00    +0.091 C 
BRANCH   7   8
ATOM      8  C   UNL     1      -1.255   0.217  23.968  0.00  0.00    +0.227 A 
ATOM      9  N   UNL     1      -0.621  -0.210  24.280  0.00  0.00    -0.111 NA
ATOM     10  N   UNL     1      -0.922  -0.900  24.620  0.00  0.00    -0.107 NA
ATOM     11  C   UNL     1      -1.741  -0.899  24.516  0.00  0.00    +0.250 A 
ATOM     12  O   UNL     1      -1.946  -0.208  24.114  0.00  0.00    -0.420 OA
BRANCH  11  13
ATOM     13  C   UNL     1      -2.263  -1.484  24.771  0.00  0.00    +0.055 A 
ATOM     14  C   UNL     1      -2.781  -1.332  25.394  0.00  0.00    +0.005 A 
ATOM     15  C   UNL     1      -3.304  -1.917  25.650  0.00  0.00    +0.000 A 
ATOM     16  C   UNL     1      -3.307  -2.656  25.281  0.00  0.00    +0.000 A 
ATOM     17  C   UNL     1      -2.789  -2.809  24.657  0.00  0.00    +0.000 A 
ATOM     18  C   UNL     1      -2.267  -2.222  24.403  0.00  0.00    +0.005 A 
ENDBRANCH  11  13
ENDBRANCH   7   8
ENDBRANCH   6   7
BRANCH  22  23
ATOM     23  C   UNL     1      -2.411   3.666  24.996  0.00  0.00    +0.076 C 
BRANCH  23  24
ATOM     24  N   UNL     1      -3.225   3.746  25.111  0.00  0.00    -0.270 NA
ATOM     25  C   UNL     1      -3.578   3.434  25.789  0.00  0.00    +0.090 C 
ATOM     26  C   UNL     1      -4.391   3.514  25.904  0.00  0.00    +0.090 C 
ATOM     27  N   UNL     1      -4.851   3.905  25.341  0.00  0.00    -0.269 NA
ATOM     28  C   UNL     1      -5.663   3.985  25.455  0.00  0.00    +0.090 C 
ATOM     29  C   UNL     1      -4.497   4.217  24.664  0.00  0.00    +0.090 C 
ATOM     30  C   UNL     1      -3.684   4.137  24.549  0.00  0.00    +0.090 C 
ENDBRANCH  23  24
ENDBRANCH  22  23
TORSDOF 6
ENDMDL
MODEL 7
REMARK VINA RESULT:      -9.8      1.656      5.335
REMARK  Name = 
REMARK  6 active torsions:
REMARK  status: ('A' for Active; 'I' for Inactive)
REMARK    1  A    between atoms: C_2  and  C_4
REMARK    2  A    between atoms: C_6  and  C_7
REMARK    3  A    between atoms: C_7  and  C_8
REMARK    4  A    between atoms: C_11  and  C_13
REMARK    5  A    between atoms: C_22  and  C_23
REMARK    6  A    between atoms: C_23  and  N_24
REMARK                            x       y       z     vdW  Elec       q    Type
REMARK                         _______ _______ _______ _____ _____    ______ ____
ROOT
ATOM      4  C   UNL     1      -1.926   1.756  23.716  0.00  0.00    +0.006 C 
ATOM      5  C   UNL     1      -1.437   1.101  23.826  0.00  0.00    +0.005 C 
ATOM      6  C   UNL     1      -0.986   1.034  24.514  0.00  0.00    +0.027 C 
ATOM     19  C   UNL     1      -1.024   1.622  25.092  0.00  0.00    -0.048 C 
ATOM     20  C   UNL     1      -0.574   1.555  25.779  0.00  0.00    +0.026 C 
ATOM     21  C   UNL     1      -1.514   2.277  24.981  0.00  0.00    -0.034 C 
ATOM     22  C   UNL     1      -1.965   2.344  24.294  0.00  0.00    +0.037 C 
ENDROOT
BRANCH   4   2
ATOM      1  C   UNL     1      -3.138   1.505  23.003  0.00  0.00    +0.000 C 
ATOM      2  C   UNL     1      -2.377   1.822  23.029  0.00  0.00    +0.000 C 
ATOM      3  C   UNL     1      -2.067   2.204  22.368  0.00  0.00    +0.000 C 
ENDBRANCH   4   2
BRANCH   6   7
ATOM      7  C   UNL     1      -0.496   0.379  24.624  0.00  0.00    +0.091 C 
BRANCH   7   8
ATOM      8  C   UNL     1      -0.804  -0.382  24.556  0.00  0.00    +0.227 A 
ATOM      9  N   UNL     1      -0.412  -1.038  24.245  0.00  0.00    -0.111 NA
ATOM     10  N   UNL     1      -0.924  -1.684  24.284  0.00  0.00    -0.107 NA
ATOM     11  C   UNL     1      -1.633  -1.427  24.619  0.00  0.00    +0.250 A 
ATOM     12  O   UNL     1      -1.559  -0.622  24.787  0.00  0.00    -0.420 OA
BRANCH  11  13
ATOM     13  C   UNL     1      -2.299  -1.892  24.761  0.00  0.00    +0.055 A 
ATOM     14  C   UNL     1      -2.784  -1.732  25.409  0.00  0.00    +0.005 A 
ATOM     15  C   UNL     1      -3.450  -2.196  25.553  0.00  0.00    +0.000 A 
ATOM     16  C   UNL     1      -3.632  -2.822  25.046  0.00  0.00    +0.000 A 
ATOM     17  C   UNL     1      -3.148  -2.983  24.398  0.00  0.00    +0.000 A 
ATOM     18  C   UNL     1      -2.481  -2.517  24.256  0.00  0.00    +0.005 A 
ENDBRANCH  11  13
ENDBRANCH   7   8
ENDBRANCH   6   7
BRANCH  22  23
ATOM     23  C   UNL     1      -2.454   2.998  24.183  0.00  0.00    +0.076 C 
BRANCH  23  24
ATOM     24  N   UNL     1      -2.722   3.428  24.836  0.00  0.00    -0.270 NA
ATOM     25  C   UNL     1      -2.293   4.079  25.104  0.00  0.00    +0.090 C 
ATOM     26  C   UNL     1      -2.561   4.509  25.756  0.00  0.00    +0.090 C 
ATOM     27  N   UNL     1      -3.258   4.286  26.139  0.00  0.00    -0.269 NA
ATOM     28  C   UNL     1      -3.525   4.715  26.790  0.00  0.00    +0.090 C 
ATOM     29  C   UNL     1      -3.686   3.635  25.869  0.00  0.00    +0.090 C 
ATOM     30  C   UNL     1      -3.418   3.205  25.218  0.00  0.00    +0.090 C 
ENDBRANCH  23  24
ENDBRANCH  22  23
TORSDOF 6
ENDMDL
MODEL 8
REMARK VINA RESULT:      -9.5      1.451      2.440
REMARK  Name = 
REMARK  6 active torsions:
REMARK  status: ('A' for Active; 'I' for Inactive)
REMARK    1  A    between atoms: C_2  and  C_4
REMARK    2  A    between atoms: C_6  and  C_7
REMARK    3  A    between atoms: C_7  and  C_8
REMARK    4  A    between atoms: C_11  and  C_13
REMARK    5  A    between atoms: C_22  and  C_23
REMARK    6  A    between atoms: C_23  and  N_24
REMARK                            x       y       z     vdW  Elec       q    Type
REMARK                         _______ _______ _______ _____ _____    ______ ____
ROOT
ATOM      4  C   UNL     1      -3.541  -0.049  24.251  0.00  0.00    +0.006 C 
ATOM      5  C   UNL     1      -3.612   0.670  23.853  0.00  0.00    +0.005 C 
ATOM      6  C   UNL     1      -2.949   1.011  23.498  0.00  0.00    +0.027 C 
ATOM     19  C   UNL     1      -2.217   0.633  23.541  0.00  0.00    -0.048 C 
ATOM     20  C   UNL     1      -1.556   0.973  23.186  0.00  0.00    +0.026 C 
ATOM     21  C   UNL     1      -2.148  -0.087  23.939  0.00  0.00    -0.034 C 
ATOM     22  C   UNL     1      -2.809  -0.428  24.294  0.00  0.00    +0.037 C 
ENDROOT
BRANCH   4   2
ATOM      1  C   UNL     1      -4.446  -0.137  25.354  0.00  0.00    +0.000 C 
ATOM      2  C   UNL     1      -4.204  -0.390  24.606  0.00  0.00    +0.000 C 
ATOM      3  C   UNL     1      -4.623  -0.981  24.215  0.00  0.00    +0.000 C 
ENDBRANCH   4   2
BRANCH   6   7
ATOM      7  C   UNL     1      -3.019   1.730  23.100  0.00  0.00    +0.091 C 
BRANCH   7   8
ATOM      8  C   UNL     1      -3.217   2.414  23.516  0.00  0.00    +0.227 A 
ATOM      9  N   UNL     1      -3.857   2.911  23.357  0.00  0.00    -0.111 NA
ATOM     10  N   UNL     1      -3.844   3.526  23.907  0.00  0.00    -0.107 NA
ATOM     11  C   UNL     1      -3.197   3.410  24.405  0.00  0.00    +0.250 A 
ATOM     12  O   UNL     1      -2.809   2.722  24.163  0.00  0.00    -0.420 OA
BRANCH  11  13
ATOM     13  C   UNL     1      -2.976   3.895  25.034  0.00  0.00    +0.055 A 
ATOM     14  C   UNL     1      -2.320   4.390  24.963  0.00  0.00    +0.005 A 
ATOM     15  C   UNL     1      -2.098   4.876  25.592  0.00  0.00    +0.000 A 
ATOM     16  C   UNL     1      -2.534   4.865  26.293  0.00  0.00    +0.000 A 
ATOM     17  C   UNL     1      -3.190   4.371  26.366  0.00  0.00    +0.000 A 
ATOM     18  C   UNL     1      -3.411   3.885  25.735  0.00  0.00    +0.005 A 
ENDBRANCH  11  13
ENDBRANCH   7   8
ENDBRANCH   6   7
BRANCH  22  23
ATOM     23  C   UNL     1      -2.740  -1.146  24.691  0.00  0.00    +0.076 C 
BRANCH  23  24
ATOM     24  N   UNL     1      -1.992  -1.443  24.880  0.00  0.00    -0.270 NA
ATOM     25  C   UNL     1      -1.672  -2.062  24.438  0.00  0.00    +0.090 C 
ATOM     26  C   UNL     1      -0.925  -2.359  24.627  0.00  0.00    +0.090 C 
ATOM     27  N   UNL     1      -0.499  -2.036  25.256  0.00  0.00    -0.269 NA
ATOM     28  C   UNL     1       0.246  -2.332  25.444  0.00  0.00    +0.090 C 
ATOM     29  C   UNL     1      -0.821  -1.418  25.697  0.00  0.00    +0.090 C 
ATOM     30  C   UNL     1      -1.568  -1.121  25.509  0.00  0.00    +0.090 C 
ENDBRANCH  23  24
ENDBRANCH  22  23
TORSDOF 6
ENDMDL
MODEL 9
REMARK VINA RESULT:      -9.3      1.360      4.855
REMARK  Name = 
REMARK  6 active torsions:
REMARK  status: ('A' for Active; 'I' for Inactive)
REMARK    1  A    between atoms: C_2  and  C_4
REMARK    2  A    between atoms: C_6  and  C_7
REMARK    3  A    between atoms: C_7  and  C_8
REMARK    4  A    between atoms: C_11  and  C_13
REMARK    5  A    between atoms: C_22  and  C_23
REMARK    6  A    between atoms: C_23  and  N_24
REMARK                            x       y       z     vdW  Elec       q    Type
REMARK                         _______ _______ _______ _____ _____    ______ ____
ROOT
ATOM      4  C   UNL     1      -3.275   1.520  23.525  0.00  0.00    +0.006 C 
ATOM      5  C   UNL     1      -3.537   0.739  23.559  0.00  0.00    +0.005 C 
ATOM      6  C   UNL     1      -4.079   0.510  24.139  0.00  0.00    +0.027 C 
ATOM     19  C   UNL     1      -4.358   1.063  24.683  0.00  0.00    -0.048 C 
ATOM     20  C   UNL     1      -4.899   0.835  25.262  0.00  0.00    +0.026 C 
ATOM     21  C   UNL     1      -4.095   1.845  24.648  0.00  0.00    -0.034 C 
ATOM     22  C   UNL     1      -3.554   2.073  24.070  0.00  0.00    +0.037 C 
ENDROOT
BRANCH   4   2
ATOM      1  C   UNL     1      -3.002   2.086  22.242  0.00  0.00    +0.000 C 
ATOM      2  C   UNL     1      -2.734   1.748  22.946  0.00  0.00    +0.000 C 
ATOM      3  C   UNL     1      -1.927   1.638  23.069  0.00  0.00    +0.000 C 
ENDBRANCH   4   2
BRANCH   6   7
ATOM      7  C   UNL     1      -4.341  -0.271  24.172  0.00  0.00    +0.091 C 
BRANCH   7   8
ATOM      8  C   UNL     1      -3.796  -0.886  24.238  0.00  0.00    +0.227 A 
ATOM      9  N   UNL     1      -3.912  -1.665  23.988  0.00  0.00    -0.111 NA
ATOM     10  N   UNL     1      -3.227  -2.092  24.160  0.00  0.00    -0.107 NA
ATOM     11  C   UNL     1      -2.689  -1.577  24.516  0.00  0.00    +0.250 A 
ATOM     12  O   UNL     1      -3.041  -0.832  24.563  0.00  0.00    -0.420 OA
BRANCH  11  13
ATOM     13  C   UNL     1      -1.931  -1.773  24.778  0.00  0.00    +0.055 A 
ATOM     14  C   UNL     1      -1.554  -2.446  24.485  0.00  0.00    +0.005 A 
ATOM     15  C   UNL     1      -0.797  -2.643  24.746  0.00  0.00    +0.000 A 
ATOM     16  C   UNL     1      -0.416  -2.165  25.301  0.00  0.00    +0.000 A 
ATOM     17  C   UNL     1      -0.792  -1.492  25.594  0.00  0.00    +0.000 A 
ATOM     18  C   UNL     1      -1.550  -1.296  25.332  0.00  0.00    +0.005 A 
ENDBRANCH  11  13
ENDBRANCH   7   8
ENDBRANCH   6   7
BRANCH  22  23
ATOM     23  C   UNL     1      -3.292   2.854  24.035  0.00  0.00    +0.076 C 
BRANCH  23  24
ATOM     24  N   UNL     1      -3.269   3.312  24.722  0.00  0.00    -0.270 NA
ATOM     25  C   UNL     1      -2.596   3.306  25.199  0.00  0.00    +0.090 C 
ATOM     26  C   UNL     1      -2.572   3.764  25.885  0.00  0.00    +0.090 C 
ATOM     27  N   UNL     1      -3.222   4.228  26.094  0.00  0.00    -0.269 NA
ATOM     28  C   UNL     1      -3.199   4.685  26.779  0.00  0.00    +0.090 C 
ATOM     29  C   UNL     1      -3.895   4.234  25.616  0.00  0.00    +0.090 C 
ATOM     30  C   UNL     1      -3.918   3.776  24.930  0.00  0.00    +0.090 C 
ENDBRANCH  23  24
ENDBRANCH  22  23
TORSDOF 6
ENDMDL
