REMARK  Name = 
REMARK  5 active torsions:
REMARK  status: ('A' for Active; 'I' for Inactive)
REMARK    1  A    between atoms: C_2  and  C_5
REMARK    2  A    between atoms: C_8  and  C_11
REMARK    3  A    between atoms: N_20  and  C_24
REMARK    4  A    between atoms: C_27  and  O_28
REMARK    5  A    between atoms: O_28  and  C_29
REMARK                            x       y       z     vdW  Elec       q    Type
REMARK                         _______ _______ _______ _____ _____    ______ ____
ROOT
ATOM     11  C   UNL     1       0.884  -2.150   0.000  0.00  0.00    +0.249 C 
ATOM     12  O   UNL     1       1.436  -2.763   0.000  0.00  0.00    -0.270 OA
ATOM     13  N   UNL     1       1.139  -1.365   0.000  0.00  0.00    -0.268 N 
ATOM     14  C   UNL     1       0.654  -0.698   0.000  0.00  0.00    +0.096 C 
ATOM     15  C   UNL     1       1.139  -0.030   0.000  0.00  0.00    +0.045 C 
ATOM     16  C   UNL     1       1.923  -0.285   0.000  0.00  0.00    +0.126 C 
ATOM     17  N   UNL     1       2.638   0.127   0.000  0.00  0.00    -0.187 NA
ATOM     18  C   UNL     1       3.352  -0.285   0.000  0.00  0.00    +0.333 C 
ATOM     19  O   UNL     1       4.067   0.127   0.000  0.00  0.00    -0.250 OA
ATOM     20  N   UNL     1       3.352  -1.110   0.000  0.00  0.00    -0.190 N 
ATOM     21  C   UNL     1       2.638  -1.523   0.000  0.00  0.00    +0.256 C 
ATOM     22  O   UNL     1       2.638  -2.348   0.000  0.00  0.00    -0.272 OA
ATOM     23  C   UNL     1       1.923  -1.110   0.000  0.00  0.00    +0.173 C 
ENDROOT
BRANCH  11   8
ATOM      5  C   UNL     1      -1.537  -2.665   0.000  0.00  0.00    +0.071 A 
ATOM      6  C   UNL     1      -1.282  -1.880   0.000  0.00  0.00    +0.004 A 
ATOM      7  C   UNL     1      -0.475  -1.708   0.000  0.00  0.00    +0.004 A 
ATOM      8  C   UNL     1       0.077  -2.321   0.000  0.00  0.00    +0.054 A 
ATOM      9  C   UNL     1      -0.178  -3.106   0.000  0.00  0.00    +0.004 A 
ATOM     10  C   UNL     1      -0.985  -3.278   0.000  0.00  0.00    +0.004 A 
BRANCH   5   2
ATOM      1  F   UNL     1      -3.151  -3.008   0.000  0.00  0.00    -0.166 F 
ATOM      2  C   UNL     1      -2.344  -2.836   0.000  0.00  0.00    +0.419 C 
ATOM      3  F   UNL     1      -2.173  -3.643   0.000  0.00  0.00    -0.166 F 
ATOM      4  F   UNL     1      -2.516  -2.029   0.000  0.00  0.00    -0.166 F 
ENDBRANCH   5   2
ENDBRANCH  11   8
BRANCH  20  24
ATOM     24  C   UNL     1       4.067  -1.523   0.000  0.00  0.00    +0.062 A 
ATOM     25  C   UNL     1       4.781  -1.110   0.000  0.00  0.00    +0.018 A 
ATOM     26  C   UNL     1       5.496  -1.523   0.000  0.00  0.00    +0.039 A 
ATOM     27  C   UNL     1       5.496  -2.348   0.000  0.00  0.00    +0.145 A 
ATOM     35  C   UNL     1       4.781  -2.760   0.000  0.00  0.00    +0.039 A 
ATOM     36  C   UNL     1       4.067  -2.348   0.000  0.00  0.00    +0.018 A 
BRANCH  27  28
ATOM     28  O   UNL     1       6.210  -2.760   0.000  0.00  0.00    -0.453 OA
BRANCH  28  29
ATOM     29  C   UNL     1       6.210  -3.585   0.000  0.00  0.00    +0.145 A 
ATOM     30  C   UNL     1       6.925  -3.998   0.000  0.00  0.00    +0.037 A 
ATOM     31  C   UNL     1       6.925  -4.823   0.000  0.00  0.00    +0.003 A 
ATOM     32  C   UNL     1       6.210  -5.235   0.000  0.00  0.00    +0.000 A 
ATOM     33  C   UNL     1       5.496  -4.823   0.000  0.00  0.00    +0.003 A 
ATOM     34  C   UNL     1       5.496  -3.998   0.000  0.00  0.00    +0.037 A 
ENDBRANCH  28  29
ENDBRANCH  27  28
ENDBRANCH  20  24
TORSDOF 5
