MODEL 1
REMARK VINA RESULT:     -15.0      0.000      0.000
REMARK  Name = 
REMARK  5 active torsions:
REMARK  status: ('A' for Active; 'I' for Inactive)
REMARK    1  A    between atoms: S_2  and  C_3
REMARK    2  A    between atoms: C_6  and  C_9
REMARK    3  A    between atoms: C_17  and  C_19
REMARK    4  A    between atoms: C_19  and  O_20
REMARK    5  A    between atoms: O_20  and  C_21
REMARK                            x       y       z     vdW  Elec       q    Type
REMARK                         _______ _______ _______ _____ _____    ______ ____
ROOT
ATOM      9  C   UNL     1      -3.347   0.863  24.811  0.00  0.00    +0.012 A 
ATOM     10  C   UNL     1      -3.935   1.435  24.900  0.00  0.00    +0.041 A 
ATOM     11  C   UNL     1      -4.848   1.530  24.872  0.00  0.00    +0.058 C 
ATOM     12  C   UNL     1      -5.437   1.163  24.764  0.00  0.00    +0.011 C 
ATOM     13  C   UNL     1      -5.230   1.932  24.936  0.00  0.00    +0.043 C 
ATOM     14  C   UNL     1      -5.182   2.898  25.141  0.00  0.00    +0.095 C 
ATOM     15  N   UNL     1      -4.354   2.987  25.203  0.00  0.00    -0.276 N 
ATOM     16  C   UNL     1      -4.819   2.464  25.069  0.00  0.00    +0.099 C 
ATOM     17  C   UNL     1      -3.626   3.359  25.319  0.00  0.00    +0.270 C 
ATOM     18  O   UNL     1      -3.598   4.165  25.489  0.00  0.00    -0.271 OA
ATOM     27  C   UNL     1      -4.274   1.843  24.967  0.00  0.00    +0.110 C 
ATOM     28  N   UNL     1      -3.728   2.215  25.074  0.00  0.00    -0.299 N 
ATOM     29  C   UNL     1      -2.935   2.423  25.159  0.00  0.00    +0.261 A 
ATOM     30  O   UNL     1      -2.299   2.929  25.299  0.00  0.00    -0.267 OA
ATOM     31  C   UNL     1      -2.347   1.851  25.070  0.00  0.00    +0.061 A 
ATOM     32  C   UNL     1      -2.553   1.071  24.896  0.00  0.00    +0.006 A 
ENDROOT
BRANCH   9   6
ATOM      3  C   UNL     1      -3.966  -1.476  24.288  0.00  0.00    +0.025 A 
ATOM      4  C   UNL     1      -3.878  -1.238  25.073  0.00  0.00    +0.006 A 
ATOM      5  C   UNL     1      -3.672  -0.458  25.247  0.00  0.00    +0.001 A 
ATOM      6  C   UNL     1      -3.554   0.084  24.636  0.00  0.00    +0.001 A 
ATOM      7  C   UNL     1      -3.642  -0.154  23.852  0.00  0.00    +0.001 A 
ATOM      8  C   UNL     1      -3.848  -0.934  23.677  0.00  0.00    +0.006 A 
BRANCH   3   2
ATOM      1  C   UNL     1      -3.633  -2.865  24.251  0.00  0.00    +0.074 C 
ATOM      2  S   UNL     1      -4.172  -2.255  24.114  0.00  0.00    -0.113 S 
ENDBRANCH   3   2
ENDBRANCH   9   6
BRANCH  17  19
ATOM     19  C   UNL     1      -2.927   2.923  25.264  0.00  0.00    +0.290 C 
BRANCH  19  20
ATOM     20  O   UNL     1      -2.250   3.180  25.660  0.00  0.00    -0.466 OA
BRANCH  20  21
ATOM     21  C   UNL     1      -1.791   3.788  25.342  0.00  0.00    +0.139 A 
ATOM     22  C   UNL     1      -1.949   4.572  25.546  0.00  0.00    +0.037 A 
ATOM     23  C   UNL     1      -1.490   5.181  25.229  0.00  0.00    +0.003 A 
ATOM     24  C   UNL     1      -0.875   5.005  24.708  0.00  0.00    +0.000 A 
ATOM     25  C   UNL     1      -0.718   4.220  24.505  0.00  0.00    +0.003 A 
ATOM     26  C   UNL     1      -1.176   3.613  24.822  0.00  0.00    +0.037 A 
ENDBRANCH  20  21
ENDBRANCH  19  20
ENDBRANCH  17  19
TORSDOF 5
ENDMDL
MODEL 2
REMARK VINA RESULT:     -14.3      1.960      4.543
REMARK  Name = 
REMARK  5 active torsions:
REMARK  status: ('A' for Active; 'I' for Inactive)
REMARK    1  A    between atoms: S_2  and  C_3
REMARK    2  A    between atoms: C_6  and  C_9
REMARK    3  A    between atoms: C_17  and  C_19
REMARK    4  A    between atoms: C_19  and  O_20
REMARK    5  A    between atoms: O_20  and  C_21
REMARK                            x       y       z     vdW  Elec       q    Type
REMARK                         _______ _______ _______ _____ _____    ______ ____
ROOT
ATOM      9  C   UNL     1      -2.928   2.129  24.755  0.00  0.00    +0.012 A 
ATOM     10  C   UNL     1      -3.738   2.025  24.874  0.00  0.00    +0.041 A 
ATOM     11  C   UNL     1      -4.487   2.492  25.129  0.00  0.00    +0.058 C 
ATOM     12  C   UNL     1      -4.695   3.131  25.332  0.00  0.00    +0.011 C 
ATOM     13  C   UNL     1      -5.032   2.401  25.204  0.00  0.00    +0.043 C 
ATOM     14  C   UNL     1      -5.616   1.610  25.103  0.00  0.00    +0.095 C 
ATOM     15  N   UNL     1      -5.049   1.048  24.856  0.00  0.00    -0.276 N 
ATOM     16  C   UNL     1      -5.064   1.737  25.037  0.00  0.00    +0.099 C 
ATOM     17  C   UNL     1      -4.739   0.323  24.612  0.00  0.00    +0.270 C 
ATOM     18  O   UNL     1      -5.235  -0.331  24.532  0.00  0.00    -0.271 OA
ATOM     27  C   UNL     1      -4.255   1.905  24.935  0.00  0.00    +0.110 C 
ATOM     28  N   UNL     1      -4.083   1.287  24.744  0.00  0.00    -0.299 N 
ATOM     29  C   UNL     1      -3.618   0.652  24.496  0.00  0.00    +0.261 A 
ATOM     30  O   UNL     1      -3.464  -0.125  24.267  0.00  0.00    -0.267 OA
ATOM     31  C   UNL     1      -2.808   0.756  24.378  0.00  0.00    +0.061 A 
ATOM     32  C   UNL     1      -2.463   1.494  24.507  0.00  0.00    +0.006 A 
ENDROOT
BRANCH   9   6
ATOM      3  C   UNL     1      -1.893   4.344  25.144  0.00  0.00    +0.025 A 
ATOM      4  C   UNL     1      -2.221   4.165  24.408  0.00  0.00    +0.006 A 
ATOM      5  C   UNL     1      -2.566   3.427  24.279  0.00  0.00    +0.001 A 
ATOM      6  C   UNL     1      -2.583   2.867  24.885  0.00  0.00    +0.001 A 
ATOM      7  C   UNL     1      -2.256   3.046  25.620  0.00  0.00    +0.001 A 
ATOM      8  C   UNL     1      -1.911   3.784  25.750  0.00  0.00    +0.006 A 
BRANCH   3   2
ATOM      1  C   UNL     1      -0.855   5.289  24.877  0.00  0.00    +0.074 C 
ATOM      2  S   UNL     1      -1.549   5.081  25.273  0.00  0.00    -0.113 S 
ENDBRANCH   3   2
ENDBRANCH   9   6
BRANCH  17  19
ATOM     19  C   UNL     1      -3.933   0.252  24.449  0.00  0.00    +0.290 C 
BRANCH  19  20
ATOM     20  O   UNL     1      -3.665  -0.348  23.951  0.00  0.00    -0.466 OA
BRANCH  20  21
ATOM     21  C   UNL     1      -3.660  -1.130  24.211  0.00  0.00    +0.139 A 
ATOM     22  C   UNL     1      -4.089  -1.704  23.800  0.00  0.00    +0.037 A 
ATOM     23  C   UNL     1      -4.085  -2.487  24.060  0.00  0.00    +0.003 A 
ATOM     24  C   UNL     1      -3.651  -2.697  24.730  0.00  0.00    +0.000 A 
ATOM     25  C   UNL     1      -3.222  -2.123  25.140  0.00  0.00    +0.003 A 
ATOM     26  C   UNL     1      -3.227  -1.341  24.880  0.00  0.00    +0.037 A 
ENDBRANCH  20  21
ENDBRANCH  19  20
ENDBRANCH  17  19
TORSDOF 5
ENDMDL
MODEL 3
REMARK VINA RESULT:     -13.8      2.414      5.217
REMARK  Name = 
REMARK  5 active torsions:
REMARK  status: ('A' for Active; 'I' for Inactive)
REMARK    1  A    between atoms: S_2  and  C_3
REMARK    2  A    between atoms: C_6  and  C_9
REMARK    3  A    between atoms: C_17  and  C_19
REMARK    4  A    between atoms: C_19  and  O_20
REMARK    5  A    between atoms: O_20  and  C_21
REMARK                            x       y       z     vdW  Elec       q    Type
REMARK                         _______ _______ _______ _____ _____    ______ ____
ROOT
ATOM      9  C   UNL     1      -2.040   1.575  24.993  0.00  0.00    +0.012 A 
ATOM     10  C   UNL     1      -1.433   1.089  24.718  0.00  0.00    +0.041 A 
ATOM     11  C   UNL     1      -0.570   1.133  24.406  0.00  0.00    +0.058 C 
ATOM     12  C   UNL     1      -0.057   1.592  24.267  0.00  0.00    +0.011 C 
ATOM     13  C   UNL     1      -0.173   0.787  24.223  0.00  0.00    +0.043 C 
ATOM     14  C   UNL     1      -0.119  -0.192  24.098  0.00  0.00    +0.095 C 
ATOM     15  N   UNL     1      -0.884  -0.408  24.356  0.00  0.00    -0.276 N 
ATOM     16  C   UNL     1      -0.502   0.189  24.280  0.00  0.00    +0.099 C 
ATOM     17  C   UNL     1      -1.526  -0.893  24.539  0.00  0.00    +0.270 C 
ATOM     18  O   UNL     1      -1.470  -1.709  24.431  0.00  0.00    -0.271 OA
ATOM     27  C   UNL     1      -1.074   0.731  24.548  0.00  0.00    +0.110 C 
ATOM     28  N   UNL     1      -1.546   0.273  24.672  0.00  0.00    -0.299 N 
ATOM     29  C   UNL     1      -2.267  -0.057  24.901  0.00  0.00    +0.261 A 
ATOM     30  O   UNL     1      -2.809  -0.664  25.035  0.00  0.00    -0.267 OA
ATOM     31  C   UNL     1      -2.874   0.429  25.176  0.00  0.00    +0.061 A 
ATOM     32  C   UNL     1      -2.761   1.245  25.222  0.00  0.00    +0.006 A 
ENDROOT
BRANCH   9   6
ATOM      3  C   UNL     1      -1.700   4.023  25.131  0.00  0.00    +0.025 A 
ATOM      4  C   UNL     1      -2.059   3.693  24.466  0.00  0.00    +0.006 A 
ATOM      5  C   UNL     1      -2.173   2.877  24.420  0.00  0.00    +0.001 A 
ATOM      6  C   UNL     1      -1.927   2.391  25.039  0.00  0.00    +0.001 A 
ATOM      7  C   UNL     1      -1.567   2.720  25.704  0.00  0.00    +0.001 A 
ATOM      8  C   UNL     1      -1.454   3.536  25.750  0.00  0.00    +0.006 A 
BRANCH   3   2
ATOM      1  C   UNL     1      -0.871   5.170  24.934  0.00  0.00    +0.074 C 
ATOM      2  S   UNL     1      -1.587   4.838  25.177  0.00  0.00    -0.113 S 
ENDBRANCH   3   2
ENDBRANCH   9   6
BRANCH  17  19
ATOM     19  C   UNL     1      -2.223  -0.562  24.831  0.00  0.00    +0.290 C 
BRANCH  19  20
ATOM     20  O   UNL     1      -2.773  -1.037  25.221  0.00  0.00    -0.466 OA
BRANCH  20  21
ATOM     21  C   UNL     1      -3.242  -1.564  24.794  0.00  0.00    +0.139 A 
ATOM     22  C   UNL     1      -3.150  -2.377  24.901  0.00  0.00    +0.037 A 
ATOM     23  C   UNL     1      -3.619  -2.905  24.473  0.00  0.00    +0.003 A 
ATOM     24  C   UNL     1      -4.179  -2.620  23.939  0.00  0.00    +0.000 A 
ATOM     25  C   UNL     1      -4.270  -1.806  23.832  0.00  0.00    +0.003 A 
ATOM     26  C   UNL     1      -3.802  -1.279  24.260  0.00  0.00    +0.037 A 
ENDBRANCH  20  21
ENDBRANCH  19  20
ENDBRANCH  17  19
TORSDOF 5
ENDMDL
MODEL 4
REMARK VINA RESULT:     -12.7      1.365      2.495
REMARK  Name = 
REMARK  5 active torsions:
REMARK  status: ('A' for Active; 'I' for Inactive)
REMARK    1  A    between atoms: S_2  and  C_3
REMARK    2  A    between atoms: C_6  and  C_9
REMARK    3  A    between atoms: C_17  and  C_19
REMARK    4  A    between atoms: C_19  and  O_20
REMARK    5  A    between atoms: O_20  and  C_21
REMARK                            x       y       z     vdW  Elec       q    Type
REMARK                         _______ _______ _______ _____ _____    ______ ____
ROOT
ATOM      9  C   UNL     1      -2.738   0.341  24.628  0.00  0.00    +0.012 A 
ATOM     10  C   UNL     1      -1.928   0.481  24.560  0.00  0.00    +0.041 A 
ATOM     11  C   UNL     1      -1.128   0.031  24.509  0.00  0.00    +0.058 C 
ATOM     12  C   UNL     1      -0.860  -0.617  24.507  0.00  0.00    +0.011 C 
ATOM     13  C   UNL     1      -0.585   0.148  24.462  0.00  0.00    +0.043 C 
ATOM     14  C   UNL     1      -0.066   0.986  24.396  0.00  0.00    +0.095 C 
ATOM     15  N   UNL     1      -0.690   1.540  24.429  0.00  0.00    -0.276 N 
ATOM     16  C   UNL     1      -0.612   0.833  24.444  0.00  0.00    +0.099 C 
ATOM     17  C   UNL     1      -1.068   2.274  24.438  0.00  0.00    +0.270 C 
ATOM     18  O   UNL     1      -0.625   2.967  24.382  0.00  0.00    -0.271 OA
ATOM     27  C   UNL     1      -1.416   0.626  24.514  0.00  0.00    +0.110 C 
ATOM     28  N   UNL     1      -1.646   1.255  24.514  0.00  0.00    -0.299 N 
ATOM     29  C   UNL     1      -2.173   1.888  24.537  0.00  0.00    +0.261 A 
ATOM     30  O   UNL     1      -2.399   2.682  24.532  0.00  0.00    -0.267 OA
ATOM     31  C   UNL     1      -2.983   1.748  24.606  0.00  0.00    +0.061 A 
ATOM     32  C   UNL     1      -3.266   0.975  24.652  0.00  0.00    +0.006 A 
ENDROOT
BRANCH   9   6
ATOM      3  C   UNL     1      -3.586  -1.981  24.765  0.00  0.00    +0.025 A 
ATOM      4  C   UNL     1      -3.345  -1.589  25.449  0.00  0.00    +0.006 A 
ATOM      5  C   UNL     1      -3.063  -0.815  25.404  0.00  0.00    +0.001 A 
ATOM      6  C   UNL     1      -3.021  -0.433  24.674  0.00  0.00    +0.001 A 
ATOM      7  C   UNL     1      -3.261  -0.825  23.989  0.00  0.00    +0.001 A 
ATOM      8  C   UNL     1      -3.544  -1.599  24.035  0.00  0.00    +0.006 A 
BRANCH   3   2
ATOM      1  C   UNL     1      -3.452  -3.368  24.447  0.00  0.00    +0.074 C 
ATOM      2  S   UNL     1      -3.868  -2.754  24.810  0.00  0.00    -0.113 S 
ENDBRANCH   3   2
ENDBRANCH   9   6
BRANCH  17  19
ATOM     19  C   UNL     1      -1.890   2.313  24.502  0.00  0.00    +0.290 C 
BRANCH  19  20
ATOM     20  O   UNL     1      -2.284   3.014  24.320  0.00  0.00    -0.466 OA
BRANCH  20  21
ATOM     21  C   UNL     1      -2.256   3.652  24.841  0.00  0.00    +0.139 A 
ATOM     22  C   UNL     1      -1.744   4.283  24.693  0.00  0.00    +0.037 A 
ATOM     23  C   UNL     1      -1.715   4.922  25.215  0.00  0.00    +0.003 A 
ATOM     24  C   UNL     1      -2.198   4.930  25.884  0.00  0.00    +0.000 A 
ATOM     25  C   UNL     1      -2.710   4.299  26.032  0.00  0.00    +0.003 A 
ATOM     26  C   UNL     1      -2.738   3.661  25.510  0.00  0.00    +0.037 A 
ENDBRANCH  20  21
ENDBRANCH  19  20
ENDBRANCH  17  19
TORSDOF 5
ENDMDL
MODEL 5
REMARK VINA RESULT:     -12.2      1.918      3.593
REMARK  Name = 
REMARK  5 active torsions:
REMARK  status: ('A' for Active; 'I' for Inactive)
REMARK    1  A    between atoms: S_2  and  C_3
REMARK    2  A    between atoms: C_6  and  C_9
REMARK    3  A    between atoms: C_17  and  C_19
REMARK    4  A    between atoms: C_19  and  O_20
REMARK    5  A    between atoms: O_20  and  C_21
REMARK                            x       y       z     vdW  Elec       q    Type
REMARK                         _______ _______ _______ _____ _____    ______ ____
ROOT
ATOM      9  C   UNL     1      -1.820   1.550  24.299  0.00  0.00    +0.012 A 
ATOM     10  C   UNL     1      -1.742   2.187  24.818  0.00  0.00    +0.041 A 
ATOM     11  C   UNL     1      -1.109   2.627  25.317  0.00  0.00    +0.058 C 
ATOM     12  C   UNL     1      -0.425   2.614  25.474  0.00  0.00    +0.011 C 
ATOM     13  C   UNL     1      -1.078   3.061  25.665  0.00  0.00    +0.043 C 
ATOM     14  C   UNL     1      -1.736   3.710  26.014  0.00  0.00    +0.095 C 
ATOM     15  N   UNL     1      -2.424   3.433  25.628  0.00  0.00    -0.276 N 
ATOM     16  C   UNL     1      -1.733   3.261  25.663  0.00  0.00    +0.099 C 
ATOM     17  C   UNL     1      -3.217   3.392  25.403  0.00  0.00    +0.270 C 
ATOM     18  O   UNL     1      -3.758   3.939  25.700  0.00  0.00    -0.271 OA
ATOM     27  C   UNL     1      -1.747   2.608  25.147  0.00  0.00    +0.110 C 
ATOM     28  N   UNL     1      -2.402   2.642  25.014  0.00  0.00    -0.299 N 
ATOM     29  C   UNL     1      -3.139   2.461  24.692  0.00  0.00    +0.261 A 
ATOM     30  O   UNL     1      -3.949   2.552  24.566  0.00  0.00    -0.267 OA
ATOM     31  C   UNL     1      -3.217   1.824  24.174  0.00  0.00    +0.061 A 
ATOM     32  C   UNL     1      -2.558   1.369  23.977  0.00  0.00    +0.006 A 
ENDROOT
BRANCH   9   6
ATOM      3  C   UNL     1       0.158   0.183  23.710  0.00  0.00    +0.025 A 
ATOM      4  C   UNL     1      -0.008   0.872  23.288  0.00  0.00    +0.006 A 
ATOM      5  C   UNL     1      -0.668   1.328  23.484  0.00  0.00    +0.001 A 
ATOM      6  C   UNL     1      -1.161   1.094  24.103  0.00  0.00    +0.001 A 
ATOM      7  C   UNL     1      -0.995   0.406  24.525  0.00  0.00    +0.001 A 
ATOM      8  C   UNL     1      -0.336  -0.050  24.329  0.00  0.00    +0.006 A 
BRANCH   3   2
ATOM      1  C   UNL     1       1.188  -0.168  22.784  0.00  0.00    +0.074 C 
ATOM      2  S   UNL     1       0.816  -0.271  23.514  0.00  0.00    -0.113 S 
ENDBRANCH   3   2
ENDBRANCH   9   6
BRANCH  17  19
ATOM     19  C   UNL     1      -3.468   2.804  24.881  0.00  0.00    +0.290 C 
BRANCH  19  20
ATOM     20  O   UNL     1      -4.216   2.851  24.538  0.00  0.00    -0.466 OA
BRANCH  20  21
ATOM     21  C   UNL     1      -4.886   2.658  24.978  0.00  0.00    +0.139 A 
ATOM     22  C   UNL     1      -5.112   1.868  25.060  0.00  0.00    +0.037 A 
ATOM     23  C   UNL     1      -5.782   1.674  25.501  0.00  0.00    +0.003 A 
ATOM     24  C   UNL     1      -6.226   2.270  25.859  0.00  0.00    +0.000 A 
ATOM     25  C   UNL     1      -6.001   3.059  25.776  0.00  0.00    +0.003 A 
ATOM     26  C   UNL     1      -5.331   3.253  25.336  0.00  0.00    +0.037 A 
ENDBRANCH  20  21
ENDBRANCH  19  20
ENDBRANCH  17  19
TORSDOF 5
ENDMDL
