REMARK  Name = 
REMARK  7 active torsions:
REMARK  status: ('A' for Active; 'I' for Inactive)
REMARK    1  A    between atoms: C_5  and  C_6
REMARK    2  A    between atoms: C_6  and  N_7
REMARK    3  A    between atoms: N_7  and  C_8
REMARK    4  A    between atoms: C_11  and  C_12
REMARK    5  A    between atoms: C_12  and  N_13
REMARK    6  A    between atoms: N_13  and  S_14
REMARK    7  A    between atoms: S_14  and  C_17
REMARK                            x       y       z     vdW  Elec       q    Type
REMARK                         _______ _______ _______ _____ _____    ______ ____
ROOT
ATOM      8  C   UNL     1       1.429  -3.300   0.000  0.00  0.00    +0.135 C 
ATOM      9  C   UNL     1       2.096  -3.785   0.000  0.00  0.00    +0.162 C 
ATOM     10  O   UNL     1       1.841  -4.569   0.000  0.00  0.00    -0.350 OA
ATOM     11  C   UNL     1       1.016  -4.569   0.000  0.00  0.00    +0.166 C 
ATOM     24  C   UNL     1       0.761  -3.785   0.000  0.00  0.00    +0.199 C 
ATOM     25  O   UNL     1      -0.023  -3.530   0.000  0.00  0.00    -0.219 OA
ENDROOT
BRANCH   8   7
ATOM      7  N   UNL     1       1.429  -2.475   0.000  0.00  0.00    -0.209 NA
BRANCH   7   6
ATOM      6  C   UNL     1       2.143  -2.062   0.000  0.00  0.00    +0.115 C 
BRANCH   6   5
ATOM      1  C   UNL     1       2.143   1.238   0.000  0.00  0.00    +0.031 C 
ATOM      2  C   UNL     1       2.143   0.412   0.000  0.00  0.00    -0.022 A 
ATOM      3  C   UNL     1       2.858   0.000   0.000  0.00  0.00    -0.005 A 
ATOM      4  C   UNL     1       2.858  -0.825   0.000  0.00  0.00    -0.003 A 
ATOM      5  C   UNL     1       2.143  -1.238   0.000  0.00  0.00    -0.005 A 
ATOM     26  C   UNL     1       1.429  -0.825   0.000  0.00  0.00    -0.003 A 
ATOM     27  C   UNL     1       1.429   0.000   0.000  0.00  0.00    -0.005 A 
ENDBRANCH   6   5
ENDBRANCH   7   6
ENDBRANCH   8   7
BRANCH  11  12
ATOM     12  C   UNL     1       0.531  -5.237   0.000  0.00  0.00    +0.148 C 
BRANCH  12  13
ATOM     13  N   UNL     1       0.867  -5.991   0.000  0.00  0.00    -0.075 NA
BRANCH  13  14
ATOM     14  S   UNL     1       0.382  -6.658   0.000  0.00  0.00    +0.077 S 
ATOM     15  O   UNL     1      -0.285  -6.173   0.000  0.00  0.00    -0.152 OA
ATOM     16  O   UNL     1       1.050  -7.143   0.000  0.00  0.00    -0.152 OA
BRANCH  14  17
ATOM     17  C   UNL     1      -0.103  -7.325   0.000  0.00  0.00    +0.124 A 
ATOM     18  C   UNL     1       0.233  -8.079   0.000  0.00  0.00    +0.020 A 
ATOM     19  C   UNL     1      -0.252  -8.747   0.000  0.00  0.00    -0.003 A 
ATOM     20  C   UNL     1      -1.073  -8.660   0.000  0.00  0.00    -0.022 A 
ATOM     21  C   UNL     1      -1.558  -9.328   0.000  0.00  0.00    +0.031 C 
ATOM     22  C   UNL     1      -1.408  -7.907   0.000  0.00  0.00    -0.003 A 
ATOM     23  C   UNL     1      -0.923  -7.239   0.000  0.00  0.00    +0.020 A 
ENDBRANCH  14  17
ENDBRANCH  13  14
ENDBRANCH  12  13
ENDBRANCH  11  12
TORSDOF 7
