MODEL 1
REMARK VINA RESULT:     -13.7      0.000      0.000
REMARK  Name = 
REMARK  7 active torsions:
REMARK  status: ('A' for Active; 'I' for Inactive)
REMARK    1  A    between atoms: C_2  and  C_5
REMARK    2  A    between atoms: C_8  and  C_11
REMARK    3  A    between atoms: N_13  and  C_14
REMARK    4  A    between atoms: C_18  and  N_22
REMARK    5  A    between atoms: C_26  and  O_27
REMARK    6  A    between atoms: O_27  and  C_28
REMARK    7  A    between atoms: C_31  and  N_34
REMARK                            x       y       z     vdW  Elec       q    Type
REMARK                         _______ _______ _______ _____ _____    ______ ____
ROOT
ATOM     14  C   UNL     1      -2.538   4.329  25.426  0.00  0.00    +0.155 C 
ATOM     15  C   UNL     1      -2.539   3.890  26.124  0.00  0.00    +0.166 C 
ATOM     16  O   UNL     1      -3.174   3.364  26.094  0.00  0.00    -0.350 OA
ATOM     17  C   UNL     1      -3.565   3.478  25.377  0.00  0.00    +0.169 C 
ATOM     18  C   UNL     1      -4.199   3.223  24.914  0.00  0.00    +0.170 C 
ATOM     19  C   UNL     1      -4.198   3.662  24.216  0.00  0.00    +0.169 C 
ATOM     20  O   UNL     1      -3.563   4.188  24.247  0.00  0.00    -0.350 OA
ATOM     21  C   UNL     1      -3.172   4.074  24.964  0.00  0.00    +0.167 C 
ENDROOT
BRANCH  18  22
ATOM     22  N   UNL     1      -4.740   2.633  25.116  0.00  0.00    -0.180 N 
ATOM     23  N   UNL     1      -5.454   2.745  25.514  0.00  0.00    -0.040 NA
ATOM     24  N   UNL     1      -5.816   2.009  25.598  0.00  0.00    -0.020 NA
ATOM     25  N   UNL     1      -5.326   1.442  25.253  0.00  0.00    -0.071 NA
ATOM     26  C   UNL     1      -4.661   1.828  24.955  0.00  0.00    +0.343 A 
BRANCH  26  27
ATOM     27  O   UNL     1      -4.027   1.471  24.565  0.00  0.00    -0.421 OA
BRANCH  27  28
ATOM     28  C   UNL     1      -3.953   0.649  24.565  0.00  0.00    +0.149 A 
ATOM     29  C   UNL     1      -3.732   0.256  25.256  0.00  0.00    +0.039 A 
ATOM     30  C   UNL     1      -3.657  -0.565  25.257  0.00  0.00    +0.022 A 
ATOM     31  C   UNL     1      -3.803  -0.994  24.567  0.00  0.00    +0.085 A 
ATOM     32  C   UNL     1      -4.024  -0.600  23.875  0.00  0.00    +0.022 A 
ATOM     33  C   UNL     1      -4.098   0.222  23.875  0.00  0.00    +0.039 A 
BRANCH  31  34
ATOM     34  N   UNL     1      -3.728  -1.815  24.567  0.00  0.00    -0.208 N 
ATOM     35  C   UNL     1      -4.060  -2.331  24.015  0.00  0.00    +0.202 A 
ATOM     36  N   UNL     1      -3.846  -3.101  24.225  0.00  0.00    -0.200 NA
ATOM     37  C   UNL     1      -3.383  -3.059  24.906  0.00  0.00    +0.221 A 
ATOM     38  N   UNL     1      -3.310  -2.264  25.117  0.00  0.00    -0.141 NA
ENDBRANCH  31  34
ENDBRANCH  27  28
ENDBRANCH  26  27
ENDBRANCH  18  22
BRANCH  14  13
ATOM     11  C   UNL     1      -1.214   4.721  25.055  0.00  0.00    +0.265 C 
ATOM     12  O   UNL     1      -0.674   5.310  24.854  0.00  0.00    -0.268 OA
ATOM     13  N   UNL     1      -1.997   4.919  25.224  0.00  0.00    -0.198 NA
BRANCH  11   8
ATOM      5  C   UNL     1      -0.489   2.356  25.151  0.00  0.00    +0.071 A 
ATOM      6  C   UNL     1      -0.545   2.799  25.845  0.00  0.00    +0.004 A 
ATOM      7  C   UNL     1      -0.787   3.587  25.813  0.00  0.00    +0.005 A 
ATOM      8  C   UNL     1      -0.972   3.932  25.088  0.00  0.00    +0.055 A 
ATOM      9  C   UNL     1      -0.916   3.490  24.393  0.00  0.00    +0.005 A 
ATOM     10  C   UNL     1      -0.675   2.702  24.425  0.00  0.00    +0.004 A 
BRANCH   5   2
ATOM      1  F   UNL     1      -0.006   0.779  25.212  0.00  0.00    -0.166 F 
ATOM      2  C   UNL     1      -0.247   1.567  25.182  0.00  0.00    +0.419 C 
ATOM      3  F   UNL     1       0.273   1.750  25.796  0.00  0.00    -0.166 F 
ATOM      4  F   UNL     1      -0.768   1.385  24.568  0.00  0.00    -0.166 F 
ENDBRANCH   5   2
ENDBRANCH  11   8
ENDBRANCH  14  13
TORSDOF 7
ENDMDL
MODEL 2
REMARK VINA RESULT:     -13.1      2.592      6.017
REMARK  Name = 
REMARK  7 active torsions:
REMARK  status: ('A' for Active; 'I' for Inactive)
REMARK    1  A    between atoms: C_2  and  C_5
REMARK    2  A    between atoms: C_8  and  C_11
REMARK    3  A    between atoms: N_13  and  C_14
REMARK    4  A    between atoms: C_18  and  N_22
REMARK    5  A    between atoms: C_26  and  O_27
REMARK    6  A    between atoms: O_27  and  C_28
REMARK    7  A    between atoms: C_31  and  N_34
REMARK                            x       y       z     vdW  Elec       q    Type
REMARK                         _______ _______ _______ _____ _____    ______ ____
ROOT
ATOM     14  C   UNL     1      -2.058  -2.047  24.448  0.00  0.00    +0.155 C 
ATOM     15  C   UNL     1      -2.279  -1.628  23.773  0.00  0.00    +0.166 C 
ATOM     16  O   UNL     1      -1.705  -1.053  23.631  0.00  0.00    -0.350 OA
ATOM     17  C   UNL     1      -1.130  -1.116  24.218  0.00  0.00    +0.169 C 
ATOM     18  C   UNL     1      -0.419  -0.800  24.494  0.00  0.00    +0.170 C 
ATOM     19  C   UNL     1      -0.198  -1.218  25.169  0.00  0.00    +0.169 C 
ATOM     20  O   UNL     1      -0.772  -1.794  25.311  0.00  0.00    -0.350 OA
ATOM     21  C   UNL     1      -1.348  -1.730  24.723  0.00  0.00    +0.167 C 
ENDROOT
BRANCH  18  22
ATOM     22  N   UNL     1      -0.003  -0.174  24.154  0.00  0.00    -0.180 N 
ATOM     23  N   UNL     1       0.525  -0.229  23.521  0.00  0.00    -0.040 NA
ATOM     24  N   UNL     1       0.813   0.528  23.363  0.00  0.00    -0.020 NA
ATOM     25  N   UNL     1       0.464   1.050  23.897  0.00  0.00    -0.071 NA
ATOM     26  C   UNL     1      -0.040   0.616  24.385  0.00  0.00    +0.343 A 
BRANCH  26  27
ATOM     27  O   UNL     1      -0.501   0.921  24.999  0.00  0.00    -0.421 OA
BRANCH  27  28
ATOM     28  C   UNL     1      -0.672   1.728  25.025  0.00  0.00    +0.149 A 
ATOM     29  C   UNL     1      -0.240   2.225  25.520  0.00  0.00    +0.039 A 
ATOM     30  C   UNL     1      -0.412   3.032  25.547  0.00  0.00    +0.022 A 
ATOM     31  C   UNL     1      -1.016   3.340  25.077  0.00  0.00    +0.085 A 
ATOM     32  C   UNL     1      -1.449   2.842  24.581  0.00  0.00    +0.022 A 
ATOM     33  C   UNL     1      -1.276   2.036  24.555  0.00  0.00    +0.039 A 
BRANCH  31  34
ATOM     34  N   UNL     1      -1.188   4.147  25.102  0.00  0.00    -0.208 N 
ATOM     35  C   UNL     1      -1.863   4.487  25.433  0.00  0.00    +0.202 A 
ATOM     36  N   UNL     1      -1.809   5.306  25.337  0.00  0.00    -0.200 NA
ATOM     37  C   UNL     1      -1.101   5.469  24.947  0.00  0.00    +0.221 A 
ATOM     38  N   UNL     1      -0.718   4.753  24.801  0.00  0.00    -0.141 NA
ENDBRANCH  31  34
ENDBRANCH  27  28
ENDBRANCH  26  27
ENDBRANCH  18  22
BRANCH  14  13
ATOM     11  C   UNL     1      -3.236  -2.551  25.081  0.00  0.00    +0.265 C 
ATOM     12  O   UNL     1      -3.653  -3.176  25.421  0.00  0.00    -0.268 OA
ATOM     13  N   UNL     1      -2.474  -2.672  24.788  0.00  0.00    -0.198 NA
BRANCH  11   8
ATOM      5  C   UNL     1      -4.271  -0.306  24.936  0.00  0.00    +0.071 A 
ATOM      6  C   UNL     1      -4.320  -0.826  24.297  0.00  0.00    +0.004 A 
ATOM      7  C   UNL     1      -3.976  -1.574  24.345  0.00  0.00    +0.005 A 
ATOM      8  C   UNL     1      -3.582  -1.802  25.032  0.00  0.00    +0.055 A 
ATOM      9  C   UNL     1      -3.531  -1.284  25.672  0.00  0.00    +0.005 A 
ATOM     10  C   UNL     1      -3.876  -0.536  25.624  0.00  0.00    +0.004 A 
BRANCH   5   2
ATOM      1  F   UNL     1      -4.959   1.191  24.842  0.00  0.00    -0.166 F 
ATOM      2  C   UNL     1      -4.615   0.442  24.889  0.00  0.00    +0.419 C 
ATOM      3  F   UNL     1      -5.171   0.153  24.352  0.00  0.00    -0.166 F 
ATOM      4  F   UNL     1      -4.059   0.731  25.427  0.00  0.00    -0.166 F 
ENDBRANCH   5   2
ENDBRANCH  11   8
ENDBRANCH  14  13
TORSDOF 7
ENDMDL
MODEL 3
REMARK VINA RESULT:     -12.4      2.218      3.407
REMARK  Name = 
REMARK  7 active torsions:
REMARK  status: ('A' for Active; 'I' for Inactive)
REMARK    1  A    between atoms: C_2  and  C_5
REMARK    2  A    between atoms: C_8  and  C_11
REMARK    3  A    between atoms: N_13  and  C_14
REMARK    4  A    between atoms: C_18  and  N_22
REMARK    5  A    between atoms: C_26  and  O_27
REMARK    6  A    between atoms: O_27  and  C_28
REMARK    7  A    between atoms: C_31  and  N_34
REMARK                            x       y       z     vdW  Elec       q    Type
REMARK                         _______ _______ _______ _____ _____    ______ ____
ROOT
ATOM     14  C   UNL     1      -1.097   3.766  24.857  0.00  0.00    +0.155 C 
ATOM     15  C   UNL     1      -1.340   3.593  24.088  0.00  0.00    +0.166 C 
ATOM     16  O   UNL     1      -1.064   2.840  23.897  0.00  0.00    -0.350 OA
ATOM     17  C   UNL     1      -0.650   2.547  24.547  0.00  0.00    +0.169 C 
ATOM     18  C   UNL     1      -0.223   1.901  24.833  0.00  0.00    +0.170 C 
ATOM     19  C   UNL     1       0.020   2.074  25.601  0.00  0.00    +0.169 C 
ATOM     20  O   UNL     1      -0.256   2.828  25.792  0.00  0.00    -0.350 OA
ATOM     21  C   UNL     1      -0.671   3.120  25.141  0.00  0.00    +0.167 C 
ENDROOT
BRANCH  18  22
ATOM     22  N   UNL     1      -0.067   1.204  24.420  0.00  0.00    -0.180 N 
ATOM     23  N   UNL     1       0.499   1.107  23.827  0.00  0.00    -0.040 NA
ATOM     24  N   UNL     1       0.466   0.324  23.569  0.00  0.00    -0.020 NA
ATOM     25  N   UNL     1      -0.119  -0.063  24.002  0.00  0.00    -0.071 NA
ATOM     26  C   UNL     1      -0.448   0.481  24.528  0.00  0.00    +0.343 A 
BRANCH  26  27
ATOM     27  O   UNL     1      -1.054   0.328  25.068  0.00  0.00    -0.421 OA
BRANCH  27  28
ATOM     28  C   UNL     1      -1.612  -0.258  24.907  0.00  0.00    +0.149 A 
ATOM     29  C   UNL     1      -1.477  -1.035  25.148  0.00  0.00    +0.039 A 
ATOM     30  C   UNL     1      -2.035  -1.620  24.987  0.00  0.00    +0.022 A 
ATOM     31  C   UNL     1      -2.729  -1.428  24.584  0.00  0.00    +0.085 A 
ATOM     32  C   UNL     1      -2.865  -0.651  24.342  0.00  0.00    +0.022 A 
ATOM     33  C   UNL     1      -2.306  -0.066  24.504  0.00  0.00    +0.039 A 
BRANCH  31  34
ATOM     34  N   UNL     1      -3.288  -2.013  24.422  0.00  0.00    -0.208 N 
ATOM     35  C   UNL     1      -3.298  -2.774  24.739  0.00  0.00    +0.202 A 
ATOM     36  N   UNL     1      -3.951  -3.172  24.428  0.00  0.00    -0.200 NA
ATOM     37  C   UNL     1      -4.344  -2.656  23.919  0.00  0.00    +0.221 A 
ATOM     38  N   UNL     1      -3.934  -1.940  23.915  0.00  0.00    -0.141 NA
ENDBRANCH  31  34
ENDBRANCH  27  28
ENDBRANCH  26  27
ENDBRANCH  18  22
BRANCH  14  13
ATOM     11  C   UNL     1      -2.031   4.671  25.450  0.00  0.00    +0.265 C 
ATOM     12  O   UNL     1      -2.187   5.368  25.862  0.00  0.00    -0.268 OA
ATOM     13  N   UNL     1      -1.253   4.464  25.269  0.00  0.00    -0.198 NA
BRANCH  11   8
ATOM      5  C   UNL     1      -3.895   3.197  24.757  0.00  0.00    +0.071 A 
ATOM      6  C   UNL     1      -3.596   3.759  24.232  0.00  0.00    +0.004 A 
ATOM      7  C   UNL     1      -2.975   4.250  24.463  0.00  0.00    +0.005 A 
ATOM      8  C   UNL     1      -2.653   4.180  25.219  0.00  0.00    +0.055 A 
ATOM      9  C   UNL     1      -2.952   3.618  25.744  0.00  0.00    +0.005 A 
ATOM     10  C   UNL     1      -3.573   3.127  25.513  0.00  0.00    +0.004 A 
BRANCH   5   2
ATOM      1  F   UNL     1      -5.139   2.214  24.296  0.00  0.00    -0.166 F 
ATOM      2  C   UNL     1      -4.517   2.706  24.526  0.00  0.00    +0.419 C 
ATOM      3  F   UNL     1      -4.155   2.590  23.794  0.00  0.00    -0.166 F 
ATOM      4  F   UNL     1      -4.879   2.822  25.259  0.00  0.00    -0.166 F 
ENDBRANCH   5   2
ENDBRANCH  11   8
ENDBRANCH  14  13
TORSDOF 7
ENDMDL
MODEL 4
REMARK VINA RESULT:     -12.1      2.365      5.162
REMARK  Name = 
REMARK  7 active torsions:
REMARK  status: ('A' for Active; 'I' for Inactive)
REMARK    1  A    between atoms: C_2  and  C_5
REMARK    2  A    between atoms: C_8  and  C_11
REMARK    3  A    between atoms: N_13  and  C_14
REMARK    4  A    between atoms: C_18  and  N_22
REMARK    5  A    between atoms: C_26  and  O_27
REMARK    6  A    between atoms: O_27  and  C_28
REMARK    7  A    between atoms: C_31  and  N_34
REMARK                            x       y       z     vdW  Elec       q    Type
REMARK                         _______ _______ _______ _____ _____    ______ ____
ROOT
ATOM     14  C   UNL     1      -0.956  -0.966  25.022  0.00  0.00    +0.155 C 
ATOM     15  C   UNL     1      -1.234  -0.703  25.753  0.00  0.00    +0.166 C 
ATOM     16  O   UNL     1      -1.111   0.111  25.793  0.00  0.00    -0.350 OA
ATOM     17  C   UNL     1      -0.756   0.352  25.089  0.00  0.00    +0.169 C 
ATOM     18  C   UNL     1      -0.461   1.003  24.678  0.00  0.00    +0.170 C 
ATOM     19  C   UNL     1      -0.182   0.739  23.947  0.00  0.00    +0.169 C 
ATOM     20  O   UNL     1      -0.306  -0.075  23.907  0.00  0.00    -0.350 OA
ATOM     21  C   UNL     1      -0.661  -0.315  24.612  0.00  0.00    +0.167 C 
ENDROOT
BRANCH  18  22
ATOM     22  N   UNL     1      -0.446   1.782  24.950  0.00  0.00    -0.180 N 
ATOM     23  N   UNL     1       0.124   2.111  25.448  0.00  0.00    -0.040 NA
ATOM     24  N   UNL     1      -0.077   2.901  25.578  0.00  0.00    -0.020 NA
ATOM     25  N   UNL     1      -0.769   3.059  25.160  0.00  0.00    -0.071 NA
ATOM     26  C   UNL     1      -0.997   2.368  24.772  0.00  0.00    +0.343 A 
BRANCH  26  27
ATOM     27  O   UNL     1      -1.662   2.279  24.290  0.00  0.00    -0.421 OA
BRANCH  27  28
ATOM     28  C   UNL     1      -2.390   2.585  24.530  0.00  0.00    +0.149 A 
ATOM     29  C   UNL     1      -2.529   2.740  25.328  0.00  0.00    +0.039 A 
ATOM     30  C   UNL     1      -3.256   3.046  25.568  0.00  0.00    +0.022 A 
ATOM     31  C   UNL     1      -3.845   3.196  25.009  0.00  0.00    +0.085 A 
ATOM     32  C   UNL     1      -3.706   3.041  24.211  0.00  0.00    +0.022 A 
ATOM     33  C   UNL     1      -2.978   2.735  23.972  0.00  0.00    +0.039 A 
BRANCH  31  34
ATOM     34  N   UNL     1      -4.573   3.502  25.249  0.00  0.00    -0.208 N 
ATOM     35  C   UNL     1      -5.162   3.090  25.654  0.00  0.00    +0.202 A 
ATOM     36  N   UNL     1      -5.794   3.605  25.781  0.00  0.00    -0.200 NA
ATOM     37  C   UNL     1      -5.594   4.336  25.453  0.00  0.00    +0.221 A 
ATOM     38  N   UNL     1      -4.840   4.272  25.125  0.00  0.00    -0.141 NA
ENDBRANCH  31  34
ENDBRANCH  27  28
ENDBRANCH  26  27
ENDBRANCH  18  22
BRANCH  14  13
ATOM     11  C   UNL     1      -1.691  -2.110  24.580  0.00  0.00    +0.265 C 
ATOM     12  O   UNL     1      -1.706  -2.888  24.308  0.00  0.00    -0.268 OA
ATOM     13  N   UNL     1      -0.971  -1.745  24.750  0.00  0.00    -0.198 NA
BRANCH  11   8
ATOM      5  C   UNL     1      -3.808  -0.864  24.887  0.00  0.00    +0.071 A 
ATOM      6  C   UNL     1      -3.445  -1.225  25.533  0.00  0.00    +0.004 A 
ATOM      7  C   UNL     1      -2.739  -1.640  25.431  0.00  0.00    +0.005 A 
ATOM      8  C   UNL     1      -2.397  -1.694  24.683  0.00  0.00    +0.055 A 
ATOM      9  C   UNL     1      -2.760  -1.333  24.036  0.00  0.00    +0.005 A 
ATOM     10  C   UNL     1      -3.466  -0.918  24.138  0.00  0.00    +0.004 A 
BRANCH   5   2
ATOM      1  F   UNL     1      -5.220  -0.033  25.088  0.00  0.00    -0.166 F 
ATOM      2  C   UNL     1      -4.514  -0.448  24.988  0.00  0.00    +0.419 C 
ATOM      3  F   UNL     1      -4.283  -0.239  25.752  0.00  0.00    -0.166 F 
ATOM      4  F   UNL     1      -4.746  -0.657  24.223  0.00  0.00    -0.166 F 
ENDBRANCH   5   2
ENDBRANCH  11   8
ENDBRANCH  14  13
TORSDOF 7
ENDMDL
MODEL 5
REMARK VINA RESULT:     -11.6      2.191      4.230
REMARK  Name = 
REMARK  7 active torsions:
REMARK  status: ('A' for Active; 'I' for Inactive)
REMARK    1  A    between atoms: C_2  and  C_5
REMARK    2  A    between atoms: C_8  and  C_11
REMARK    3  A    between atoms: N_13  and  C_14
REMARK    4  A    between atoms: C_18  and  N_22
REMARK    5  A    between atoms: C_26  and  O_27
REMARK    6  A    between atoms: O_27  and  C_28
REMARK    7  A    between atoms: C_31  and  N_34
REMARK                            x       y       z     vdW  Elec       q    Type
REMARK                         _______ _______ _______ _____ _____    ______ ____
ROOT
ATOM     14  C   UNL     1      -4.631   3.484  25.394  0.00  0.00    +0.155 C 
ATOM     15  C   UNL     1      -4.440   3.484  24.592  0.00  0.00    +0.166 C 
ATOM     16  O   UNL     1      -3.644   3.688  24.520  0.00  0.00    -0.350 OA
ATOM     17  C   UNL     1      -3.343   3.813  25.277  0.00  0.00    +0.169 C 
ATOM     18  C   UNL     1      -2.665   4.015  25.702  0.00  0.00    +0.170 C 
ATOM     19  C   UNL     1      -2.856   4.015  26.504  0.00  0.00    +0.169 C 
ATOM     20  O   UNL     1      -3.652   3.812  26.576  0.00  0.00    -0.350 OA
ATOM     21  C   UNL     1      -3.953   3.687  25.818  0.00  0.00    +0.167 C 
ENDROOT
BRANCH  18  22
ATOM     22  N   UNL     1      -1.925   4.189  25.380  0.00  0.00    -0.180 N 
ATOM     23  N   UNL     1      -1.664   4.933  25.137  0.00  0.00    -0.040 NA
ATOM     24  N   UNL     1      -0.894   4.852  24.851  0.00  0.00    -0.020 NA
ATOM     25  N   UNL     1      -0.680   4.059  24.917  0.00  0.00    -0.071 NA
ATOM     26  C   UNL     1      -1.317   3.649  25.244  0.00  0.00    +0.343 A 
BRANCH  26  27
ATOM     27  O   UNL     1      -1.342   2.840  25.406  0.00  0.00    -0.421 OA
BRANCH  27  28
ATOM     28  C   UNL     1      -0.871   2.318  24.973  0.00  0.00    +0.149 A 
ATOM     29  C   UNL     1      -0.219   1.959  25.329  0.00  0.00    +0.039 A 
ATOM     30  C   UNL     1       0.252   1.438  24.897  0.00  0.00    +0.022 A 
ATOM     31  C   UNL     1       0.070   1.275  24.108  0.00  0.00    +0.085 A 
ATOM     32  C   UNL     1      -0.583   1.633  23.752  0.00  0.00    +0.022 A 
ATOM     33  C   UNL     1      -1.053   2.155  24.186  0.00  0.00    +0.039 A 
BRANCH  31  34
ATOM     34  N   UNL     1       0.540   0.753  23.675  0.00  0.00    -0.208 N 
ATOM     35  C   UNL     1       0.323  -0.004  23.429  0.00  0.00    +0.202 A 
ATOM     36  N   UNL     1       0.958  -0.329  23.014  0.00  0.00    -0.200 NA
ATOM     37  C   UNL     1       1.567   0.228  23.004  0.00  0.00    +0.221 A 
ATOM     38  N   UNL     1       1.308   0.896  23.412  0.00  0.00    -0.141 NA
ENDBRANCH  31  34
ENDBRANCH  27  28
ENDBRANCH  26  27
ENDBRANCH  18  22
BRANCH  14  13
ATOM     11  C   UNL     1      -5.678   2.547  25.658  0.00  0.00    +0.265 C 
ATOM     12  O   UNL     1      -6.417   2.374  25.980  0.00  0.00    -0.268 OA
ATOM     13  N   UNL     1      -5.371   3.311  25.717  0.00  0.00    -0.198 NA
BRANCH  11   8
ATOM      5  C   UNL     1      -4.378   0.777  24.516  0.00  0.00    +0.071 A 
ATOM      6  C   UNL     1      -4.809   1.323  24.073  0.00  0.00    +0.004 A 
ATOM      7  C   UNL     1      -5.242   1.914  24.453  0.00  0.00    +0.005 A 
ATOM      8  C   UNL     1      -5.245   1.957  25.277  0.00  0.00    +0.055 A 
ATOM      9  C   UNL     1      -4.815   1.410  25.721  0.00  0.00    +0.005 A 
ATOM     10  C   UNL     1      -4.381   0.820  25.340  0.00  0.00    +0.004 A 
BRANCH   5   2
ATOM      1  F   UNL     1      -3.511  -0.405  23.757  0.00  0.00    -0.166 F 
ATOM      2  C   UNL     1      -3.945   0.186  24.136  0.00  0.00    +0.419 C 
ATOM      3  F   UNL     1      -3.758   0.712  23.529  0.00  0.00    -0.166 F 
ATOM      4  F   UNL     1      -4.132  -0.341  24.744  0.00  0.00    -0.166 F 
ENDBRANCH   5   2
ENDBRANCH  11   8
ENDBRANCH  14  13
TORSDOF 7
ENDMDL
MODEL 6
REMARK VINA RESULT:     -10.9      1.646      4.849
REMARK  Name = 
REMARK  7 active torsions:
REMARK  status: ('A' for Active; 'I' for Inactive)
REMARK    1  A    between atoms: C_2  and  C_5
REMARK    2  A    between atoms: C_8  and  C_11
REMARK    3  A    between atoms: N_13  and  C_14
REMARK    4  A    between atoms: C_18  and  N_22
REMARK    5  A    between atoms: C_26  and  O_27
REMARK    6  A    between atoms: O_27  and  C_28
REMARK    7  A    between atoms: C_31  and  N_34
REMARK                            x       y       z     vdW  Elec       q    Type
REMARK                         _______ _______ _______ _____ _____    ______ ____
ROOT
ATOM     14  C   UNL     1      -3.400  -1.719  25.038  0.00  0.00    +0.155 C 
ATOM     15  C   UNL     1      -3.196  -1.378  25.760  0.00  0.00    +0.166 C 
ATOM     16  O   UNL     1      -3.565  -0.642  25.808  0.00  0.00    -0.350 OA
ATOM     17  C   UNL     1      -3.998  -0.528  25.116  0.00  0.00    +0.169 C 
ATOM     18  C   UNL     1      -4.493  -0.003  24.716  0.00  0.00    +0.170 C 
ATOM     19  C   UNL     1      -4.698  -0.344  23.994  0.00  0.00    +0.169 C 
ATOM     20  O   UNL     1      -4.329  -1.080  23.946  0.00  0.00    -0.350 OA
ATOM     21  C   UNL     1      -3.896  -1.194  24.640  0.00  0.00    +0.167 C 
ENDROOT
BRANCH  18  22
ATOM     22  N   UNL     1      -4.741   0.734  24.992  0.00  0.00    -0.180 N 
ATOM     23  N   UNL     1      -5.403   0.879  25.463  0.00  0.00    -0.040 NA
ATOM     24  N   UNL     1      -5.441   1.690  25.607  0.00  0.00    -0.020 NA
ATOM     25  N   UNL     1      -4.803   2.047  25.225  0.00  0.00    -0.071 NA
ATOM     26  C   UNL     1      -4.371   1.456  24.844  0.00  0.00    +0.343 A 
BRANCH  26  27
ATOM     27  O   UNL     1      -3.688   1.568  24.395  0.00  0.00    -0.421 OA
BRANCH  27  28
ATOM     28  C   UNL     1      -3.218   2.236  24.518  0.00  0.00    +0.149 A 
ATOM     29  C   UNL     1      -2.725   2.279  25.177  0.00  0.00    +0.039 A 
ATOM     30  C   UNL     1      -2.256   2.946  25.299  0.00  0.00    +0.022 A 
ATOM     31  C   UNL     1      -2.281   3.572  24.761  0.00  0.00    +0.085 A 
ATOM     32  C   UNL     1      -2.775   3.529  24.101  0.00  0.00    +0.022 A 
ATOM     33  C   UNL     1      -3.243   2.861  23.980  0.00  0.00    +0.039 A 
BRANCH  31  34
ATOM     34  N   UNL     1      -1.812   4.240  24.883  0.00  0.00    -0.208 N 
ATOM     35  C   UNL     1      -2.050   4.936  25.255  0.00  0.00    +0.202 A 
ATOM     36  N   UNL     1      -1.408   5.457  25.256  0.00  0.00    -0.200 NA
ATOM     37  C   UNL     1      -0.776   5.080  24.884  0.00  0.00    +0.221 A 
ATOM     38  N   UNL     1      -1.025   4.328  24.654  0.00  0.00    -0.141 NA
ENDBRANCH  31  34
ENDBRANCH  27  28
ENDBRANCH  26  27
ENDBRANCH  18  22
BRANCH  14  13
ATOM     11  C   UNL     1      -2.366  -2.571  24.541  0.00  0.00    +0.265 C 
ATOM     12  O   UNL     1      -2.119  -3.308  24.265  0.00  0.00    -0.268 OA
ATOM     13  N   UNL     1      -3.153  -2.456  24.762  0.00  0.00    -0.198 NA
BRANCH  11   8
ATOM      5  C   UNL     1      -0.751  -0.702  24.702  0.00  0.00    +0.071 A 
ATOM      6  C   UNL     1      -0.932  -1.150  25.370  0.00  0.00    +0.004 A 
ATOM      7  C   UNL     1      -1.470  -1.773  25.317  0.00  0.00    +0.005 A 
ATOM      8  C   UNL     1      -1.828  -1.948  24.595  0.00  0.00    +0.055 A 
ATOM      9  C   UNL     1      -1.648  -1.500  23.925  0.00  0.00    +0.005 A 
ATOM     10  C   UNL     1      -1.109  -0.877  23.979  0.00  0.00    +0.004 A 
BRANCH   5   2
ATOM      1  F   UNL     1       0.325   0.544  24.808  0.00  0.00    -0.166 F 
ATOM      2  C   UNL     1      -0.213  -0.079  24.754  0.00  0.00    +0.419 C 
ATOM      3  F   UNL     1       0.066  -0.254  23.998  0.00  0.00    -0.166 F 
ATOM      4  F   UNL     1      -0.492   0.097  25.511  0.00  0.00    -0.166 F 
ENDBRANCH   5   2
ENDBRANCH  11   8
ENDBRANCH  14  13
TORSDOF 7
ENDMDL
MODEL 7
REMARK VINA RESULT:     -10.9      2.101      3.644
REMARK  Name = 
REMARK  7 active torsions:
REMARK  status: ('A' for Active; 'I' for Inactive)
REMARK    1  A    between atoms: C_2  and  C_5
REMARK    2  A    between atoms: C_8  and  C_11
REMARK    3  A    between atoms: N_13  and  C_14
REMARK    4  A    between atoms: C_18  and  N_22
REMARK    5  A    between atoms: C_26  and  O_27
REMARK    6  A    between atoms: O_27  and  C_28
REMARK    7  A    between atoms: C_31  and  N_34
REMARK                            x       y       z     vdW  Elec       q    Type
REMARK                         _______ _______ _______ _____ _____    ______ ____
ROOT
ATOM     14  C   UNL     1      -3.707   3.876  24.971  0.00  0.00    +0.155 C 
ATOM     15  C   UNL     1      -3.632   3.519  24.231  0.00  0.00    +0.166 C 
ATOM     16  O   UNL     1      -2.867   3.217  24.170  0.00  0.00    -0.350 OA
ATOM     17  C   UNL     1      -2.469   3.387  24.871  0.00  0.00    +0.169 C 
ATOM     18  C   UNL     1      -1.750   3.306  25.268  0.00  0.00    +0.170 C 
ATOM     19  C   UNL     1      -1.825   3.662  26.008  0.00  0.00    +0.169 C 
ATOM     20  O   UNL     1      -2.590   3.964  26.069  0.00  0.00    -0.350 OA
ATOM     21  C   UNL     1      -2.988   3.794  25.366  0.00  0.00    +0.167 C 
ENDROOT
BRANCH  18  22
ATOM     22  N   UNL     1      -1.075   2.933  24.976  0.00  0.00    -0.180 N 
ATOM     23  N   UNL     1      -0.515   3.268  24.470  0.00  0.00    -0.040 NA
ATOM     24  N   UNL     1       0.065   2.702  24.320  0.00  0.00    -0.020 NA
ATOM     25  N   UNL     1      -0.136   2.016  24.731  0.00  0.00    -0.071 NA
ATOM     26  C   UNL     1      -0.840   2.159  25.137  0.00  0.00    +0.343 A 
BRANCH  26  27
ATOM     27  O   UNL     1      -1.239   1.621  25.619  0.00  0.00    -0.421 OA
BRANCH  27  28
ATOM     28  C   UNL     1      -1.317   0.834  25.383  0.00  0.00    +0.149 A 
ATOM     29  C   UNL     1      -1.227   0.227  25.935  0.00  0.00    +0.039 A 
ATOM     30  C   UNL     1      -1.305  -0.559  25.700  0.00  0.00    +0.022 A 
ATOM     31  C   UNL     1      -1.472  -0.740  24.912  0.00  0.00    +0.085 A 
ATOM     32  C   UNL     1      -1.561  -0.133  24.359  0.00  0.00    +0.022 A 
ATOM     33  C   UNL     1      -1.484   0.654  24.596  0.00  0.00    +0.039 A 
BRANCH  31  34
ATOM     34  N   UNL     1      -1.549  -1.526  24.675  0.00  0.00    -0.208 N 
ATOM     35  C   UNL     1      -0.934  -2.026  24.448  0.00  0.00    +0.202 A 
ATOM     36  N   UNL     1      -1.259  -2.761  24.256  0.00  0.00    -0.200 NA
ATOM     37  C   UNL     1      -2.075  -2.713  24.366  0.00  0.00    +0.221 A 
ATOM     38  N   UNL     1      -2.254  -1.950  24.624  0.00  0.00    -0.141 NA
ENDBRANCH  31  34
ENDBRANCH  27  28
ENDBRANCH  26  27
ENDBRANCH  18  22
BRANCH  14  13
ATOM     11  C   UNL     1      -5.059   3.807  25.429  0.00  0.00    +0.265 C 
ATOM     12  O   UNL     1      -5.734   4.179  25.721  0.00  0.00    -0.268 OA
ATOM     13  N   UNL     1      -4.382   4.249  25.263  0.00  0.00    -0.198 NA
BRANCH  11   8
ATOM      5  C   UNL     1      -5.061   1.361  25.048  0.00  0.00    +0.071 A 
ATOM      6  C   UNL     1      -5.141   1.878  24.410  0.00  0.00    +0.004 A 
ATOM      7  C   UNL     1      -5.140   2.693  24.537  0.00  0.00    +0.005 A 
ATOM      8  C   UNL     1      -5.060   2.991  25.301  0.00  0.00    +0.055 A 
ATOM      9  C   UNL     1      -4.980   2.474  25.940  0.00  0.00    +0.005 A 
ATOM     10  C   UNL     1      -4.980   1.659  25.813  0.00  0.00    +0.004 A 
BRANCH   5   2
ATOM      1  F   UNL     1      -5.061  -0.270  24.796  0.00  0.00    -0.166 F 
ATOM      2  C   UNL     1      -5.061   0.545  24.922  0.00  0.00    +0.419 C 
ATOM      3  F   UNL     1      -5.515   0.650  24.241  0.00  0.00    -0.166 F 
ATOM      4  F   UNL     1      -4.606   0.441  25.603  0.00  0.00    -0.166 F 
ENDBRANCH   5   2
ENDBRANCH  11   8
ENDBRANCH  14  13
TORSDOF 7
ENDMDL
MODEL 8
REMARK VINA RESULT:     -10.8      2.870      4.478
REMARK  Name = 
REMARK  7 active torsions:
REMARK  status: ('A' for Active; 'I' for Inactive)
REMARK    1  A    between atoms: C_2  and  C_5
REMARK    2  A    between atoms: C_8  and  C_11
REMARK    3  A    between atoms: N_13  and  C_14
REMARK    4  A    between atoms: C_18  and  N_22
REMARK    5  A    between atoms: C_26  and  O_27
REMARK    6  A    between atoms: O_27  and  C_28
REMARK    7  A    between atoms: C_31  and  N_34
REMARK                            x       y       z     vdW  Elec       q    Type
REMARK                         _______ _______ _______ _____ _____    ______ ____
ROOT
ATOM     14  C   UNL     1      -3.717   1.917  25.045  0.00  0.00    +0.155 C 
ATOM     15  C   UNL     1      -3.228   2.002  25.704  0.00  0.00    +0.166 C 
ATOM     16  O   UNL     1      -2.655   1.410  25.674  0.00  0.00    -0.350 OA
ATOM     17  C   UNL     1      -2.788   0.959  24.998  0.00  0.00    +0.169 C 
ATOM     18  C   UNL     1      -2.517   0.314  24.560  0.00  0.00    +0.170 C 
ATOM     19  C   UNL     1      -3.006   0.229  23.901  0.00  0.00    +0.169 C 
ATOM     20  O   UNL     1      -3.579   0.821  23.931  0.00  0.00    -0.350 OA
ATOM     21  C   UNL     1      -3.445   1.272  24.608  0.00  0.00    +0.167 C 
ENDROOT
BRANCH  18  22
ATOM     22  N   UNL     1      -1.870  -0.162  24.749  0.00  0.00    -0.180 N 
ATOM     23  N   UNL     1      -1.866  -0.780  25.296  0.00  0.00    -0.040 NA
ATOM     24  N   UNL     1      -1.107  -1.103  25.309  0.00  0.00    -0.020 NA
ATOM     25  N   UNL     1      -0.643  -0.685  24.771  0.00  0.00    -0.071 NA
ATOM     26  C   UNL     1      -1.114  -0.104  24.425  0.00  0.00    +0.343 A 
BRANCH  26  27
ATOM     27  O   UNL     1      -0.872   0.441  23.854  0.00  0.00    -0.421 OA
BRANCH  27  28
ATOM     28  C   UNL     1      -0.080   0.472  23.623  0.00  0.00    +0.149 A 
ATOM     29  C   UNL     1       0.411   1.067  23.914  0.00  0.00    +0.039 A 
ATOM     30  C   UNL     1       1.202   1.099  23.684  0.00  0.00    +0.022 A 
ATOM     31  C   UNL     1       1.503   0.534  23.162  0.00  0.00    +0.085 A 
ATOM     32  C   UNL     1       1.011  -0.062  22.871  0.00  0.00    +0.022 A 
ATOM     33  C   UNL     1       0.220  -0.092  23.102  0.00  0.00    +0.039 A 
BRANCH  31  34
ATOM     34  N   UNL     1       2.294   0.564  22.931  0.00  0.00    -0.208 N 
ATOM     35  C   UNL     1       2.659   0.062  22.388  0.00  0.00    +0.202 A 
ATOM     36  N   UNL     1       3.451   0.288  22.323  0.00  0.00    -0.200 NA
ATOM     37  C   UNL     1       3.573   0.931  22.826  0.00  0.00    +0.221 A 
ATOM     38  N   UNL     1       2.858   1.101  23.201  0.00  0.00    -0.141 NA
ENDBRANCH  31  34
ENDBRANCH  27  28
ENDBRANCH  26  27
ENDBRANCH  18  22
BRANCH  14  13
ATOM     11  C   UNL     1      -4.267   3.208  24.773  0.00  0.00    +0.265 C 
ATOM     12  O   UNL     1      -4.913   3.684  24.584  0.00  0.00    -0.268 OA
ATOM     13  N   UNL     1      -4.364   2.393  24.856  0.00  0.00    -0.198 NA
BRANCH  11   8
ATOM      5  C   UNL     1      -2.032   4.224  25.093  0.00  0.00    +0.071 A 
ATOM      6  C   UNL     1      -2.276   3.992  24.340  0.00  0.00    +0.004 A 
ATOM      7  C   UNL     1      -3.020   3.653  24.233  0.00  0.00    +0.005 A 
ATOM      8  C   UNL     1      -3.521   3.547  24.879  0.00  0.00    +0.055 A 
ATOM      9  C   UNL     1      -3.278   3.778  25.633  0.00  0.00    +0.005 A 
ATOM     10  C   UNL     1      -2.534   4.117  25.740  0.00  0.00    +0.004 A 
BRANCH   5   2
ATOM      1  F   UNL     1      -0.542   4.901  25.308  0.00  0.00    -0.166 F 
ATOM      2  C   UNL     1      -1.287   4.563  25.201  0.00  0.00    +0.419 C 
ATOM      3  F   UNL     1      -1.640   5.294  25.348  0.00  0.00    -0.166 F 
ATOM      4  F   UNL     1      -0.934   3.831  25.054  0.00  0.00    -0.166 F 
ENDBRANCH   5   2
ENDBRANCH  11   8
ENDBRANCH  14  13
TORSDOF 7
ENDMDL
