MODEL 1
REMARK VINA RESULT:     -10.5      0.000      0.000
REMARK  Name = 
REMARK  7 active torsions:
REMARK  status: ('A' for Active; 'I' for Inactive)
REMARK    1  A    between atoms: O_2  and  C_3
REMARK    2  A    between atoms: C_3  and  C_4
REMARK    3  A    between atoms: C_4  and  N_5
REMARK    4  A    between atoms: C_6  and  C_8
REMARK    5  A    between atoms: C_8  and  C_10
REMARK    6  A    between atoms: C_17  and  N_18
REMARK    7  A    between atoms: C_19  and  C_21
REMARK                            x       y       z     vdW  Elec       q    Type
REMARK                         _______ _______ _______ _____ _____    ______ ____
ROOT
ATOM     10  C   UNL     1      -4.246   2.967  24.650  0.00  0.00    +0.039 C 
ATOM     11  C   UNL     1      -4.916   2.957  25.129  0.00  0.00    +0.003 C 
ATOM     12  C   UNL     1      -5.250   2.237  25.357  0.00  0.00    +0.000 C 
ATOM     13  C   UNL     1      -4.912   1.528  25.105  0.00  0.00    +0.002 C 
ATOM     14  C   UNL     1      -5.584   1.518  25.585  0.00  0.00    +0.000 C 
ATOM     15  C   UNL     1      -5.246   0.808  25.333  0.00  0.00    +0.002 C 
ATOM     16  C   UNL     1      -4.908   0.099  25.081  0.00  0.00    +0.022 C 
ATOM     17  C   UNL     1      -4.238   0.109  24.602  0.00  0.00    +0.096 C 
ATOM     27  C   UNL     1      -3.904   0.828  24.374  0.00  0.00    +0.022 C 
ATOM     28  C   UNL     1      -3.233   0.838  23.894  0.00  0.00    +0.002 C 
ATOM     29  C   UNL     1      -4.242   1.538  24.626  0.00  0.00    +0.032 C 
ATOM     30  C   UNL     1      -3.908   2.257  24.398  0.00  0.00    +0.152 C 
ATOM     31  O   UNL     1      -3.237   2.267  23.918  0.00  0.00    -0.223 OA
ENDROOT
BRANCH  17  18
ATOM     18  N   UNL     1      -3.899  -0.600  24.350  0.00  0.00    -0.203 NA
ATOM     19  C   UNL     1      -3.691  -1.176  24.903  0.00  0.00    +0.268 C 
ATOM     20  O   UNL     1      -3.821  -1.044  25.706  0.00  0.00    -0.268 OA
BRANCH  19  21
ATOM     21  C   UNL     1      -3.353  -1.886  24.651  0.00  0.00    +0.093 A 
ATOM     22  C   UNL     1      -3.829  -2.478  24.330  0.00  0.00    +0.107 A 
ATOM     23  N   UNL     1      -3.491  -3.187  24.079  0.00  0.00    -0.222 NA
ATOM     24  C   UNL     1      -2.677  -3.304  24.148  0.00  0.00    +0.199 A 
ATOM     25  N   UNL     1      -2.202  -2.712  24.469  0.00  0.00    -0.222 NA
ATOM     26  C   UNL     1      -2.539  -2.003  24.720  0.00  0.00    +0.107 A 
ENDBRANCH  19  21
ENDBRANCH  17  18
BRANCH  10   8
ATOM      8  C   UNL     1      -3.912   3.686  24.422  0.00  0.00    +0.081 C 
ATOM      9  C   UNL     1      -4.029   3.971  23.656  0.00  0.00    +0.010 C 
BRANCH   8   6
ATOM      5  N   UNL     1      -2.661   4.256  24.811  0.00  0.00    -0.203 NA
ATOM      6  C   UNL     1      -3.461   4.120  24.960  0.00  0.00    +0.241 C 
ATOM      7  O   UNL     1      -3.809   4.417  25.645  0.00  0.00    -0.273 OA
BRANCH   5   4
ATOM      4  C   UNL     1      -2.209   4.690  25.349  0.00  0.00    +0.147 C 
BRANCH   4   3
ATOM      3  C   UNL     1      -1.386   4.635  25.334  0.00  0.00    +0.166 C 
BRANCH   3   2
ATOM      1  C   UNL     1      -0.231   5.051  24.603  0.00  0.00    +0.174 C 
ATOM      2  O   UNL     1      -0.940   5.235  24.983  0.00  0.00    -0.349 OA
ENDBRANCH   3   2
ENDBRANCH   4   3
ENDBRANCH   5   4
ENDBRANCH   8   6
ENDBRANCH  10   8
TORSDOF 7
ENDMDL
MODEL 2
REMARK VINA RESULT:     -10.4      2.454      4.962
REMARK  Name = 
REMARK  7 active torsions:
REMARK  status: ('A' for Active; 'I' for Inactive)
REMARK    1  A    between atoms: O_2  and  C_3
REMARK    2  A    between atoms: C_3  and  C_4
REMARK    3  A    between atoms: C_4  and  N_5
REMARK    4  A    between atoms: C_6  and  C_8
REMARK    5  A    between atoms: C_8  and  C_10
REMARK    6  A    between atoms: C_17  and  N_18
REMARK    7  A    between atoms: C_19  and  C_21
REMARK                            x       y       z     vdW  Elec       q    Type
REMARK                         _______ _______ _______ _____ _____    ______ ____
ROOT
ATOM     10  C   UNL     1      -1.757  -1.077  24.746  0.00  0.00    +0.039 C 
ATOM     11  C   UNL     1      -2.278  -1.652  24.470  0.00  0.00    +0.003 C 
ATOM     12  C   UNL     1      -3.087  -1.491  24.430  0.00  0.00    +0.000 C 
ATOM     13  C   UNL     1      -3.372  -0.754  24.666  0.00  0.00    +0.002 C 
ATOM     14  C   UNL     1      -3.895  -1.331  24.390  0.00  0.00    +0.000 C 
ATOM     15  C   UNL     1      -4.181  -0.594  24.626  0.00  0.00    +0.002 C 
ATOM     16  C   UNL     1      -4.467   0.144  24.862  0.00  0.00    +0.022 C 
ATOM     17  C   UNL     1      -3.945   0.719  25.137  0.00  0.00    +0.096 C 
ATOM     27  C   UNL     1      -3.137   0.559  25.178  0.00  0.00    +0.022 C 
ATOM     28  C   UNL     1      -2.615   1.135  25.454  0.00  0.00    +0.002 C 
ATOM     29  C   UNL     1      -2.851  -0.179  24.942  0.00  0.00    +0.032 C 
ATOM     30  C   UNL     1      -2.043  -0.339  24.982  0.00  0.00    +0.152 C 
ATOM     31  O   UNL     1      -1.521   0.237  25.258  0.00  0.00    -0.223 OA
ENDROOT
BRANCH  17  18
ATOM     18  N   UNL     1      -4.230   1.456  25.373  0.00  0.00    -0.203 NA
ATOM     19  C   UNL     1      -4.803   1.840  24.920  0.00  0.00    +0.268 C 
ATOM     20  O   UNL     1      -5.090   1.488  24.232  0.00  0.00    -0.268 OA
BRANCH  19  21
ATOM     21  C   UNL     1      -5.089   2.578  25.155  0.00  0.00    +0.093 A 
ATOM     22  C   UNL     1      -4.725   3.267  24.884  0.00  0.00    +0.107 A 
ATOM     23  N   UNL     1      -5.011   4.004  25.120  0.00  0.00    -0.222 NA
ATOM     24  C   UNL     1      -5.661   4.052  25.626  0.00  0.00    +0.199 A 
ATOM     25  N   UNL     1      -6.024   3.363  25.897  0.00  0.00    -0.222 NA
ATOM     26  C   UNL     1      -5.739   2.627  25.662  0.00  0.00    +0.107 A 
ENDBRANCH  19  21
ENDBRANCH  17  18
BRANCH  10   8
ATOM      8  C   UNL     1      -0.948  -1.237  24.786  0.00  0.00    +0.081 C 
ATOM      9  C   UNL     1      -0.596  -1.405  25.513  0.00  0.00    +0.010 C 
BRANCH   8   6
ATOM      5  N   UNL     1       0.071  -0.637  23.984  0.00  0.00    -0.203 NA
ATOM      6  C   UNL     1      -0.492  -1.230  24.098  0.00  0.00    +0.241 C 
ATOM      7  O   UNL     1      -0.598  -1.814  23.527  0.00  0.00    -0.273 OA
BRANCH   5   4
ATOM      4  C   UNL     1       0.527  -0.630  23.296  0.00  0.00    +0.147 C 
BRANCH   4   3
ATOM      3  C   UNL     1       1.112  -0.057  23.196  0.00  0.00    +0.166 C 
BRANCH   3   2
ATOM      1  C   UNL     1       2.378   0.138  22.564  0.00  0.00    +0.174 C 
ATOM      2  O   UNL     1       1.579  -0.059  22.515  0.00  0.00    -0.349 OA
ENDBRANCH   3   2
ENDBRANCH   4   3
ENDBRANCH   5   4
ENDBRANCH   8   6
ENDBRANCH  10   8
TORSDOF 7
ENDMDL
MODEL 3
REMARK VINA RESULT:     -10.1      1.198      5.172
REMARK  Name = 
REMARK  7 active torsions:
REMARK  status: ('A' for Active; 'I' for Inactive)
REMARK    1  A    between atoms: O_2  and  C_3
REMARK    2  A    between atoms: C_3  and  C_4
REMARK    3  A    between atoms: C_4  and  N_5
REMARK    4  A    between atoms: C_6  and  C_8
REMARK    5  A    between atoms: C_8  and  C_10
REMARK    6  A    between atoms: C_17  and  N_18
REMARK    7  A    between atoms: C_19  and  C_21
REMARK                            x       y       z     vdW  Elec       q    Type
REMARK                         _______ _______ _______ _____ _____    ______ ____
ROOT
ATOM     10  C   UNL     1      -4.028  -0.091  24.373  0.00  0.00    +0.039 C 
ATOM     11  C   UNL     1      -4.727   0.045  24.787  0.00  0.00    +0.003 C 
ATOM     12  C   UNL     1      -4.891   0.797  25.085  0.00  0.00    +0.000 C 
ATOM     13  C   UNL     1      -4.355   1.413  24.967  0.00  0.00    +0.002 C 
ATOM     14  C   UNL     1      -5.056   1.548  25.383  0.00  0.00    +0.000 C 
ATOM     15  C   UNL     1      -4.520   2.165  25.265  0.00  0.00    +0.002 C 
ATOM     16  C   UNL     1      -3.984   2.781  25.147  0.00  0.00    +0.022 C 
ATOM     17  C   UNL     1      -3.285   2.645  24.733  0.00  0.00    +0.096 C 
ATOM     27  C   UNL     1      -3.120   1.894  24.435  0.00  0.00    +0.022 C 
ATOM     28  C   UNL     1      -2.420   1.759  24.020  0.00  0.00    +0.002 C 
ATOM     29  C   UNL     1      -3.656   1.277  24.553  0.00  0.00    +0.032 C 
ATOM     30  C   UNL     1      -3.491   0.526  24.255  0.00  0.00    +0.152 C 
ATOM     31  O   UNL     1      -2.791   0.390  23.840  0.00  0.00    -0.223 OA
ENDROOT
BRANCH  17  18
ATOM     18  N   UNL     1      -2.748   3.261  24.615  0.00  0.00    -0.203 NA
ATOM     19  C   UNL     1      -2.435   3.665  25.263  0.00  0.00    +0.268 C 
ATOM     20  O   UNL     1      -2.658   3.453  26.028  0.00  0.00    -0.268 OA
BRANCH  19  21
ATOM     21  C   UNL     1      -1.899   4.281  25.146  0.00  0.00    +0.093 A 
ATOM     22  C   UNL     1      -1.106   4.113  24.993  0.00  0.00    +0.107 A 
ATOM     23  N   UNL     1      -0.570   4.729  24.876  0.00  0.00    -0.222 NA
ATOM     24  C   UNL     1      -0.827   5.513  24.911  0.00  0.00    +0.199 A 
ATOM     25  N   UNL     1      -1.620   5.680  25.063  0.00  0.00    -0.222 NA
ATOM     26  C   UNL     1      -2.156   5.065  25.181  0.00  0.00    +0.107 A 
ENDBRANCH  19  21
ENDBRANCH  17  18
BRANCH  10   8
ATOM      8  C   UNL     1      -3.863  -0.842  24.075  0.00  0.00    +0.081 C 
ATOM      9  C   UNL     1      -4.049  -1.026  23.293  0.00  0.00    +0.010 C 
BRANCH   8   6
ATOM      5  N   UNL     1      -2.727  -1.631  24.434  0.00  0.00    -0.203 NA
ATOM      6  C   UNL     1      -3.511  -1.410  24.561  0.00  0.00    +0.241 C 
ATOM      7  O   UNL     1      -3.944  -1.755  25.171  0.00  0.00    -0.273 OA
BRANCH   5   4
ATOM      4  C   UNL     1      -2.376  -2.199  24.920  0.00  0.00    +0.147 C 
BRANCH   4   3
ATOM      3  C   UNL     1      -1.572  -2.366  24.843  0.00  0.00    +0.166 C 
BRANCH   3   2
ATOM      1  C   UNL     1      -0.218  -2.131  25.236  0.00  0.00    +0.174 C 
ATOM      2  O   UNL     1      -1.017  -1.928  25.270  0.00  0.00    -0.349 OA
ENDBRANCH   3   2
ENDBRANCH   4   3
ENDBRANCH   5   4
ENDBRANCH   8   6
ENDBRANCH  10   8
TORSDOF 7
ENDMDL
MODEL 4
REMARK VINA RESULT:      -9.7      3.328      5.116
REMARK  Name = 
REMARK  7 active torsions:
REMARK  status: ('A' for Active; 'I' for Inactive)
REMARK    1  A    between atoms: O_2  and  C_3
REMARK    2  A    between atoms: C_3  and  C_4
REMARK    3  A    between atoms: C_4  and  N_5
REMARK    4  A    between atoms: C_6  and  C_8
REMARK    5  A    between atoms: C_8  and  C_10
REMARK    6  A    between atoms: C_17  and  N_18
REMARK    7  A    between atoms: C_19  and  C_21
REMARK                            x       y       z     vdW  Elec       q    Type
REMARK                         _______ _______ _______ _____ _____    ______ ____
ROOT
ATOM     10  C   UNL     1      -0.194   0.685  24.071  0.00  0.00    +0.039 C 
ATOM     11  C   UNL     1       0.215   1.398  24.140  0.00  0.00    +0.003 C 
ATOM     12  C   UNL     1      -0.178   2.075  24.401  0.00  0.00    +0.000 C 
ATOM     13  C   UNL     1      -0.980   2.039  24.592  0.00  0.00    +0.002 C 
ATOM     14  C   UNL     1      -0.570   2.753  24.661  0.00  0.00    +0.000 C 
ATOM     15  C   UNL     1      -1.372   2.717  24.853  0.00  0.00    +0.002 C 
ATOM     16  C   UNL     1      -2.174   2.680  25.044  0.00  0.00    +0.022 C 
ATOM     17  C   UNL     1      -2.582   1.968  24.975  0.00  0.00    +0.096 C 
ATOM     27  C   UNL     1      -2.191   1.291  24.715  0.00  0.00    +0.022 C 
ATOM     28  C   UNL     1      -2.600   0.577  24.646  0.00  0.00    +0.002 C 
ATOM     29  C   UNL     1      -1.388   1.327  24.523  0.00  0.00    +0.032 C 
ATOM     30  C   UNL     1      -0.996   0.649  24.262  0.00  0.00    +0.152 C 
ATOM     31  O   UNL     1      -1.405  -0.064  24.193  0.00  0.00    -0.223 OA
ENDROOT
BRANCH  17  18
ATOM     18  N   UNL     1      -3.384   1.931  25.167  0.00  0.00    -0.203 NA
ATOM     19  C   UNL     1      -3.884   2.559  24.970  0.00  0.00    +0.268 C 
ATOM     20  O   UNL     1      -3.582   3.221  24.584  0.00  0.00    -0.268 OA
BRANCH  19  21
ATOM     21  C   UNL     1      -4.686   2.523  25.162  0.00  0.00    +0.093 A 
ATOM     22  C   UNL     1      -5.200   2.072  24.700  0.00  0.00    +0.107 A 
ATOM     23  N   UNL     1      -6.001   2.036  24.891  0.00  0.00    -0.222 NA
ATOM     24  C   UNL     1      -6.289   2.450  25.544  0.00  0.00    +0.199 A 
ATOM     25  N   UNL     1      -5.775   2.900  26.006  0.00  0.00    -0.222 NA
ATOM     26  C   UNL     1      -4.973   2.937  25.815  0.00  0.00    +0.107 A 
ENDBRANCH  19  21
ENDBRANCH  17  18
BRANCH  10   8
ATOM      8  C   UNL     1       0.198   0.008  23.810  0.00  0.00    +0.081 C 
ATOM      9  C   UNL     1       0.096  -0.707  24.208  0.00  0.00    +0.010 C 
BRANCH   8   6
ATOM      5  N   UNL     1       1.512   0.042  23.249  0.00  0.00    -0.203 NA
ATOM      6  C   UNL     1       0.693   0.046  23.150  0.00  0.00    +0.241 C 
ATOM      7  O   UNL     1       0.369   0.089  22.394  0.00  0.00    -0.273 OA
BRANCH   5   4
ATOM      4  C   UNL     1       2.007   0.080  22.589  0.00  0.00    +0.147 C 
BRANCH   4   3
ATOM      3  C   UNL     1       2.825   0.036  22.685  0.00  0.00    +0.166 C 
BRANCH   3   2
ATOM      1  C   UNL     1       4.091   0.692  22.595  0.00  0.00    +0.174 C 
ATOM      2  O   UNL     1       3.311   0.607  22.340  0.00  0.00    -0.349 OA
ENDBRANCH   3   2
ENDBRANCH   4   3
ENDBRANCH   5   4
ENDBRANCH   8   6
ENDBRANCH  10   8
TORSDOF 7
ENDMDL
MODEL 5
REMARK VINA RESULT:      -9.0      2.346      6.271
REMARK  Name = 
REMARK  7 active torsions:
REMARK  status: ('A' for Active; 'I' for Inactive)
REMARK    1  A    between atoms: O_2  and  C_3
REMARK    2  A    between atoms: C_3  and  C_4
REMARK    3  A    between atoms: C_4  and  N_5
REMARK    4  A    between atoms: C_6  and  C_8
REMARK    5  A    between atoms: C_8  and  C_10
REMARK    6  A    between atoms: C_17  and  N_18
REMARK    7  A    between atoms: C_19  and  C_21
REMARK                            x       y       z     vdW  Elec       q    Type
REMARK                         _______ _______ _______ _____ _____    ______ ____
ROOT
ATOM     10  C   UNL     1      -0.640  -1.000  24.745  0.00  0.00    +0.039 C 
ATOM     11  C   UNL     1      -0.147  -1.042  24.087  0.00  0.00    +0.003 C 
ATOM     12  C   UNL     1       0.129  -0.350  23.732  0.00  0.00    +0.000 C 
ATOM     13  C   UNL     1      -0.090   0.385  24.038  0.00  0.00    +0.002 C 
ATOM     14  C   UNL     1       0.405   0.342  23.378  0.00  0.00    +0.000 C 
ATOM     15  C   UNL     1       0.186   1.078  23.684  0.00  0.00    +0.002 C 
ATOM     16  C   UNL     1      -0.033   1.812  23.990  0.00  0.00    +0.022 C 
ATOM     17  C   UNL     1      -0.526   1.854  24.649  0.00  0.00    +0.096 C 
ATOM     27  C   UNL     1      -0.802   1.162  25.003  0.00  0.00    +0.022 C 
ATOM     28  C   UNL     1      -1.296   1.204  25.662  0.00  0.00    +0.002 C 
ATOM     29  C   UNL     1      -0.583   0.427  24.697  0.00  0.00    +0.032 C 
ATOM     30  C   UNL     1      -0.859  -0.265  25.051  0.00  0.00    +0.152 C 
ATOM     31  O   UNL     1      -1.353  -0.223  25.711  0.00  0.00    -0.223 OA
ENDROOT
BRANCH  17  18
ATOM     18  N   UNL     1      -0.745   2.588  24.955  0.00  0.00    -0.203 NA
ATOM     19  C   UNL     1      -1.086   3.155  24.461  0.00  0.00    +0.268 C 
ATOM     20  O   UNL     1      -1.208   2.987  23.664  0.00  0.00    -0.268 OA
BRANCH  19  21
ATOM     21  C   UNL     1      -1.305   3.890  24.767  0.00  0.00    +0.093 A 
ATOM     22  C   UNL     1      -0.766   4.514  24.766  0.00  0.00    +0.107 A 
ATOM     23  N   UNL     1      -0.985   5.248  25.072  0.00  0.00    -0.222 NA
ATOM     24  C   UNL     1      -1.743   5.358  25.378  0.00  0.00    +0.199 A 
ATOM     25  N   UNL     1      -2.282   4.734  25.379  0.00  0.00    -0.222 NA
ATOM     26  C   UNL     1      -2.063   4.000  25.073  0.00  0.00    +0.107 A 
ENDBRANCH  19  21
ENDBRANCH  17  18
BRANCH  10   8
ATOM      8  C   UNL     1      -0.916  -1.692  25.100  0.00  0.00    +0.081 C 
ATOM      9  C   UNL     1      -0.668  -1.894  25.860  0.00  0.00    +0.010 C 
BRANCH   8   6
ATOM      5  N   UNL     1      -2.244  -2.171  24.878  0.00  0.00    -0.203 NA
ATOM      6  C   UNL     1      -1.441  -2.183  24.692  0.00  0.00    +0.241 C 
ATOM      7  O   UNL     1      -1.161  -2.684  24.101  0.00  0.00    -0.273 OA
BRANCH   5   4
ATOM      4  C   UNL     1      -2.769  -2.662  24.471  0.00  0.00    +0.147 C 
BRANCH   4   3
ATOM      3  C   UNL     1      -3.582  -2.562  24.564  0.00  0.00    +0.166 C 
BRANCH   3   2
ATOM      1  C   UNL     1      -4.627  -2.004  23.765  0.00  0.00    +0.174 C 
ATOM      2  O   UNL     1      -4.081  -2.605  23.907  0.00  0.00    -0.349 OA
ENDBRANCH   3   2
ENDBRANCH   4   3
ENDBRANCH   5   4
ENDBRANCH   8   6
ENDBRANCH  10   8
TORSDOF 7
ENDMDL
MODEL 6
REMARK VINA RESULT:      -9.0      2.732      4.139
REMARK  Name = 
REMARK  7 active torsions:
REMARK  status: ('A' for Active; 'I' for Inactive)
REMARK    1  A    between atoms: O_2  and  C_3
REMARK    2  A    between atoms: C_3  and  C_4
REMARK    3  A    between atoms: C_4  and  N_5
REMARK    4  A    between atoms: C_6  and  C_8
REMARK    5  A    between atoms: C_8  and  C_10
REMARK    6  A    between atoms: C_17  and  N_18
REMARK    7  A    between atoms: C_19  and  C_21
REMARK                            x       y       z     vdW  Elec       q    Type
REMARK                         _______ _______ _______ _____ _____    ______ ____
ROOT
ATOM     10  C   UNL     1      -3.206   3.628  24.806  0.00  0.00    +0.039 C 
ATOM     11  C   UNL     1      -2.861   4.014  25.448  0.00  0.00    +0.003 C 
ATOM     12  C   UNL     1      -2.066   3.888  25.627  0.00  0.00    +0.000 C 
ATOM     13  C   UNL     1      -1.615   3.374  25.165  0.00  0.00    +0.002 C 
ATOM     14  C   UNL     1      -1.271   3.762  25.807  0.00  0.00    +0.000 C 
ATOM     15  C   UNL     1      -0.820   3.248  25.344  0.00  0.00    +0.002 C 
ATOM     16  C   UNL     1      -0.369   2.735  24.882  0.00  0.00    +0.022 C 
ATOM     17  C   UNL     1      -0.714   2.348  24.240  0.00  0.00    +0.096 C 
ATOM     27  C   UNL     1      -1.509   2.474  24.060  0.00  0.00    +0.022 C 
ATOM     28  C   UNL     1      -1.853   2.087  23.418  0.00  0.00    +0.002 C 
ATOM     29  C   UNL     1      -1.960   2.988  24.523  0.00  0.00    +0.032 C 
ATOM     30  C   UNL     1      -2.755   3.114  24.343  0.00  0.00    +0.152 C 
ATOM     31  O   UNL     1      -3.099   2.727  23.701  0.00  0.00    -0.223 OA
ENDROOT
BRANCH  17  18
ATOM     18  N   UNL     1      -0.263   1.835  23.778  0.00  0.00    -0.203 NA
ATOM     19  C   UNL     1       0.220   1.271  24.139  0.00  0.00    +0.268 C 
ATOM     20  O   UNL     1       0.253   1.222  24.961  0.00  0.00    -0.268 OA
BRANCH  19  21
ATOM     21  C   UNL     1       0.671   0.757  23.676  0.00  0.00    +0.093 A 
ATOM     22  C   UNL     1       0.366   0.021  23.462  0.00  0.00    +0.107 A 
ATOM     23  N   UNL     1       0.816  -0.492  22.999  0.00  0.00    -0.222 NA
ATOM     24  C   UNL     1       1.571  -0.270  22.751  0.00  0.00    +0.199 A 
ATOM     25  N   UNL     1       1.876   0.466  22.966  0.00  0.00    -0.222 NA
ATOM     26  C   UNL     1       1.426   0.979  23.428  0.00  0.00    +0.107 A 
ENDBRANCH  19  21
ENDBRANCH  17  18
BRANCH  10   8
ATOM      8  C   UNL     1      -4.001   3.754  24.626  0.00  0.00    +0.081 C 
ATOM      9  C   UNL     1      -4.217   4.020  23.876  0.00  0.00    +0.010 C 
BRANCH   8   6
ATOM      5  N   UNL     1      -5.000   2.904  25.192  0.00  0.00    -0.203 NA
ATOM      6  C   UNL     1      -4.580   3.613  25.198  0.00  0.00    +0.241 C 
ATOM      7  O   UNL     1      -4.738   4.182  25.773  0.00  0.00    -0.273 OA
BRANCH   5   4
ATOM      4  C   UNL     1      -5.580   2.763  25.763  0.00  0.00    +0.147 C 
BRANCH   4   3
ATOM      3  C   UNL     1      -5.870   1.999  25.875  0.00  0.00    +0.166 C 
BRANCH   3   2
ATOM      1  C   UNL     1      -6.570   1.329  26.926  0.00  0.00    +0.174 C 
ATOM      2  O   UNL     1      -6.560   1.881  26.313  0.00  0.00    -0.349 OA
ENDBRANCH   3   2
ENDBRANCH   4   3
ENDBRANCH   5   4
ENDBRANCH   8   6
ENDBRANCH  10   8
TORSDOF 7
ENDMDL
MODEL 7
REMARK VINA RESULT:      -9.0      2.943      4.325
REMARK  Name = 
REMARK  7 active torsions:
REMARK  status: ('A' for Active; 'I' for Inactive)
REMARK    1  A    between atoms: O_2  and  C_3
REMARK    2  A    between atoms: C_3  and  C_4
REMARK    3  A    between atoms: C_4  and  N_5
REMARK    4  A    between atoms: C_6  and  C_8
REMARK    5  A    between atoms: C_8  and  C_10
REMARK    6  A    between atoms: C_17  and  N_18
REMARK    7  A    between atoms: C_19  and  C_21
REMARK                            x       y       z     vdW  Elec       q    Type
REMARK                         _______ _______ _______ _____ _____    ______ ____
ROOT
ATOM     10  C   UNL     1      -3.526  -0.022  24.810  0.00  0.00    +0.039 C 
ATOM     11  C   UNL     1      -3.413  -0.515  25.460  0.00  0.00    +0.003 C 
ATOM     12  C   UNL     1      -2.651  -0.758  25.667  0.00  0.00    +0.000 C 
ATOM     13  C   UNL     1      -2.004  -0.506  25.223  0.00  0.00    +0.002 C 
ATOM     14  C   UNL     1      -1.891  -1.000  25.874  0.00  0.00    +0.000 C 
ATOM     15  C   UNL     1      -1.242  -0.748  25.429  0.00  0.00    +0.002 C 
ATOM     16  C   UNL     1      -0.595  -0.496  24.985  0.00  0.00    +0.022 C 
ATOM     17  C   UNL     1      -0.708  -0.002  24.335  0.00  0.00    +0.096 C 
ATOM     27  C   UNL     1      -1.469   0.241  24.128  0.00  0.00    +0.022 C 
ATOM     28  C   UNL     1      -1.582   0.735  23.477  0.00  0.00    +0.002 C 
ATOM     29  C   UNL     1      -2.117  -0.012  24.573  0.00  0.00    +0.032 C 
ATOM     30  C   UNL     1      -2.878   0.231  24.366  0.00  0.00    +0.152 C 
ATOM     31  O   UNL     1      -2.991   0.725  23.715  0.00  0.00    -0.223 OA
ENDROOT
BRANCH  17  18
ATOM     18  N   UNL     1      -0.061   0.250  23.891  0.00  0.00    -0.203 NA
ATOM     19  C   UNL     1       0.532  -0.286  23.683  0.00  0.00    +0.268 C 
ATOM     20  O   UNL     1       0.476  -1.074  23.921  0.00  0.00    -0.268 OA
BRANCH  19  21
ATOM     21  C   UNL     1       1.180  -0.034  23.238  0.00  0.00    +0.093 A 
ATOM     22  C   UNL     1       1.669   0.565  23.526  0.00  0.00    +0.107 A 
ATOM     23  N   UNL     1       2.316   0.816  23.081  0.00  0.00    -0.222 NA
ATOM     24  C   UNL     1       2.475   0.469  22.350  0.00  0.00    +0.199 A 
ATOM     25  N   UNL     1       1.985  -0.129  22.063  0.00  0.00    -0.222 NA
ATOM     26  C   UNL     1       1.338  -0.381  22.507  0.00  0.00    +0.107 A 
ENDBRANCH  19  21
ENDBRANCH  17  18
BRANCH  10   8
ATOM      8  C   UNL     1      -4.287   0.221  24.603  0.00  0.00    +0.081 C 
ATOM      9  C   UNL     1      -4.627  -0.041  23.899  0.00  0.00    +0.010 C 
BRANCH   8   6
ATOM      5  N   UNL     1      -4.827   1.514  24.886  0.00  0.00    -0.203 NA
ATOM      6  C   UNL     1      -4.708   0.726  25.102  0.00  0.00    +0.241 C 
ATOM      7  O   UNL     1      -5.010   0.445  25.815  0.00  0.00    -0.273 OA
BRANCH   5   4
ATOM      4  C   UNL     1      -5.248   2.019  25.384  0.00  0.00    +0.147 C 
BRANCH   4   3
ATOM      3  C   UNL     1      -5.362   2.807  25.170  0.00  0.00    +0.166 C 
BRANCH   3   2
ATOM      1  C   UNL     1      -5.612   4.164  25.544  0.00  0.00    +0.174 C 
ATOM      2  O   UNL     1      -5.567   3.365  25.744  0.00  0.00    -0.349 OA
ENDBRANCH   3   2
ENDBRANCH   4   3
ENDBRANCH   5   4
ENDBRANCH   8   6
ENDBRANCH  10   8
TORSDOF 7
ENDMDL
MODEL 8
REMARK VINA RESULT:      -8.8      1.501      1.802
REMARK  Name = 
REMARK  7 active torsions:
REMARK  status: ('A' for Active; 'I' for Inactive)
REMARK    1  A    between atoms: O_2  and  C_3
REMARK    2  A    between atoms: C_3  and  C_4
REMARK    3  A    between atoms: C_4  and  N_5
REMARK    4  A    between atoms: C_6  and  C_8
REMARK    5  A    between atoms: C_8  and  C_10
REMARK    6  A    between atoms: C_17  and  N_18
REMARK    7  A    between atoms: C_19  and  C_21
REMARK                            x       y       z     vdW  Elec       q    Type
REMARK                         _______ _______ _______ _____ _____    ______ ____
ROOT
ATOM     10  C   UNL     1      -2.482   2.973  24.716  0.00  0.00    +0.039 C 
ATOM     11  C   UNL     1      -3.171   3.305  25.022  0.00  0.00    +0.003 C 
ATOM     12  C   UNL     1      -3.855   2.848  25.091  0.00  0.00    +0.000 C 
ATOM     13  C   UNL     1      -3.848   2.058  24.853  0.00  0.00    +0.002 C 
ATOM     14  C   UNL     1      -4.539   2.392  25.159  0.00  0.00    +0.000 C 
ATOM     15  C   UNL     1      -4.532   1.601  24.921  0.00  0.00    +0.002 C 
ATOM     16  C   UNL     1      -4.525   0.811  24.684  0.00  0.00    +0.022 C 
ATOM     17  C   UNL     1      -3.836   0.478  24.378  0.00  0.00    +0.096 C 
ATOM     27  C   UNL     1      -3.152   0.935  24.309  0.00  0.00    +0.022 C 
ATOM     28  C   UNL     1      -2.462   0.602  24.003  0.00  0.00    +0.002 C 
ATOM     29  C   UNL     1      -3.159   1.726  24.547  0.00  0.00    +0.032 C 
ATOM     30  C   UNL     1      -2.475   2.182  24.478  0.00  0.00    +0.152 C 
ATOM     31  O   UNL     1      -1.785   1.849  24.172  0.00  0.00    -0.223 OA
ENDROOT
BRANCH  17  18
ATOM     18  N   UNL     1      -3.829  -0.311  24.140  0.00  0.00    -0.203 NA
ATOM     19  C   UNL     1      -3.966  -0.909  24.693  0.00  0.00    +0.268 C 
ATOM     20  O   UNL     1      -4.109  -0.717  25.481  0.00  0.00    -0.268 OA
BRANCH  19  21
ATOM     21  C   UNL     1      -3.958  -1.700  24.455  0.00  0.00    +0.093 A 
ATOM     22  C   UNL     1      -4.382  -1.933  23.787  0.00  0.00    +0.107 A 
ATOM     23  N   UNL     1      -4.375  -2.723  23.550  0.00  0.00    -0.222 NA
ATOM     24  C   UNL     1      -3.944  -3.280  23.981  0.00  0.00    +0.199 A 
ATOM     25  N   UNL     1      -3.521  -3.046  24.649  0.00  0.00    -0.222 NA
ATOM     26  C   UNL     1      -3.528  -2.257  24.886  0.00  0.00    +0.107 A 
ENDBRANCH  19  21
ENDBRANCH  17  18
BRANCH  10   8
ATOM      8  C   UNL     1      -1.798   3.429  24.648  0.00  0.00    +0.081 C 
ATOM      9  C   UNL     1      -1.575   3.731  23.913  0.00  0.00    +0.010 C 
BRANCH   8   6
ATOM      5  N   UNL     1      -0.697   3.096  25.495  0.00  0.00    -0.203 NA
ATOM      6  C   UNL     1      -1.337   3.584  25.315  0.00  0.00    +0.241 C 
ATOM      7  O   UNL     1      -1.517   4.224  25.801  0.00  0.00    -0.273 OA
BRANCH   5   4
ATOM      4  C   UNL     1      -0.236   3.250  26.162  0.00  0.00    +0.147 C 
BRANCH   4   3
ATOM      3  C   UNL     1       0.163   2.634  26.539  0.00  0.00    +0.166 C 
BRANCH   3   2
ATOM      1  C   UNL     1       1.024   2.564  27.677  0.00  0.00    +0.174 C 
ATOM      2  O   UNL     1       0.898   2.772  26.889  0.00  0.00    -0.349 OA
ENDBRANCH   3   2
ENDBRANCH   4   3
ENDBRANCH   5   4
ENDBRANCH   8   6
ENDBRANCH  10   8
TORSDOF 7
ENDMDL
MODEL 9
REMARK VINA RESULT:      -8.8      1.729      2.983
REMARK  Name = 
REMARK  7 active torsions:
REMARK  status: ('A' for Active; 'I' for Inactive)
REMARK    1  A    between atoms: O_2  and  C_3
REMARK    2  A    between atoms: C_3  and  C_4
REMARK    3  A    between atoms: C_4  and  N_5
REMARK    4  A    between atoms: C_6  and  C_8
REMARK    5  A    between atoms: C_8  and  C_10
REMARK    6  A    between atoms: C_17  and  N_18
REMARK    7  A    between atoms: C_19  and  C_21
REMARK                            x       y       z     vdW  Elec       q    Type
REMARK                         _______ _______ _______ _____ _____    ______ ____
ROOT
ATOM     10  C   UNL     1      -2.017   3.308  25.303  0.00  0.00    +0.039 C 
ATOM     11  C   UNL     1      -1.361   3.409  25.791  0.00  0.00    +0.003 C 
ATOM     12  C   UNL     1      -0.864   2.770  25.953  0.00  0.00    +0.000 C 
ATOM     13  C   UNL     1      -1.026   2.030  25.625  0.00  0.00    +0.002 C 
ATOM     14  C   UNL     1      -0.368   2.131  26.115  0.00  0.00    +0.000 C 
ATOM     15  C   UNL     1      -0.529   1.391  25.787  0.00  0.00    +0.002 C 
ATOM     16  C   UNL     1      -0.690   0.651  25.460  0.00  0.00    +0.022 C 
ATOM     17  C   UNL     1      -1.347   0.550  24.972  0.00  0.00    +0.096 C 
ATOM     27  C   UNL     1      -1.843   1.189  24.810  0.00  0.00    +0.022 C 
ATOM     28  C   UNL     1      -2.500   1.087  24.321  0.00  0.00    +0.002 C 
ATOM     29  C   UNL     1      -1.682   1.929  25.137  0.00  0.00    +0.032 C 
ATOM     30  C   UNL     1      -2.178   2.568  24.975  0.00  0.00    +0.152 C 
ATOM     31  O   UNL     1      -2.835   2.467  24.486  0.00  0.00    -0.223 OA
ENDROOT
BRANCH  17  18
ATOM     18  N   UNL     1      -1.508  -0.190  24.645  0.00  0.00    -0.203 NA
ATOM     19  C   UNL     1      -1.609  -0.845  25.137  0.00  0.00    +0.268 C 
ATOM     20  O   UNL     1      -1.550  -0.759  25.954  0.00  0.00    -0.268 OA
BRANCH  19  21
ATOM     21  C   UNL     1      -1.771  -1.586  24.810  0.00  0.00    +0.093 A 
ATOM     22  C   UNL     1      -2.538  -1.887  24.832  0.00  0.00    +0.107 A 
ATOM     23  N   UNL     1      -2.699  -2.627  24.505  0.00  0.00    -0.222 NA
ATOM     24  C   UNL     1      -2.093  -3.065  24.156  0.00  0.00    +0.199 A 
ATOM     25  N   UNL     1      -1.327  -2.763  24.135  0.00  0.00    -0.222 NA
ATOM     26  C   UNL     1      -1.165  -2.024  24.461  0.00  0.00    +0.107 A 
ENDBRANCH  19  21
ENDBRANCH  17  18
BRANCH  10   8
ATOM      8  C   UNL     1      -2.514   3.947  25.141  0.00  0.00    +0.081 C 
ATOM      9  C   UNL     1      -2.358   4.438  24.496  0.00  0.00    +0.010 C 
BRANCH   8   6
ATOM      5  N   UNL     1      -3.924   3.895  25.364  0.00  0.00    -0.203 NA
ATOM      6  C   UNL     1      -3.167   4.094  25.624  0.00  0.00    +0.241 C 
ATOM      7  O   UNL     1      -3.062   4.440  26.364  0.00  0.00    -0.273 OA
BRANCH   5   4
ATOM      4  C   UNL     1      -4.577   4.042  25.847  0.00  0.00    +0.147 C 
BRANCH   4   3
ATOM      3  C   UNL     1      -5.319   3.747  25.638  0.00  0.00    +0.166 C 
BRANCH   3   2
ATOM      1  C   UNL     1      -6.113   2.571  25.803  0.00  0.00    +0.174 C 
ATOM      2  O   UNL     1      -5.700   3.205  26.131  0.00  0.00    -0.349 OA
ENDBRANCH   3   2
ENDBRANCH   4   3
ENDBRANCH   5   4
ENDBRANCH   8   6
ENDBRANCH  10   8
TORSDOF 7
ENDMDL
