MODEL 1
REMARK VINA RESULT:     -13.0      0.000      0.000
REMARK  Name = 
REMARK  5 active torsions:
REMARK  status: ('A' for Active; 'I' for Inactive)
REMARK    1  A    between atoms: C_2  and  C_4
REMARK    2  A    between atoms: C_7  and  C_8
REMARK    3  A    between atoms: C_8  and  N_9
REMARK    4  A    between atoms: C_14  and  C_15
REMARK    5  A    between atoms: C_17  and  C_20
REMARK                            x       y       z     vdW  Elec       q    Type
REMARK                         _______ _______ _______ _____ _____    ______ ____
ROOT
ATOM      9  N   UNL     1      -3.927   2.836  25.167  0.00  0.00    -0.257 NA
ATOM     10  C   UNL     1      -4.179   3.550  25.496  0.00  0.00    +0.121 C 
ATOM     11  C   UNL     1      -4.982   3.686  25.620  0.00  0.00    +0.090 A 
ATOM     12  C   UNL     1      -5.535   3.108  25.415  0.00  0.00    +0.077 A 
ATOM     13  C   UNL     1      -5.283   2.396  25.086  0.00  0.00    +0.073 C 
ATOM     14  C   UNL     1      -4.480   2.259  24.962  0.00  0.00    +0.144 C 
ATOM     30  N   UNL     1      -6.285   3.397  25.601  0.00  0.00    -0.227 NA
ATOM     31  C   UNL     1      -6.197   4.153  25.921  0.00  0.00    +0.198 A 
ATOM     32  N   UNL     1      -5.391   4.331  25.932  0.00  0.00    -0.226 NA
ENDROOT
BRANCH  14  15
ATOM     15  C   UNL     1      -4.229   1.546  24.633  0.00  0.00    +0.251 A 
ATOM     16  N   UNL     1      -4.155   0.827  25.032  0.00  0.00    -0.190 NA
ATOM     17  C   UNL     1      -3.888   0.263  24.492  0.00  0.00    +0.203 A 
ATOM     18  N   UNL     1      -3.796   0.632  23.761  0.00  0.00    -0.056 NA
ATOM     19  O   UNL     1      -4.006   1.425  23.847  0.00  0.00    -0.336 OA
BRANCH  17  20
ATOM     20  C   UNL     1      -3.738  -0.532  24.655  0.00  0.00    +0.039 A 
ATOM     21  C   UNL     1      -3.337  -0.743  25.345  0.00  0.00    +0.003 A 
ATOM     22  C   UNL     1      -3.187  -1.537  25.509  0.00  0.00    +0.000 A 
ATOM     23  C   UNL     1      -3.438  -2.121  24.983  0.00  0.00    +0.000 A 
ATOM     24  C   UNL     1      -3.288  -2.916  25.147  0.00  0.00    +0.000 A 
ATOM     25  C   UNL     1      -3.539  -3.500  24.621  0.00  0.00    +0.000 A 
ATOM     26  C   UNL     1      -3.940  -3.289  23.931  0.00  0.00    +0.000 A 
ATOM     27  C   UNL     1      -4.090  -2.495  23.767  0.00  0.00    +0.000 A 
ATOM     28  C   UNL     1      -3.839  -1.910  24.293  0.00  0.00    +0.000 A 
ATOM     29  C   UNL     1      -3.989  -1.116  24.130  0.00  0.00    +0.003 A 
ENDBRANCH  17  20
ENDBRANCH  14  15
BRANCH   9   8
ATOM      8  C   UNL     1      -3.123   2.700  25.043  0.00  0.00    +0.100 C 
BRANCH   8   7
ATOM      4  C   UNL     1      -1.535   4.598  25.000  0.00  0.00    +0.080 A 
ATOM      5  C   UNL     1      -1.585   4.117  25.669  0.00  0.00    +0.006 A 
ATOM      6  C   UNL     1      -2.115   3.485  25.683  0.00  0.00    -0.003 A 
ATOM      7  C   UNL     1      -2.594   3.333  25.028  0.00  0.00    -0.006 A 
ATOM     33  C   UNL     1      -2.543   3.815  24.360  0.00  0.00    -0.003 A 
ATOM     34  C   UNL     1      -2.014   4.447  24.347  0.00  0.00    +0.006 A 
BRANCH   4   2
ATOM      1  O   UNL     1      -1.271   5.994  25.151  0.00  0.00    -0.241 OA
ATOM      2  C   UNL     1      -1.006   5.230  24.987  0.00  0.00    +0.388 C 
ATOM      3  O   UNL     1      -0.210   5.100  24.809  0.00  0.00    -0.241 OA
ENDBRANCH   4   2
ENDBRANCH   8   7
ENDBRANCH   9   8
TORSDOF 5
ENDMDL
MODEL 2
REMARK VINA RESULT:     -12.1      2.567      5.958
REMARK  Name = 
REMARK  5 active torsions:
REMARK  status: ('A' for Active; 'I' for Inactive)
REMARK    1  A    between atoms: C_2  and  C_4
REMARK    2  A    between atoms: C_7  and  C_8
REMARK    3  A    between atoms: C_8  and  N_9
REMARK    4  A    between atoms: C_14  and  C_15
REMARK    5  A    between atoms: C_17  and  C_20
REMARK                            x       y       z     vdW  Elec       q    Type
REMARK                         _______ _______ _______ _____ _____    ______ ____
ROOT
ATOM      9  N   UNL     1      -0.993   0.158  24.673  0.00  0.00    -0.257 NA
ATOM     10  C   UNL     1      -0.599  -0.434  24.253  0.00  0.00    +0.121 C 
ATOM     11  C   UNL     1       0.025  -0.238  23.752  0.00  0.00    +0.090 A 
ATOM     12  C   UNL     1       0.257   0.549  23.669  0.00  0.00    +0.077 A 
ATOM     13  C   UNL     1      -0.136   1.140  24.089  0.00  0.00    +0.073 C 
ATOM     14  C   UNL     1      -0.761   0.945  24.590  0.00  0.00    +0.144 C 
ATOM     30  N   UNL     1       0.888   0.575  23.139  0.00  0.00    -0.227 NA
ATOM     31  C   UNL     1       1.046  -0.197  22.892  0.00  0.00    +0.198 A 
ATOM     32  N   UNL     1       0.513  -0.699  23.272  0.00  0.00    -0.226 NA
ENDROOT
BRANCH  14  15
ATOM     15  C   UNL     1      -1.154   1.537  25.009  0.00  0.00    +0.251 A 
ATOM     16  N   UNL     1      -1.880   1.872  24.809  0.00  0.00    -0.190 NA
ATOM     17  C   UNL     1      -2.065   2.440  25.379  0.00  0.00    +0.203 A 
ATOM     18  N   UNL     1      -1.453   2.456  25.931  0.00  0.00    -0.056 NA
ATOM     19  O   UNL     1      -0.889   1.898  25.703  0.00  0.00    -0.336 OA
BRANCH  17  20
ATOM     20  C   UNL     1      -2.743   2.911  25.394  0.00  0.00    +0.039 A 
ATOM     21  C   UNL     1      -2.674   3.734  25.397  0.00  0.00    +0.003 A 
ATOM     22  C   UNL     1      -3.350   4.204  25.412  0.00  0.00    +0.000 A 
ATOM     23  C   UNL     1      -4.096   3.853  25.424  0.00  0.00    +0.000 A 
ATOM     24  C   UNL     1      -4.774   4.323  25.439  0.00  0.00    +0.000 A 
ATOM     25  C   UNL     1      -5.520   3.973  25.452  0.00  0.00    +0.000 A 
ATOM     26  C   UNL     1      -5.589   3.149  25.449  0.00  0.00    +0.000 A 
ATOM     27  C   UNL     1      -4.912   2.679  25.434  0.00  0.00    +0.000 A 
ATOM     28  C   UNL     1      -4.165   3.030  25.422  0.00  0.00    +0.000 A 
ATOM     29  C   UNL     1      -3.488   2.560  25.406  0.00  0.00    +0.003 A 
ENDBRANCH  17  20
ENDBRANCH  14  15
BRANCH   9   8
ATOM      8  C   UNL     1      -1.618  -0.038  25.174  0.00  0.00    +0.100 C 
BRANCH   8   7
ATOM      4  C   UNL     1      -3.002  -2.037  24.710  0.00  0.00    +0.080 A 
ATOM      5  C   UNL     1      -2.352  -2.093  25.217  0.00  0.00    +0.006 A 
ATOM      6  C   UNL     1      -1.892  -1.427  25.371  0.00  0.00    -0.003 A 
ATOM      7  C   UNL     1      -2.079  -0.704  25.019  0.00  0.00    -0.006 A 
ATOM     33  C   UNL     1      -2.728  -0.649  24.512  0.00  0.00    -0.003 A 
ATOM     34  C   UNL     1      -3.189  -1.315  24.358  0.00  0.00    +0.006 A 
BRANCH   4   2
ATOM      1  O   UNL     1      -3.491  -3.321  25.102  0.00  0.00    -0.241 OA
ATOM      2  C   UNL     1      -3.462  -2.704  24.556  0.00  0.00    +0.388 C 
ATOM      3  O   UNL     1      -3.895  -2.754  23.854  0.00  0.00    -0.241 OA
ENDBRANCH   4   2
ENDBRANCH   8   7
ENDBRANCH   9   8
TORSDOF 5
ENDMDL
MODEL 3
REMARK VINA RESULT:     -12.1      1.807      3.202
REMARK  Name = 
REMARK  5 active torsions:
REMARK  status: ('A' for Active; 'I' for Inactive)
REMARK    1  A    between atoms: C_2  and  C_4
REMARK    2  A    between atoms: C_7  and  C_8
REMARK    3  A    between atoms: C_8  and  N_9
REMARK    4  A    between atoms: C_14  and  C_15
REMARK    5  A    between atoms: C_17  and  C_20
REMARK                            x       y       z     vdW  Elec       q    Type
REMARK                         _______ _______ _______ _____ _____    ______ ____
ROOT
ATOM      9  N   UNL     1      -2.370   2.950  24.496  0.00  0.00    -0.257 NA
ATOM     10  C   UNL     1      -2.360   3.735  24.752  0.00  0.00    +0.121 C 
ATOM     11  C   UNL     1      -1.642   4.115  24.891  0.00  0.00    +0.090 A 
ATOM     12  C   UNL     1      -0.932   3.710  24.775  0.00  0.00    +0.077 A 
ATOM     13  C   UNL     1      -0.942   2.926  24.520  0.00  0.00    +0.073 C 
ATOM     14  C   UNL     1      -1.660   2.546  24.380  0.00  0.00    +0.144 C 
ATOM     30  N   UNL     1      -0.313   4.225  24.957  0.00  0.00    -0.227 NA
ATOM     31  C   UNL     1      -0.640   4.947  25.185  0.00  0.00    +0.198 A 
ATOM     32  N   UNL     1      -1.462   4.879  25.145  0.00  0.00    -0.226 NA
ENDROOT
BRANCH  14  15
ATOM     15  C   UNL     1      -1.669   1.762  24.124  0.00  0.00    +0.251 A 
ATOM     16  N   UNL     1      -1.907   1.110  24.568  0.00  0.00    -0.190 NA
ATOM     17  C   UNL     1      -1.826   0.437  24.097  0.00  0.00    +0.203 A 
ATOM     18  N   UNL     1      -1.538   0.673  23.362  0.00  0.00    -0.056 NA
ATOM     19  O   UNL     1      -1.440   1.493  23.378  0.00  0.00    -0.336 OA
BRANCH  17  20
ATOM     20  C   UNL     1      -2.003  -0.337  24.322  0.00  0.00    +0.039 A 
ATOM     21  C   UNL     1      -1.428  -0.801  24.690  0.00  0.00    +0.003 A 
ATOM     22  C   UNL     1      -1.604  -1.575  24.915  0.00  0.00    +0.000 A 
ATOM     23  C   UNL     1      -2.354  -1.885  24.772  0.00  0.00    +0.000 A 
ATOM     24  C   UNL     1      -2.531  -2.659  24.997  0.00  0.00    +0.000 A 
ATOM     25  C   UNL     1      -3.281  -2.970  24.854  0.00  0.00    +0.000 A 
ATOM     26  C   UNL     1      -3.856  -2.505  24.486  0.00  0.00    +0.000 A 
ATOM     27  C   UNL     1      -3.680  -1.732  24.261  0.00  0.00    +0.000 A 
ATOM     28  C   UNL     1      -2.929  -1.421  24.404  0.00  0.00    +0.000 A 
ATOM     29  C   UNL     1      -2.753  -0.648  24.179  0.00  0.00    +0.003 A 
ENDBRANCH  17  20
ENDBRANCH  14  15
BRANCH   9   8
ATOM      8  C   UNL     1      -3.088   2.571  24.356  0.00  0.00    +0.100 C 
BRANCH   8   7
ATOM      4  C   UNL     1      -5.165   3.424  25.397  0.00  0.00    +0.080 A 
ATOM      5  C   UNL     1      -4.972   3.641  24.624  0.00  0.00    +0.006 A 
ATOM      6  C   UNL     1      -4.279   3.356  24.278  0.00  0.00    -0.003 A 
ATOM      7  C   UNL     1      -3.780   2.855  24.703  0.00  0.00    -0.006 A 
ATOM     33  C   UNL     1      -3.975   2.639  25.476  0.00  0.00    -0.003 A 
ATOM     34  C   UNL     1      -4.667   2.923  25.822  0.00  0.00    +0.006 A 
BRANCH   4   2
ATOM      1  O   UNL     1      -6.351   3.196  26.161  0.00  0.00    -0.241 OA
ATOM      2  C   UNL     1      -5.858   3.708  25.743  0.00  0.00    +0.388 C 
ATOM      3  O   UNL     1      -6.058   4.506  25.672  0.00  0.00    -0.241 OA
ENDBRANCH   4   2
ENDBRANCH   8   7
ENDBRANCH   9   8
TORSDOF 5
ENDMDL
MODEL 4
REMARK VINA RESULT:     -11.0      2.669      3.882
REMARK  Name = 
REMARK  5 active torsions:
REMARK  status: ('A' for Active; 'I' for Inactive)
REMARK    1  A    between atoms: C_2  and  C_4
REMARK    2  A    between atoms: C_7  and  C_8
REMARK    3  A    between atoms: C_8  and  N_9
REMARK    4  A    between atoms: C_14  and  C_15
REMARK    5  A    between atoms: C_17  and  C_20
REMARK                            x       y       z     vdW  Elec       q    Type
REMARK                         _______ _______ _______ _____ _____    ______ ____
ROOT
ATOM      9  N   UNL     1      -0.171   1.361  24.644  0.00  0.00    -0.257 NA
ATOM     10  C   UNL     1       0.470   1.803  24.370  0.00  0.00    +0.121 C 
ATOM     11  C   UNL     1       1.053   1.443  23.912  0.00  0.00    +0.090 A 
ATOM     12  C   UNL     1       0.996   0.640  23.726  0.00  0.00    +0.077 A 
ATOM     13  C   UNL     1       0.356   0.199  24.000  0.00  0.00    +0.073 C 
ATOM     14  C   UNL     1      -0.228   0.559  24.458  0.00  0.00    +0.144 C 
ATOM     30  N   UNL     1       1.651   0.438  23.267  0.00  0.00    -0.227 NA
ATOM     31  C   UNL     1       2.113   1.115  23.168  0.00  0.00    +0.198 A 
ATOM     32  N   UNL     1       1.744   1.736  23.567  0.00  0.00    -0.226 NA
ENDROOT
BRANCH  14  15
ATOM     15  C   UNL     1      -0.868   0.117  24.732  0.00  0.00    +0.251 A 
ATOM     16  N   UNL     1      -1.483  -0.183  24.270  0.00  0.00    -0.190 NA
ATOM     17  C   UNL     1      -2.002  -0.588  24.769  0.00  0.00    +0.203 A 
ATOM     18  N   UNL     1      -1.707  -0.539  25.537  0.00  0.00    -0.056 NA
ATOM     19  O   UNL     1      -1.007  -0.104  25.515  0.00  0.00    -0.336 OA
BRANCH  17  20
ATOM     20  C   UNL     1      -2.693  -0.975  24.539  0.00  0.00    +0.039 A 
ATOM     21  C   UNL     1      -3.369  -0.537  24.355  0.00  0.00    +0.003 A 
ATOM     22  C   UNL     1      -4.060  -0.923  24.125  0.00  0.00    +0.000 A 
ATOM     23  C   UNL     1      -4.077  -1.745  24.078  0.00  0.00    +0.000 A 
ATOM     24  C   UNL     1      -4.769  -2.132  23.848  0.00  0.00    +0.000 A 
ATOM     25  C   UNL     1      -4.786  -2.955  23.802  0.00  0.00    +0.000 A 
ATOM     26  C   UNL     1      -4.111  -3.393  23.986  0.00  0.00    +0.000 A 
ATOM     27  C   UNL     1      -3.419  -3.007  24.216  0.00  0.00    +0.000 A 
ATOM     28  C   UNL     1      -3.402  -2.183  24.262  0.00  0.00    +0.000 A 
ATOM     29  C   UNL     1      -2.710  -1.798  24.492  0.00  0.00    +0.003 A 
ENDBRANCH  17  20
ENDBRANCH  14  15
BRANCH   9   8
ATOM      8  C   UNL     1      -0.754   1.721  25.102  0.00  0.00    +0.100 C 
BRANCH   8   7
ATOM      4  C   UNL     1      -1.025   4.181  25.058  0.00  0.00    +0.080 A 
ATOM      5  C   UNL     1      -0.595   3.824  25.666  0.00  0.00    +0.006 A 
ATOM      6  C   UNL     1      -0.505   3.004  25.680  0.00  0.00    -0.003 A 
ATOM      7  C   UNL     1      -0.845   2.541  25.087  0.00  0.00    -0.006 A 
ATOM     33  C   UNL     1      -1.274   2.899  24.480  0.00  0.00    -0.003 A 
ATOM     34  C   UNL     1      -1.363   3.718  24.465  0.00  0.00    +0.006 A 
BRANCH   4   2
ATOM      1  O   UNL     1      -0.543   5.472  24.681  0.00  0.00    -0.241 OA
ATOM      2  C   UNL     1      -1.114   5.000  25.044  0.00  0.00    +0.388 C 
ATOM      3  O   UNL     1      -1.776   5.350  25.393  0.00  0.00    -0.241 OA
ENDBRANCH   4   2
ENDBRANCH   8   7
ENDBRANCH   9   8
TORSDOF 5
ENDMDL
MODEL 5
REMARK VINA RESULT:     -10.9      4.995      6.081
REMARK  Name = 
REMARK  5 active torsions:
REMARK  status: ('A' for Active; 'I' for Inactive)
REMARK    1  A    between atoms: C_2  and  C_4
REMARK    2  A    between atoms: C_7  and  C_8
REMARK    3  A    between atoms: C_8  and  N_9
REMARK    4  A    between atoms: C_14  and  C_15
REMARK    5  A    between atoms: C_17  and  C_20
REMARK                            x       y       z     vdW  Elec       q    Type
REMARK                         _______ _______ _______ _____ _____    ______ ____
ROOT
ATOM      9  N   UNL     1      -0.286   0.479  24.117  0.00  0.00    -0.257 NA
ATOM     10  C   UNL     1      -0.966   0.390  24.577  0.00  0.00    +0.121 C 
ATOM     11  C   UNL     1      -1.274  -0.362  24.717  0.00  0.00    +0.090 A 
ATOM     12  C   UNL     1      -0.902  -1.027  24.397  0.00  0.00    +0.077 A 
ATOM     13  C   UNL     1      -0.223  -0.937  23.938  0.00  0.00    +0.073 C 
ATOM     14  C   UNL     1       0.085  -0.185  23.798  0.00  0.00    +0.144 C 
ATOM     30  N   UNL     1      -1.329  -1.693  24.628  0.00  0.00    -0.227 NA
ATOM     31  C   UNL     1      -1.965  -1.441  25.090  0.00  0.00    +0.198 A 
ATOM     32  N   UNL     1      -1.931  -0.619  25.145  0.00  0.00    -0.226 NA
ENDROOT
BRANCH  14  15
ATOM     15  C   UNL     1       0.765  -0.097  23.339  0.00  0.00    +0.251 A 
ATOM     16  N   UNL     1       1.533  -0.004  23.623  0.00  0.00    -0.190 NA
ATOM     17  C   UNL     1       2.039   0.064  22.973  0.00  0.00    +0.203 A 
ATOM     18  N   UNL     1       1.582   0.015  22.289  0.00  0.00    -0.056 NA
ATOM     19  O   UNL     1       0.794  -0.085  22.514  0.00  0.00    -0.336 OA
BRANCH  17  20
ATOM     20  C   UNL     1       2.857   0.166  23.004  0.00  0.00    +0.039 A 
ATOM     21  C   UNL     1       3.204   0.825  22.648  0.00  0.00    +0.003 A 
ATOM     22  C   UNL     1       4.022   0.927  22.678  0.00  0.00    +0.000 A 
ATOM     23  C   UNL     1       4.493   0.370  23.063  0.00  0.00    +0.000 A 
ATOM     24  C   UNL     1       5.311   0.471  23.093  0.00  0.00    +0.000 A 
ATOM     25  C   UNL     1       5.782  -0.086  23.477  0.00  0.00    +0.000 A 
ATOM     26  C   UNL     1       5.435  -0.746  23.833  0.00  0.00    +0.000 A 
ATOM     27  C   UNL     1       4.617  -0.847  23.803  0.00  0.00    +0.000 A 
ATOM     28  C   UNL     1       4.145  -0.290  23.418  0.00  0.00    +0.000 A 
ATOM     29  C   UNL     1       3.328  -0.391  23.388  0.00  0.00    +0.003 A 
ENDBRANCH  17  20
ENDBRANCH  14  15
BRANCH   9   8
ATOM      8  C   UNL     1       0.021   1.231  23.978  0.00  0.00    +0.100 C 
BRANCH   8   7
ATOM      4  C   UNL     1      -1.014   3.212  25.041  0.00  0.00    +0.080 A 
ATOM      5  C   UNL     1      -1.280   2.952  24.304  0.00  0.00    +0.006 A 
ATOM      6  C   UNL     1      -0.935   2.292  23.950  0.00  0.00    -0.003 A 
ATOM      7  C   UNL     1      -0.323   1.891  24.332  0.00  0.00    -0.006 A 
ATOM     33  C   UNL     1      -0.057   2.151  25.069  0.00  0.00    -0.003 A 
ATOM     34  C   UNL     1      -0.402   2.811  25.423  0.00  0.00    +0.006 A 
BRANCH   4   2
ATOM      1  O   UNL     1      -1.076   4.628  25.222  0.00  0.00    -0.241 OA
ATOM      2  C   UNL     1      -1.359   3.872  25.394  0.00  0.00    +0.388 C 
ATOM      3  O   UNL     1      -1.988   3.778  25.921  0.00  0.00    -0.241 OA
ENDBRANCH   4   2
ENDBRANCH   8   7
ENDBRANCH   9   8
TORSDOF 5
ENDMDL
