REMARK  Name = 
REMARK  4 active torsions:
REMARK  status: ('A' for Active; 'I' for Inactive)
REMARK    1  A    between atoms: C_5  and  C_6
REMARK    2  A    between atoms: C_6  and  N_7
REMARK    3  A    between atoms: N_11  and  C_12
REMARK    4  A    between atoms: C_12  and  C_13
REMARK                            x       y       z     vdW  Elec       q    Type
REMARK                         _______ _______ _______ _____ _____    ______ ____
ROOT
ATOM      7  N   UNL     1       0.654  -0.698   0.000  0.00  0.00    -0.258 N 
ATOM      8  C   UNL     1       1.139  -0.030   0.000  0.00  0.00    +0.116 C 
ATOM      9  C   UNL     1       1.923  -0.285   0.000  0.00  0.00    +0.113 C 
ATOM     10  C   UNL     1       2.638   0.127   0.000  0.00  0.00    +0.094 C 
ATOM     11  N   UNL     1       3.352  -0.285   0.000  0.00  0.00    -0.266 NA
ATOM     19  C   UNL     1       3.352  -1.110   0.000  0.00  0.00    +0.094 C 
ATOM     20  C   UNL     1       2.638  -1.523   0.000  0.00  0.00    +0.112 C 
ATOM     21  N   UNL     1       1.923  -1.110   0.000  0.00  0.00    -0.261 N 
ATOM     22  C   UNL     1       1.139  -1.365   0.000  0.00  0.00    +0.308 C 
ATOM     23  O   UNL     1       0.884  -2.150   0.000  0.00  0.00    -0.252 OA
ENDROOT
BRANCH   7   6
ATOM      6  C   UNL     1      -0.171  -0.698   0.000  0.00  0.00    +0.122 C 
BRANCH   6   5
ATOM      1  F   UNL     1      -1.821  -3.556   0.000  0.00  0.00    -0.204 F 
ATOM      2  C   UNL     1      -1.409  -2.841   0.000  0.00  0.00    +0.140 A 
ATOM      3  C   UNL     1      -1.821  -2.127   0.000  0.00  0.00    +0.029 A 
ATOM      4  C   UNL     1      -1.409  -1.412   0.000  0.00  0.00    -0.000 A 
ATOM      5  C   UNL     1      -0.584  -1.412   0.000  0.00  0.00    -0.002 A 
ATOM     24  C   UNL     1      -0.171  -2.127   0.000  0.00  0.00    -0.000 A 
ATOM     25  C   UNL     1      -0.584  -2.841   0.000  0.00  0.00    +0.029 A 
ENDBRANCH   6   5
ENDBRANCH   7   6
BRANCH  11  12
ATOM     12  C   UNL     1       4.067   0.127   0.000  0.00  0.00    +0.099 C 
BRANCH  12  13
ATOM     13  C   UNL     1       4.781  -0.285   0.000  0.00  0.00    -0.006 A 
ATOM     14  C   UNL     1       5.496   0.127   0.000  0.00  0.00    -0.003 A 
ATOM     15  C   UNL     1       6.210  -0.285   0.000  0.00  0.00    -0.000 A 
ATOM     16  C   UNL     1       6.210  -1.110   0.000  0.00  0.00    -0.000 A 
ATOM     17  C   UNL     1       5.496  -1.523   0.000  0.00  0.00    -0.000 A 
ATOM     18  C   UNL     1       4.781  -1.110   0.000  0.00  0.00    -0.003 A 
ENDBRANCH  12  13
ENDBRANCH  11  12
TORSDOF 4
