MODEL 1
REMARK VINA RESULT:      -9.8      0.000      0.000
REMARK  Name = 
REMARK  12 active torsions:
REMARK  status: ('A' for Active; 'I' for Inactive)
REMARK    1  A    between atoms: O_2  and  C_3
REMARK    2  A    between atoms: C_5  and  N_6
REMARK    3  A    between atoms: N_9  and  C_10
REMARK    4  A    between atoms: C_12  and  C_21
REMARK    5  A    between atoms: C_15  and  C_17
REMARK    6  A    between atoms: N_23  and  C_24
REMARK    7  A    between atoms: C_24  and  C_25
REMARK    8  A    between atoms: C_24  and  C_35
REMARK    9  A    between atoms: C_25  and  C_26
REMARK   10  A    between atoms: C_26  and  C_27
REMARK   11  A    between atoms: C_27  and  N_28
REMARK   12  A    between atoms: C_29  and  C_31
REMARK                            x       y       z     vdW  Elec       q    Type
REMARK                         _______ _______ _______ _____ _____    ______ ____
ROOT
ATOM     10  C   UNL     1       0.518   0.032  23.337  0.00  0.00    +0.119 C 
ATOM     11  C   UNL     1       0.315   0.702  23.775  0.00  0.00    +0.053 C 
ATOM     12  C   UNL     1      -0.318   0.504  24.264  0.00  0.00    +0.156 C 
ATOM     13  N   UNL     1      -0.508  -0.288  24.129  0.00  0.00    -0.268 N 
ATOM     14  C   UNL     1       0.009  -0.578  23.556  0.00  0.00    +0.116 C 
ATOM     15  C   UNL     1      -1.109  -0.713  24.501  0.00  0.00    +0.249 C 
ATOM     16  O   UNL     1      -1.234  -1.505  24.309  0.00  0.00    -0.270 OA
ENDROOT
BRANCH  10   9
ATOM      6  N   UNL     1       2.506   0.092  22.440  0.00  0.00    -0.161 NA
ATOM      7  C   UNL     1       1.902   0.142  22.998  0.00  0.00    +0.343 C 
ATOM      8  O   UNL     1       2.076   0.350  23.778  0.00  0.00    -0.249 OA
ATOM      9  N   UNL     1       1.123  -0.017  22.778  0.00  0.00    -0.187 NA
BRANCH   6   5
ATOM      3  C   UNL     1       4.523  -0.181  23.229  0.00  0.00    +0.140 A 
ATOM      4  C   UNL     1       3.745  -0.339  23.009  0.00  0.00    +0.054 A 
ATOM      5  C   UNL     1       3.285   0.251  22.660  0.00  0.00    +0.078 A 
ATOM     38  C   UNL     1       3.606   1.000  22.531  0.00  0.00    +0.017 A 
ATOM     39  C   UNL     1       4.385   1.159  22.751  0.00  0.00    +0.004 A 
ATOM     40  C   UNL     1       4.844   0.569  23.100  0.00  0.00    +0.037 A 
BRANCH   3   2
ATOM      1  C   UNL     1       5.466  -0.590  24.222  0.00  0.00    +0.252 C 
ATOM      2  O   UNL     1       4.982  -0.770  23.578  0.00  0.00    -0.471 OA
ENDBRANCH   3   2
ENDBRANCH   6   5
ENDBRANCH  10   9
BRANCH  15  17
ATOM     17  C   UNL     1      -1.585  -0.346  25.067  0.00  0.00    +0.049 C 
ATOM     18  C   UNL     1      -2.216  -0.756  25.403  0.00  0.00    -0.039 C 
ATOM     19  C   UNL     1      -2.372  -1.534  25.174  0.00  0.00    +0.027 C 
ATOM     20  C   UNL     1      -2.692  -0.389  25.968  0.00  0.00    +0.027 C 
ENDBRANCH  15  17
BRANCH  12  21
ATOM     21  C   UNL     1      -0.697   1.009  24.796  0.00  0.00    +0.260 C 
ATOM     22  O   UNL     1      -0.932   0.728  25.535  0.00  0.00    -0.272 OA
ATOM     23  N   UNL     1      -0.841   1.794  24.589  0.00  0.00    -0.196 NA
BRANCH  23  24
ATOM     24  C   UNL     1      -1.220   2.299  25.121  0.00  0.00    +0.174 C 
BRANCH  24  35
ATOM     35  C   UNL     1      -0.774   2.770  25.631  0.00  0.00    +0.281 C 
ATOM     36  N   UNL     1      -0.303   3.375  25.328  0.00  0.00    -0.086 NA
ATOM     37  O   UNL     1      -0.799   2.635  26.445  0.00  0.00    -0.270 OA
ENDBRANCH  24  35
BRANCH  24  25
ATOM     25  C   UNL     1      -2.043   2.333  25.143  0.00  0.00    +0.033 C 
BRANCH  25  26
ATOM     26  C   UNL     1      -2.448   2.866  24.660  0.00  0.00    +0.026 C 
BRANCH  26  27
ATOM     27  C   UNL     1      -3.224   3.079  24.840  0.00  0.00    +0.116 C 
BRANCH  27  28
ATOM     28  N   UNL     1      -3.848   2.590  24.616  0.00  0.00    -0.202 NA
ATOM     29  C   UNL     1      -4.624   2.797  24.805  0.00  0.00    +0.264 C 
ATOM     30  O   UNL     1      -4.775   3.495  25.218  0.00  0.00    -0.268 OA
BRANCH  29  31
ATOM     31  C   UNL     1      -5.249   2.308  24.581  0.00  0.00    +0.051 C 
ATOM     32  C   UNL     1      -5.803   2.063  25.140  0.00  0.00    -0.039 C 
ATOM     33  C   UNL     1      -6.428   1.574  24.916  0.00  0.00    +0.027 C 
ATOM     34  C   UNL     1      -5.733   2.308  25.925  0.00  0.00    +0.027 C 
ENDBRANCH  29  31
ENDBRANCH  27  28
ENDBRANCH  26  27
ENDBRANCH  25  26
ENDBRANCH  24  25
ENDBRANCH  23  24
ENDBRANCH  12  21
TORSDOF 12
ENDMDL
MODEL 2
REMARK VINA RESULT:      -9.6      1.699      6.198
REMARK  Name = 
REMARK  12 active torsions:
REMARK  status: ('A' for Active; 'I' for Inactive)
REMARK    1  A    between atoms: O_2  and  C_3
REMARK    2  A    between atoms: C_5  and  N_6
REMARK    3  A    between atoms: N_9  and  C_10
REMARK    4  A    between atoms: C_12  and  C_21
REMARK    5  A    between atoms: C_15  and  C_17
REMARK    6  A    between atoms: N_23  and  C_24
REMARK    7  A    between atoms: C_24  and  C_25
REMARK    8  A    between atoms: C_24  and  C_35
REMARK    9  A    between atoms: C_25  and  C_26
REMARK   10  A    between atoms: C_26  and  C_27
REMARK   11  A    between atoms: C_27  and  N_28
REMARK   12  A    between atoms: C_29  and  C_31
REMARK                            x       y       z     vdW  Elec       q    Type
REMARK                         _______ _______ _______ _____ _____    ______ ____
ROOT
ATOM     10  C   UNL     1      -3.596   1.045  24.200  0.00  0.00    +0.119 C 
ATOM     11  C   UNL     1      -2.812   0.786  24.228  0.00  0.00    +0.053 C 
ATOM     12  C   UNL     1      -2.815  -0.038  24.231  0.00  0.00    +0.156 C 
ATOM     13  N   UNL     1      -3.600  -0.291  24.205  0.00  0.00    -0.268 N 
ATOM     14  C   UNL     1      -4.082   0.378  24.186  0.00  0.00    +0.116 C 
ATOM     15  C   UNL     1      -3.857  -1.074  24.198  0.00  0.00    +0.249 C 
ATOM     16  O   UNL     1      -4.664  -1.244  24.171  0.00  0.00    -0.270 OA
ENDROOT
BRANCH  10   9
ATOM      6  N   UNL     1      -3.725   3.175  24.651  0.00  0.00    -0.161 NA
ATOM      7  C   UNL     1      -3.473   2.391  24.663  0.00  0.00    +0.343 C 
ATOM      8  O   UNL     1      -2.844   2.166  25.148  0.00  0.00    -0.249 OA
ATOM      9  N   UNL     1      -3.848   1.829  24.189  0.00  0.00    -0.187 NA
BRANCH   6   5
ATOM      3  C   UNL     1      -2.357   4.751  25.291  0.00  0.00    +0.140 A 
ATOM      4  C   UNL     1      -2.732   4.190  24.818  0.00  0.00    +0.054 A 
ATOM      5  C   UNL     1      -3.349   3.737  25.125  0.00  0.00    +0.078 A 
ATOM     38  C   UNL     1      -3.590   3.845  25.907  0.00  0.00    +0.017 A 
ATOM     39  C   UNL     1      -3.215   4.406  26.380  0.00  0.00    +0.004 A 
ATOM     40  C   UNL     1      -2.598   4.859  26.073  0.00  0.00    +0.037 A 
BRANCH   3   2
ATOM      1  C   UNL     1      -0.963   4.929  25.029  0.00  0.00    +0.252 C 
ATOM      2  O   UNL     1      -1.740   5.204  24.984  0.00  0.00    -0.471 OA
ENDBRANCH   3   2
ENDBRANCH   6   5
ENDBRANCH  10   9
BRANCH  15  17
ATOM     17  C   UNL     1      -3.307  -1.690  24.219  0.00  0.00    +0.049 C 
ATOM     18  C   UNL     1      -3.563  -2.473  24.178  0.00  0.00    -0.039 C 
ATOM     19  C   UNL     1      -4.368  -2.641  24.116  0.00  0.00    +0.027 C 
ATOM     20  C   UNL     1      -3.013  -3.087  24.199  0.00  0.00    +0.027 C 
ENDBRANCH  15  17
BRANCH  12  21
ATOM     21  C   UNL     1      -2.149  -0.525  24.255  0.00  0.00    +0.260 C 
ATOM     22  O   UNL     1      -2.131  -1.220  23.810  0.00  0.00    -0.272 OA
ATOM     23  N   UNL     1      -1.503  -0.319  24.723  0.00  0.00    -0.196 NA
BRANCH  23  24
ATOM     24  C   UNL     1      -0.838  -0.807  24.748  0.00  0.00    +0.174 C 
BRANCH  24  35
ATOM     35  C   UNL     1      -0.680  -1.256  25.422  0.00  0.00    +0.281 C 
ATOM     36  N   UNL     1      -0.820  -0.939  26.171  0.00  0.00    -0.086 NA
ATOM     37  O   UNL     1      -0.383  -2.022  25.348  0.00  0.00    -0.270 OA
ENDBRANCH  24  35
BRANCH  24  25
ATOM     25  C   UNL     1      -0.331  -0.846  24.099  0.00  0.00    +0.033 C 
BRANCH  25  26
ATOM     26  C   UNL     1       0.180  -0.219  23.935  0.00  0.00    +0.026 C 
BRANCH  26  27
ATOM     27  C   UNL     1       0.764  -0.302  23.359  0.00  0.00    +0.116 C 
BRANCH  27  28
ATOM     28  N   UNL     1       1.392   0.231  23.329  0.00  0.00    -0.202 NA
ATOM     29  C   UNL     1       1.954   0.174  22.728  0.00  0.00    +0.264 C 
ATOM     30  O   UNL     1       1.887  -0.416  22.155  0.00  0.00    -0.268 OA
BRANCH  29  31
ATOM     31  C   UNL     1       2.583   0.707  22.698  0.00  0.00    +0.051 C 
ATOM     32  C   UNL     1       3.360   0.431  22.729  0.00  0.00    -0.039 C 
ATOM     33  C   UNL     1       3.988   0.964  22.699  0.00  0.00    +0.027 C 
ATOM     34  C   UNL     1       3.508  -0.378  22.790  0.00  0.00    +0.027 C 
ENDBRANCH  29  31
ENDBRANCH  27  28
ENDBRANCH  26  27
ENDBRANCH  25  26
ENDBRANCH  24  25
ENDBRANCH  23  24
ENDBRANCH  12  21
TORSDOF 12
ENDMDL
MODEL 3
REMARK VINA RESULT:      -9.3      2.130      5.998
REMARK  Name = 
REMARK  12 active torsions:
REMARK  status: ('A' for Active; 'I' for Inactive)
REMARK    1  A    between atoms: O_2  and  C_3
REMARK    2  A    between atoms: C_5  and  N_6
REMARK    3  A    between atoms: N_9  and  C_10
REMARK    4  A    between atoms: C_12  and  C_21
REMARK    5  A    between atoms: C_15  and  C_17
REMARK    6  A    between atoms: N_23  and  C_24
REMARK    7  A    between atoms: C_24  and  C_25
REMARK    8  A    between atoms: C_24  and  C_35
REMARK    9  A    between atoms: C_25  and  C_26
REMARK   10  A    between atoms: C_26  and  C_27
REMARK   11  A    between atoms: C_27  and  N_28
REMARK   12  A    between atoms: C_29  and  C_31
REMARK                            x       y       z     vdW  Elec       q    Type
REMARK                         _______ _______ _______ _____ _____    ______ ____
ROOT
ATOM     10  C   UNL     1      -3.363   0.071  24.251  0.00  0.00    +0.119 C 
ATOM     11  C   UNL     1      -2.630   0.447  24.198  0.00  0.00    +0.053 C 
ATOM     12  C   UNL     1      -2.047  -0.104  24.386  0.00  0.00    +0.156 C 
ATOM     13  N   UNL     1      -2.418  -0.822  24.555  0.00  0.00    -0.268 N 
ATOM     14  C   UNL     1      -3.232  -0.713  24.471  0.00  0.00    +0.116 C 
ATOM     15  C   UNL     1      -2.043  -1.524  24.770  0.00  0.00    +0.249 C 
ATOM     16  O   UNL     1      -2.488  -2.201  24.923  0.00  0.00    -0.270 OA
ENDROOT
BRANCH  10   9
ATOM      6  N   UNL     1      -5.138   1.316  24.497  0.00  0.00    -0.161 NA
ATOM      7  C   UNL     1      -4.404   0.969  24.639  0.00  0.00    +0.343 C 
ATOM      8  O   UNL     1      -3.976   1.173  25.315  0.00  0.00    -0.249 OA
ATOM      9  N   UNL     1      -4.098   0.418  24.108  0.00  0.00    -0.187 NA
BRANCH   6   5
ATOM      3  C   UNL     1      -5.534   3.212  25.504  0.00  0.00    +0.140 A 
ATOM      4  C   UNL     1      -5.227   2.661  24.972  0.00  0.00    +0.054 A 
ATOM      5  C   UNL     1      -5.445   1.867  25.028  0.00  0.00    +0.078 A 
ATOM     38  C   UNL     1      -5.971   1.624  25.617  0.00  0.00    +0.017 A 
ATOM     39  C   UNL     1      -6.277   2.175  26.148  0.00  0.00    +0.004 A 
ATOM     40  C   UNL     1      -6.059   2.969  26.092  0.00  0.00    +0.037 A 
BRANCH   3   2
ATOM      1  C   UNL     1      -5.889   4.596  25.509  0.00  0.00    +0.252 C 
ATOM      2  O   UNL     1      -5.316   4.005  25.448  0.00  0.00    -0.471 OA
ENDBRANCH   3   2
ENDBRANCH   6   5
ENDBRANCH  10   9
BRANCH  15  17
ATOM     17  C   UNL     1      -1.220  -1.550  24.832  0.00  0.00    +0.049 C 
ATOM     18  C   UNL     1      -0.845  -2.249  25.056  0.00  0.00    -0.039 C 
ATOM     19  C   UNL     1      -1.292  -2.923  25.219  0.00  0.00    +0.027 C 
ATOM     20  C   UNL     1      -0.023  -2.274  25.118  0.00  0.00    +0.027 C 
ENDBRANCH  15  17
BRANCH  12  21
ATOM     21  C   UNL     1      -1.233   0.036  24.402  0.00  0.00    +0.260 C 
ATOM     22  O   UNL     1      -0.783  -0.229  25.041  0.00  0.00    -0.272 OA
ATOM     23  N   UNL     1      -0.871   0.440  23.782  0.00  0.00    -0.196 NA
BRANCH  23  24
ATOM     24  C   UNL     1      -0.058   0.579  23.798  0.00  0.00    +0.174 C 
BRANCH  24  35
ATOM     35  C   UNL     1       0.432   0.225  23.237  0.00  0.00    +0.281 C 
ATOM     36  N   UNL     1       1.202   0.008  23.440  0.00  0.00    -0.086 NA
ATOM     37  O   UNL     1       0.153   0.087  22.473  0.00  0.00    -0.270 OA
ENDBRANCH  24  35
BRANCH  24  25
ATOM     25  C   UNL     1       0.264   1.073  24.375  0.00  0.00    +0.033 C 
BRANCH  25  26
ATOM     26  C   UNL     1       0.348   1.880  24.227  0.00  0.00    +0.026 C 
BRANCH  26  27
ATOM     27  C   UNL     1       0.222   2.426  24.833  0.00  0.00    +0.116 C 
BRANCH  27  28
ATOM     28  N   UNL     1      -0.050   3.183  24.655  0.00  0.00    -0.202 NA
ATOM     29  C   UNL     1      -0.467   3.616  25.221  0.00  0.00    +0.264 C 
ATOM     30  O   UNL     1      -0.612   3.289  25.965  0.00  0.00    -0.268 OA
BRANCH  29  31
ATOM     31  C   UNL     1      -0.739   4.374  25.044  0.00  0.00    +0.051 C 
ATOM     32  C   UNL     1      -1.495   4.606  25.277  0.00  0.00    -0.039 C 
ATOM     33  C   UNL     1      -1.767   5.364  25.099  0.00  0.00    +0.027 C 
ATOM     34  C   UNL     1      -1.980   4.080  25.687  0.00  0.00    +0.027 C 
ENDBRANCH  29  31
ENDBRANCH  27  28
ENDBRANCH  26  27
ENDBRANCH  25  26
ENDBRANCH  24  25
ENDBRANCH  23  24
ENDBRANCH  12  21
TORSDOF 12
ENDMDL
MODEL 4
REMARK VINA RESULT:      -9.1      1.525      3.414
REMARK  Name = 
REMARK  12 active torsions:
REMARK  status: ('A' for Active; 'I' for Inactive)
REMARK    1  A    between atoms: O_2  and  C_3
REMARK    2  A    between atoms: C_5  and  N_6
REMARK    3  A    between atoms: N_9  and  C_10
REMARK    4  A    between atoms: C_12  and  C_21
REMARK    5  A    between atoms: C_15  and  C_17
REMARK    6  A    between atoms: N_23  and  C_24
REMARK    7  A    between atoms: C_24  and  C_25
REMARK    8  A    between atoms: C_24  and  C_35
REMARK    9  A    between atoms: C_25  and  C_26
REMARK   10  A    between atoms: C_26  and  C_27
REMARK   11  A    between atoms: C_27  and  N_28
REMARK   12  A    between atoms: C_29  and  C_31
REMARK                            x       y       z     vdW  Elec       q    Type
REMARK                         _______ _______ _______ _____ _____    ______ ____
ROOT
ATOM     10  C   UNL     1      -0.240   1.353  24.593  0.00  0.00    +0.119 C 
ATOM     11  C   UNL     1      -1.060   1.304  24.514  0.00  0.00    +0.053 C 
ATOM     12  C   UNL     1      -1.378   2.046  24.677  0.00  0.00    +0.156 C 
ATOM     13  N   UNL     1      -0.755   2.557  24.856  0.00  0.00    -0.268 N 
ATOM     14  C   UNL     1      -0.052   2.128  24.805  0.00  0.00    +0.116 C 
ATOM     15  C   UNL     1      -0.823   3.355  25.053  0.00  0.00    +0.249 C 
ATOM     16  O   UNL     1      -0.148   3.799  25.220  0.00  0.00    -0.270 OA
ENDROOT
BRANCH  10   9
ATOM      6  N   UNL     1       1.340   0.130  23.717  0.00  0.00    -0.161 NA
ATOM      7  C   UNL     1       0.803   0.746  23.830  0.00  0.00    +0.343 C 
ATOM      8  O   UNL     1       0.773   1.370  23.291  0.00  0.00    -0.249 OA
ATOM      9  N   UNL     1       0.297   0.738  24.481  0.00  0.00    -0.187 NA
BRANCH   6   5
ATOM      3  C   UNL     1       3.101   0.491  22.478  0.00  0.00    +0.140 A 
ATOM      4  C   UNL     1       2.594   0.483  23.129  0.00  0.00    +0.054 A 
ATOM      5  C   UNL     1       1.847   0.138  23.067  0.00  0.00    +0.078 A 
ATOM     38  C   UNL     1       1.607  -0.199  22.353  0.00  0.00    +0.017 A 
ATOM     39  C   UNL     1       2.114  -0.191  21.702  0.00  0.00    +0.004 A 
ATOM     40  C   UNL     1       2.860   0.153  21.765  0.00  0.00    +0.037 A 
BRANCH   3   2
ATOM      1  C   UNL     1       4.472   0.409  22.870  0.00  0.00    +0.252 C 
ATOM      2  O   UNL     1       3.847   0.836  22.541  0.00  0.00    -0.471 OA
ENDBRANCH   3   2
ENDBRANCH   6   5
ENDBRANCH  10   9
BRANCH  15  17
ATOM     17  C   UNL     1      -1.568   3.711  25.083  0.00  0.00    +0.049 C 
ATOM     18  C   UNL     1      -1.631   4.528  25.173  0.00  0.00    -0.039 C 
ATOM     19  C   UNL     1      -0.950   4.990  25.234  0.00  0.00    +0.027 C 
ATOM     20  C   UNL     1      -2.374   4.883  25.203  0.00  0.00    +0.027 C 
ENDBRANCH  15  17
BRANCH  12  21
ATOM     21  C   UNL     1      -2.179   2.246  24.663  0.00  0.00    +0.260 C 
ATOM     22  O   UNL     1      -2.505   2.687  25.279  0.00  0.00    -0.272 OA
ATOM     23  N   UNL     1      -2.654   2.004  24.034  0.00  0.00    -0.196 NA
BRANCH  23  24
ATOM     24  C   UNL     1      -3.455   2.203  24.020  0.00  0.00    +0.174 C 
BRANCH  24  35
ATOM     35  C   UNL     1      -3.733   2.750  23.468  0.00  0.00    +0.281 C 
ATOM     36  N   UNL     1      -3.473   2.718  22.687  0.00  0.00    -0.086 NA
ATOM     37  O   UNL     1      -4.273   3.330  23.699  0.00  0.00    -0.270 OA
ENDBRANCH  24  35
BRANCH  24  25
ATOM     25  C   UNL     1      -3.976   1.856  24.556  0.00  0.00    +0.033 C 
BRANCH  25  26
ATOM     26  C   UNL     1      -4.423   1.200  24.332  0.00  0.00    +0.026 C 
BRANCH  26  27
ATOM     27  C   UNL     1      -4.438   0.528  24.809  0.00  0.00    +0.116 C 
BRANCH  27  28
ATOM     28  N   UNL     1      -4.464  -0.221  24.465  0.00  0.00    -0.202 NA
ATOM     29  C   UNL     1      -4.194  -0.878  24.886  0.00  0.00    +0.264 C 
ATOM     30  O   UNL     1      -3.898  -0.785  25.650  0.00  0.00    -0.268 OA
BRANCH  29  31
ATOM     31  C   UNL     1      -4.220  -1.627  24.542  0.00  0.00    +0.051 C 
ATOM     32  C   UNL     1      -3.593  -2.153  24.651  0.00  0.00    -0.039 C 
ATOM     33  C   UNL     1      -3.619  -2.902  24.307  0.00  0.00    +0.027 C 
ATOM     34  C   UNL     1      -2.941  -1.930  25.104  0.00  0.00    +0.027 C 
ENDBRANCH  29  31
ENDBRANCH  27  28
ENDBRANCH  26  27
ENDBRANCH  25  26
ENDBRANCH  24  25
ENDBRANCH  23  24
ENDBRANCH  12  21
TORSDOF 12
ENDMDL
MODEL 5
REMARK VINA RESULT:      -9.1      1.043      2.262
REMARK  Name = 
REMARK  12 active torsions:
REMARK  status: ('A' for Active; 'I' for Inactive)
REMARK    1  A    between atoms: O_2  and  C_3
REMARK    2  A    between atoms: C_5  and  N_6
REMARK    3  A    between atoms: N_9  and  C_10
REMARK    4  A    between atoms: C_12  and  C_21
REMARK    5  A    between atoms: C_15  and  C_17
REMARK    6  A    between atoms: N_23  and  C_24
REMARK    7  A    between atoms: C_24  and  C_25
REMARK    8  A    between atoms: C_24  and  C_35
REMARK    9  A    between atoms: C_25  and  C_26
REMARK   10  A    between atoms: C_26  and  C_27
REMARK   11  A    between atoms: C_27  and  N_28
REMARK   12  A    between atoms: C_29  and  C_31
REMARK                            x       y       z     vdW  Elec       q    Type
REMARK                         _______ _______ _______ _____ _____    ______ ____
ROOT
ATOM     10  C   UNL     1       0.612   0.689  23.453  0.00  0.00    +0.119 C 
ATOM     11  C   UNL     1       0.023   0.253  23.834  0.00  0.00    +0.053 C 
ATOM     12  C   UNL     1      -0.411   0.770  24.307  0.00  0.00    +0.156 C 
ATOM     13  N   UNL     1      -0.092   1.526  24.219  0.00  0.00    -0.268 N 
ATOM     14  C   UNL     1       0.540   1.475  23.692  0.00  0.00    +0.116 C 
ATOM     15  C   UNL     1      -0.358   2.211  24.593  0.00  0.00    +0.249 C 
ATOM     16  O   UNL     1       0.018   2.932  24.451  0.00  0.00    -0.270 OA
ENDROOT
BRANCH  10   9
ATOM      6  N   UNL     1       2.537   0.157  22.575  0.00  0.00    -0.161 NA
ATOM      7  C   UNL     1       1.977   0.456  23.100  0.00  0.00    +0.343 C 
ATOM      8  O   UNL     1       2.219   0.819  23.800  0.00  0.00    -0.249 OA
ATOM      9  N   UNL     1       1.173   0.390  22.927  0.00  0.00    -0.187 NA
BRANCH   6   5
ATOM      3  C   UNL     1       4.527  -0.312  23.339  0.00  0.00    +0.140 A 
ATOM      4  C   UNL     1       3.724  -0.378  23.166  0.00  0.00    +0.054 A 
ATOM      5  C   UNL     1       3.341   0.223  22.748  0.00  0.00    +0.078 A 
ATOM     38  C   UNL     1       3.763   0.888  22.503  0.00  0.00    +0.017 A 
ATOM     39  C   UNL     1       4.567   0.953  22.676  0.00  0.00    +0.004 A 
ATOM     40  C   UNL     1       4.949   0.353  23.094  0.00  0.00    +0.037 A 
BRANCH   3   2
ATOM      1  C   UNL     1       5.551  -0.731  24.243  0.00  0.00    +0.252 C 
ATOM      2  O   UNL     1       4.910  -0.912  23.757  0.00  0.00    -0.471 OA
ENDBRANCH   3   2
ENDBRANCH   6   5
ENDBRANCH  10   9
BRANCH  15  17
ATOM     17  C   UNL     1      -1.001   2.177  25.109  0.00  0.00    +0.049 C 
ATOM     18  C   UNL     1      -1.254   2.858  25.499  0.00  0.00    -0.039 C 
ATOM     19  C   UNL     1      -0.865   3.575  25.372  0.00  0.00    +0.027 C 
ATOM     20  C   UNL     1      -1.896   2.824  26.015  0.00  0.00    +0.027 C 
ENDBRANCH  15  17
BRANCH  12  21
ATOM     21  C   UNL     1      -1.053   0.568  24.785  0.00  0.00    +0.260 C 
ATOM     22  O   UNL     1      -1.100   0.857  25.556  0.00  0.00    -0.272 OA
ATOM     23  N   UNL     1      -1.648   0.077  24.492  0.00  0.00    -0.196 NA
BRANCH  23  24
ATOM     24  C   UNL     1      -2.290  -0.125  24.969  0.00  0.00    +0.174 C 
BRANCH  24  35
ATOM     35  C   UNL     1      -2.266  -0.815  25.420  0.00  0.00    +0.281 C 
ATOM     36  N   UNL     1      -2.203  -1.549  25.049  0.00  0.00    -0.086 NA
ATOM     37  O   UNL     1      -2.307  -0.773  26.244  0.00  0.00    -0.270 OA
ENDBRANCH  24  35
BRANCH  24  25
ATOM     25  C   UNL     1      -2.954   0.363  24.997  0.00  0.00    +0.033 C 
BRANCH  25  26
ATOM     26  C   UNL     1      -3.579   0.239  24.472  0.00  0.00    +0.026 C 
BRANCH  26  27
ATOM     27  C   UNL     1      -4.318   0.570  24.626  0.00  0.00    +0.116 C 
BRANCH  27  28
ATOM     28  N   UNL     1      -4.421   1.387  24.586  0.00  0.00    -0.202 NA
ATOM     29  C   UNL     1      -5.143   1.724  24.803  0.00  0.00    +0.264 C 
ATOM     30  O   UNL     1      -5.761   1.242  25.061  0.00  0.00    -0.268 OA
BRANCH  29  31
ATOM     31  C   UNL     1      -5.246   2.540  24.763  0.00  0.00    +0.051 C 
ATOM     32  C   UNL     1      -5.526   2.955  25.419  0.00  0.00    -0.039 C 
ATOM     33  C   UNL     1      -5.630   3.772  25.379  0.00  0.00    +0.027 C 
ATOM     34  C   UNL     1      -5.704   2.551  26.116  0.00  0.00    +0.027 C 
ENDBRANCH  29  31
ENDBRANCH  27  28
ENDBRANCH  26  27
ENDBRANCH  25  26
ENDBRANCH  24  25
ENDBRANCH  23  24
ENDBRANCH  12  21
TORSDOF 12
ENDMDL
MODEL 6
REMARK VINA RESULT:      -8.5      1.690      6.302
REMARK  Name = 
REMARK  12 active torsions:
REMARK  status: ('A' for Active; 'I' for Inactive)
REMARK    1  A    between atoms: O_2  and  C_3
REMARK    2  A    between atoms: C_5  and  N_6
REMARK    3  A    between atoms: N_9  and  C_10
REMARK    4  A    between atoms: C_12  and  C_21
REMARK    5  A    between atoms: C_15  and  C_17
REMARK    6  A    between atoms: N_23  and  C_24
REMARK    7  A    between atoms: C_24  and  C_25
REMARK    8  A    between atoms: C_24  and  C_35
REMARK    9  A    between atoms: C_25  and  C_26
REMARK   10  A    between atoms: C_26  and  C_27
REMARK   11  A    between atoms: C_27  and  N_28
REMARK   12  A    between atoms: C_29  and  C_31
REMARK                            x       y       z     vdW  Elec       q    Type
REMARK                         _______ _______ _______ _____ _____    ______ ____
ROOT
ATOM     10  C   UNL     1      -3.544   1.651  25.029  0.00  0.00    +0.119 C 
ATOM     11  C   UNL     1      -2.724   1.563  24.992  0.00  0.00    +0.053 C 
ATOM     12  C   UNL     1      -2.386   2.315  24.991  0.00  0.00    +0.156 C 
ATOM     13  N   UNL     1      -2.996   2.869  25.028  0.00  0.00    -0.268 N 
ATOM     14  C   UNL     1      -3.711   2.459  25.051  0.00  0.00    +0.116 C 
ATOM     15  C   UNL     1      -2.907   3.689  25.039  0.00  0.00    +0.249 C 
ATOM     16  O   UNL     1      -3.572   4.176  25.077  0.00  0.00    -0.270 OA
ENDROOT
BRANCH  10   9
ATOM      6  N   UNL     1      -4.441  -0.323  24.791  0.00  0.00    -0.161 NA
ATOM      7  C   UNL     1      -3.888   0.288  24.778  0.00  0.00    +0.343 C 
ATOM      8  O   UNL     1      -3.123   0.146  24.501  0.00  0.00    -0.249 OA
ATOM      9  N   UNL     1      -4.097   1.040  25.042  0.00  0.00    -0.187 NA
BRANCH   6   5
ATOM      3  C   UNL     1      -3.545  -2.313  24.731  0.00  0.00    +0.140 A 
ATOM      4  C   UNL     1      -3.754  -1.560  24.995  0.00  0.00    +0.054 A 
ATOM      5  C   UNL     1      -4.232  -1.076  24.527  0.00  0.00    +0.078 A 
ATOM     38  C   UNL     1      -4.500  -1.346  23.795  0.00  0.00    +0.017 A 
ATOM     39  C   UNL     1      -4.290  -2.098  23.530  0.00  0.00    +0.004 A 
ATOM     40  C   UNL     1      -3.813  -2.582  23.998  0.00  0.00    +0.037 A 
BRANCH   3   2
ATOM      1  C   UNL     1      -2.297  -2.971  24.959  0.00  0.00    +0.252 C 
ATOM      2  O   UNL     1      -3.068  -2.796  25.198  0.00  0.00    -0.471 OA
ENDBRANCH   3   2
ENDBRANCH   6   5
ENDBRANCH  10   9
BRANCH  15  17
ATOM     17  C   UNL     1      -2.153   4.023  25.012  0.00  0.00    +0.049 C 
ATOM     18  C   UNL     1      -2.057   4.836  25.113  0.00  0.00    -0.039 C 
ATOM     19  C   UNL     1      -2.716   5.316  25.241  0.00  0.00    +0.027 C 
ATOM     20  C   UNL     1      -1.303   5.169  25.086  0.00  0.00    +0.027 C 
ENDBRANCH  15  17
BRANCH  12  21
ATOM     21  C   UNL     1      -1.579   2.485  24.959  0.00  0.00    +0.260 C 
ATOM     22  O   UNL     1      -1.303   3.084  24.464  0.00  0.00    -0.272 OA
ATOM     23  N   UNL     1      -1.048   2.056  25.422  0.00  0.00    -0.196 NA
BRANCH  23  24
ATOM     24  C   UNL     1      -0.241   2.226  25.390  0.00  0.00    +0.174 C 
BRANCH  24  35
ATOM     35  C   UNL     1       0.149   2.499  26.063  0.00  0.00    +0.281 C 
ATOM     36  N   UNL     1      -0.014   2.165  26.799  0.00  0.00    -0.086 NA
ATOM     37  O   UNL     1       0.705   3.107  26.001  0.00  0.00    -0.270 OA
ENDBRANCH  24  35
BRANCH  24  25
ATOM     25  C   UNL     1       0.175   2.123  24.685  0.00  0.00    +0.033 C 
BRANCH  25  26
ATOM     26  C   UNL     1       0.623   1.440  24.566  0.00  0.00    +0.026 C 
BRANCH  26  27
ATOM     27  C   UNL     1       0.953   1.287  23.826  0.00  0.00    +0.116 C 
BRANCH  27  28
ATOM     28  N   UNL     1       1.767   1.355  23.716  0.00  0.00    -0.202 NA
ATOM     29  C   UNL     1       2.160   0.838  23.207  0.00  0.00    +0.264 C 
ATOM     30  O   UNL     1       1.737   0.252  22.808  0.00  0.00    -0.268 OA
BRANCH  29  31
ATOM     31  C   UNL     1       2.974   0.906  23.096  0.00  0.00    +0.051 C 
ATOM     32  C   UNL     1       3.342   0.503  22.477  0.00  0.00    -0.039 C 
ATOM     33  C   UNL     1       4.156   0.571  22.367  0.00  0.00    +0.027 C 
ATOM     34  C   UNL     1       2.895   0.032  21.968  0.00  0.00    +0.027 C 
ENDBRANCH  29  31
ENDBRANCH  27  28
ENDBRANCH  26  27
ENDBRANCH  25  26
ENDBRANCH  24  25
ENDBRANCH  23  24
ENDBRANCH  12  21
TORSDOF 12
ENDMDL
MODEL 7
REMARK VINA RESULT:      -8.3      2.739      6.187
REMARK  Name = 
REMARK  12 active torsions:
REMARK  status: ('A' for Active; 'I' for Inactive)
REMARK    1  A    between atoms: O_2  and  C_3
REMARK    2  A    between atoms: C_5  and  N_6
REMARK    3  A    between atoms: N_9  and  C_10
REMARK    4  A    between atoms: C_12  and  C_21
REMARK    5  A    between atoms: C_15  and  C_17
REMARK    6  A    between atoms: N_23  and  C_24
REMARK    7  A    between atoms: C_24  and  C_25
REMARK    8  A    between atoms: C_24  and  C_35
REMARK    9  A    between atoms: C_25  and  C_26
REMARK   10  A    between atoms: C_26  and  C_27
REMARK   11  A    between atoms: C_27  and  N_28
REMARK   12  A    between atoms: C_29  and  C_31
REMARK                            x       y       z     vdW  Elec       q    Type
REMARK                         _______ _______ _______ _____ _____    ______ ____
ROOT
ATOM     10  C   UNL     1      -3.528   1.666  24.931  0.00  0.00    +0.119 C 
ATOM     11  C   UNL     1      -2.713   1.565  24.843  0.00  0.00    +0.053 C 
ATOM     12  C   UNL     1      -2.359   2.308  24.874  0.00  0.00    +0.156 C 
ATOM     13  N   UNL     1      -2.954   2.870  24.981  0.00  0.00    -0.268 N 
ATOM     14  C   UNL     1      -3.676   2.473  25.015  0.00  0.00    +0.116 C 
ATOM     15  C   UNL     1      -2.845   3.686  25.042  0.00  0.00    +0.249 C 
ATOM     16  O   UNL     1      -3.496   4.182  25.148  0.00  0.00    -0.270 OA
ENDROOT
BRANCH  10   9
ATOM      6  N   UNL     1      -4.450  -0.300  24.716  0.00  0.00    -0.161 NA
ATOM      7  C   UNL     1      -3.884   0.299  24.714  0.00  0.00    +0.343 C 
ATOM      8  O   UNL     1      -3.106   0.132  24.494  0.00  0.00    -0.249 OA
ATOM      9  N   UNL     1      -4.094   1.066  24.932  0.00  0.00    -0.187 NA
BRANCH   6   5
ATOM      3  C   UNL     1      -3.582  -2.302  24.793  0.00  0.00    +0.140 A 
ATOM      4  C   UNL     1      -3.792  -1.535  25.011  0.00  0.00    +0.054 A 
ATOM      5  C   UNL     1      -4.239  -1.067  24.498  0.00  0.00    +0.078 A 
ATOM     38  C   UNL     1      -4.475  -1.368  23.767  0.00  0.00    +0.017 A 
ATOM     39  C   UNL     1      -4.265  -2.135  23.549  0.00  0.00    +0.004 A 
ATOM     40  C   UNL     1      -3.818  -2.602  24.061  0.00  0.00    +0.037 A 
BRANCH   3   2
ATOM      1  C   UNL     1      -2.382  -3.022  25.082  0.00  0.00    +0.252 C 
ATOM      2  O   UNL     1      -3.136  -2.769  25.305  0.00  0.00    -0.471 OA
ENDBRANCH   3   2
ENDBRANCH   6   5
ENDBRANCH  10   9
BRANCH  15  17
ATOM     17  C   UNL     1      -2.086   4.006  24.997  0.00  0.00    +0.049 C 
ATOM     18  C   UNL     1      -1.970   4.813  25.121  0.00  0.00    -0.039 C 
ATOM     19  C   UNL     1      -2.614   5.300  25.291  0.00  0.00    +0.027 C 
ATOM     20  C   UNL     1      -1.211   5.132  25.076  0.00  0.00    +0.027 C 
ENDBRANCH  15  17
BRANCH  12  21
ATOM     21  C   UNL     1      -1.551   2.464  24.810  0.00  0.00    +0.260 C 
ATOM     22  O   UNL     1      -1.289   3.095  24.348  0.00  0.00    -0.272 OA
ATOM     23  N   UNL     1      -1.006   1.990  25.207  0.00  0.00    -0.196 NA
BRANCH  23  24
ATOM     24  C   UNL     1      -0.198   2.146  25.143  0.00  0.00    +0.174 C 
BRANCH  24  35
ATOM     35  C   UNL     1       0.223   1.875  24.488  0.00  0.00    +0.281 C 
ATOM     36  N   UNL     1       0.214   1.074  24.293  0.00  0.00    -0.086 NA
ATOM     37  O   UNL     1       0.654   2.406  24.025  0.00  0.00    -0.270 OA
ENDBRANCH  24  35
BRANCH  24  25
ATOM     25  C   UNL     1       0.188   2.572  25.734  0.00  0.00    +0.033 C 
BRANCH  25  26
ATOM     26  C   UNL     1       0.215   2.279  26.505  0.00  0.00    +0.026 C 
BRANCH  26  27
ATOM     27  C   UNL     1       0.700   2.638  27.066  0.00  0.00    +0.116 C 
BRANCH  27  28
ATOM     28  N   UNL     1       0.683   2.383  27.850  0.00  0.00    -0.202 NA
ATOM     29  C   UNL     1       1.302   2.576  28.361  0.00  0.00    +0.264 C 
ATOM     30  O   UNL     1       1.937   3.025  28.087  0.00  0.00    -0.268 OA
BRANCH  29  31
ATOM     31  C   UNL     1       1.285   2.320  29.145  0.00  0.00    +0.051 C 
ATOM     32  C   UNL     1       1.969   2.353  29.605  0.00  0.00    -0.039 C 
ATOM     33  C   UNL     1       1.952   2.097  30.389  0.00  0.00    +0.027 C 
ATOM     34  C   UNL     1       2.670   2.641  29.280  0.00  0.00    +0.027 C 
ENDBRANCH  29  31
ENDBRANCH  27  28
ENDBRANCH  26  27
ENDBRANCH  25  26
ENDBRANCH  24  25
ENDBRANCH  23  24
ENDBRANCH  12  21
TORSDOF 12
ENDMDL
MODEL 8
REMARK VINA RESULT:      -8.3      1.395      2.409
REMARK  Name = 
REMARK  12 active torsions:
REMARK  status: ('A' for Active; 'I' for Inactive)
REMARK    1  A    between atoms: O_2  and  C_3
REMARK    2  A    between atoms: C_5  and  N_6
REMARK    3  A    between atoms: N_9  and  C_10
REMARK    4  A    between atoms: C_12  and  C_21
REMARK    5  A    between atoms: C_15  and  C_17
REMARK    6  A    between atoms: N_23  and  C_24
REMARK    7  A    between atoms: C_24  and  C_25
REMARK    8  A    between atoms: C_24  and  C_35
REMARK    9  A    between atoms: C_25  and  C_26
REMARK   10  A    between atoms: C_26  and  C_27
REMARK   11  A    between atoms: C_27  and  N_28
REMARK   12  A    between atoms: C_29  and  C_31
REMARK                            x       y       z     vdW  Elec       q    Type
REMARK                         _______ _______ _______ _____ _____    ______ ____
ROOT
ATOM     10  C   UNL     1       0.278  -0.252  23.192  0.00  0.00    +0.119 C 
ATOM     11  C   UNL     1      -0.300   0.309  23.372  0.00  0.00    +0.053 C 
ATOM     12  C   UNL     1      -0.810  -0.019  23.930  0.00  0.00    +0.156 C 
ATOM     13  N   UNL     1      -0.548  -0.784  24.095  0.00  0.00    -0.268 N 
ATOM     14  C   UNL     1       0.124  -0.927  23.639  0.00  0.00    +0.116 C 
ATOM     15  C   UNL     1      -0.897  -1.313  24.624  0.00  0.00    +0.249 C 
ATOM     16  O   UNL     1      -0.572  -2.063  24.733  0.00  0.00    -0.270 OA
ENDROOT
BRANCH  10   9
ATOM      6  N   UNL     1       2.278   0.118  22.402  0.00  0.00    -0.161 NA
ATOM      7  C   UNL     1       1.656   0.021  22.935  0.00  0.00    +0.343 C 
ATOM      8  O   UNL     1       1.792   0.099  23.745  0.00  0.00    -0.249 OA
ATOM      9  N   UNL     1       0.899  -0.154  22.659  0.00  0.00    -0.187 NA
BRANCH   6   5
ATOM      3  C   UNL     1       4.278  -0.135  23.239  0.00  0.00    +0.140 A 
ATOM      4  C   UNL     1       3.521  -0.310  22.962  0.00  0.00    +0.054 A 
ATOM      5  C   UNL     1       3.035   0.293  22.678  0.00  0.00    +0.078 A 
ATOM     38  C   UNL     1       3.307   1.072  22.671  0.00  0.00    +0.017 A 
ATOM     39  C   UNL     1       4.064   1.247  22.947  0.00  0.00    +0.004 A 
ATOM     40  C   UNL     1       4.550   0.644  23.231  0.00  0.00    +0.037 A 
BRANCH   3   2
ATOM      1  C   UNL     1       5.383  -0.561  24.039  0.00  0.00    +0.252 C 
ATOM      2  O   UNL     1       4.764  -0.738  23.523  0.00  0.00    -0.471 OA
ENDBRANCH   3   2
ENDBRANCH   6   5
ENDBRANCH  10   9
BRANCH  15  17
ATOM     17  C   UNL     1      -1.572  -1.091  25.044  0.00  0.00    +0.049 C 
ATOM     18  C   UNL     1      -1.998  -1.656  25.469  0.00  0.00    -0.039 C 
ATOM     19  C   UNL     1      -1.749  -2.443  25.473  0.00  0.00    +0.027 C 
ATOM     20  C   UNL     1      -2.672  -1.434  25.888  0.00  0.00    +0.027 C 
ENDBRANCH  15  17
BRANCH  12  21
ATOM     21  C   UNL     1      -1.468   0.350  24.264  0.00  0.00    +0.260 C 
ATOM     22  O   UNL     1      -1.564   0.358  25.084  0.00  0.00    -0.272 OA
ATOM     23  N   UNL     1      -2.029   0.712  23.781  0.00  0.00    -0.196 NA
BRANCH  23  24
ATOM     24  C   UNL     1      -2.686   1.082  24.115  0.00  0.00    +0.174 C 
BRANCH  24  35
ATOM     35  C   UNL     1      -3.442   0.919  23.827  0.00  0.00    +0.281 C 
ATOM     36  N   UNL     1      -3.584   0.929  23.014  0.00  0.00    -0.086 NA
ATOM     37  O   UNL     1      -4.056   0.747  24.351  0.00  0.00    -0.270 OA
ENDBRANCH  24  35
BRANCH  24  25
ATOM     25  C   UNL     1      -2.588   1.614  24.737  0.00  0.00    +0.033 C 
BRANCH  25  26
ATOM     26  C   UNL     1      -2.802   2.406  24.642  0.00  0.00    +0.026 C 
BRANCH  26  27
ATOM     27  C   UNL     1      -2.590   2.962  25.212  0.00  0.00    +0.116 C 
BRANCH  27  28
ATOM     28  N   UNL     1      -2.461   3.747  24.994  0.00  0.00    -0.202 NA
ATOM     29  C   UNL     1      -2.009   4.241  25.476  0.00  0.00    +0.264 C 
ATOM     30  O   UNL     1      -1.685   3.949  26.176  0.00  0.00    -0.268 OA
BRANCH  29  31
ATOM     31  C   UNL     1      -1.881   5.026  25.258  0.00  0.00    +0.051 C 
ATOM     32  C   UNL     1      -1.144   5.260  24.970  0.00  0.00    -0.039 C 
ATOM     33  C   UNL     1      -1.016   6.044  24.753  0.00  0.00    +0.027 C 
ATOM     34  C   UNL     1      -0.535   4.707  24.900  0.00  0.00    +0.027 C 
ENDBRANCH  29  31
ENDBRANCH  27  28
ENDBRANCH  26  27
ENDBRANCH  25  26
ENDBRANCH  24  25
ENDBRANCH  23  24
ENDBRANCH  12  21
TORSDOF 12
ENDMDL
MODEL 9
REMARK VINA RESULT:      -7.7      1.229      6.939
REMARK  Name = 
REMARK  12 active torsions:
REMARK  status: ('A' for Active; 'I' for Inactive)
REMARK    1  A    between atoms: O_2  and  C_3
REMARK    2  A    between atoms: C_5  and  N_6
REMARK    3  A    between atoms: N_9  and  C_10
REMARK    4  A    between atoms: C_12  and  C_21
REMARK    5  A    between atoms: C_15  and  C_17
REMARK    6  A    between atoms: N_23  and  C_24
REMARK    7  A    between atoms: C_24  and  C_25
REMARK    8  A    between atoms: C_24  and  C_35
REMARK    9  A    between atoms: C_25  and  C_26
REMARK   10  A    between atoms: C_26  and  C_27
REMARK   11  A    between atoms: C_27  and  N_28
REMARK   12  A    between atoms: C_29  and  C_31
REMARK                            x       y       z     vdW  Elec       q    Type
REMARK                         _______ _______ _______ _____ _____    ______ ____
ROOT
ATOM     10  C   UNL     1      -3.191   0.470  24.214  0.00  0.00    +0.119 C 
ATOM     11  C   UNL     1      -2.496   0.904  24.311  0.00  0.00    +0.053 C 
ATOM     12  C   UNL     1      -1.887   0.375  24.481  0.00  0.00    +0.156 C 
ATOM     13  N   UNL     1      -2.205  -0.386  24.489  0.00  0.00    -0.268 N 
ATOM     14  C   UNL     1      -3.011  -0.327  24.324  0.00  0.00    +0.116 C 
ATOM     15  C   UNL     1      -1.789  -1.084  24.636  0.00  0.00    +0.249 C 
ATOM     16  O   UNL     1      -2.183  -1.809  24.626  0.00  0.00    -0.270 OA
ENDROOT
BRANCH  10   9
ATOM      6  N   UNL     1      -5.094   1.516  24.431  0.00  0.00    -0.161 NA
ATOM      7  C   UNL     1      -4.350   1.207  24.607  0.00  0.00    +0.343 C 
ATOM      8  O   UNL     1      -4.020   1.327  25.354  0.00  0.00    -0.249 OA
ATOM      9  N   UNL     1      -3.935   0.779  24.037  0.00  0.00    -0.187 NA
BRANCH   6   5
ATOM      3  C   UNL     1      -5.866   3.196  25.591  0.00  0.00    +0.140 A 
ATOM      4  C   UNL     1      -5.451   2.768  25.021  0.00  0.00    +0.054 A 
ATOM      5  C   UNL     1      -5.508   1.945  25.001  0.00  0.00    +0.078 A 
ATOM     38  C   UNL     1      -5.981   1.551  25.551  0.00  0.00    +0.017 A 
ATOM     39  C   UNL     1      -6.395   1.979  26.121  0.00  0.00    +0.004 A 
ATOM     40  C   UNL     1      -6.338   2.802  26.141  0.00  0.00    +0.037 A 
BRANCH   3   2
ATOM      1  C   UNL     1      -5.071   4.379  25.698  0.00  0.00    +0.252 C 
ATOM      2  O   UNL     1      -5.809   4.019  25.611  0.00  0.00    -0.471 OA
ENDBRANCH   3   2
ENDBRANCH   6   5
ENDBRANCH  10   9
BRANCH  15  17
ATOM     17  C   UNL     1      -0.980  -1.057  24.794  0.00  0.00    +0.049 C 
ATOM     18  C   UNL     1      -0.569  -1.752  24.964  0.00  0.00    -0.039 C 
ATOM     19  C   UNL     1      -0.968  -2.474  24.975  0.00  0.00    +0.027 C 
ATOM     20  C   UNL     1       0.240  -1.724  25.121  0.00  0.00    +0.027 C 
ENDBRANCH  15  17
BRANCH  12  21
ATOM     21  C   UNL     1      -1.097   0.572  24.619  0.00  0.00    +0.260 C 
ATOM     22  O   UNL     1      -0.672   0.181  25.208  0.00  0.00    -0.272 OA
ATOM     23  N   UNL     1      -0.733   1.159  24.169  0.00  0.00    -0.196 NA
BRANCH  23  24
ATOM     24  C   UNL     1       0.057   1.355  24.307  0.00  0.00    +0.174 C 
BRANCH  24  35
ATOM     35  C   UNL     1       0.242   2.012  24.770  0.00  0.00    +0.281 C 
ATOM     36  N   UNL     1       0.021   2.768  24.523  0.00  0.00    -0.086 NA
ATOM     37  O   UNL     1       0.650   1.914  25.481  0.00  0.00    -0.270 OA
ENDBRANCH  24  35
BRANCH  24  25
ATOM     25  C   UNL     1       0.659   0.896  23.982  0.00  0.00    +0.033 C 
BRANCH  25  26
ATOM     26  C   UNL     1       1.248   1.250  23.525  0.00  0.00    +0.026 C 
BRANCH  26  27
ATOM     27  C   UNL     1       1.825   0.786  23.162  0.00  0.00    +0.116 C 
BRANCH  27  28
ATOM     28  N   UNL     1       2.618   1.003  23.208  0.00  0.00    -0.202 NA
ATOM     29  C   UNL     1       3.195   0.541  22.841  0.00  0.00    +0.264 C 
ATOM     30  O   UNL     1       2.977  -0.139  22.428  0.00  0.00    -0.268 OA
BRANCH  29  31
ATOM     31  C   UNL     1       3.989   0.758  22.887  0.00  0.00    +0.051 C 
ATOM     32  C   UNL     1       4.543   0.235  23.203  0.00  0.00    -0.039 C 
ATOM     33  C   UNL     1       5.337   0.452  23.249  0.00  0.00    +0.027 C 
ATOM     34  C   UNL     1       4.303  -0.507  23.473  0.00  0.00    +0.027 C 
ENDBRANCH  29  31
ENDBRANCH  27  28
ENDBRANCH  26  27
ENDBRANCH  25  26
ENDBRANCH  24  25
ENDBRANCH  23  24
ENDBRANCH  12  21
TORSDOF 12
ENDMDL
MODEL 10
REMARK VINA RESULT:      -7.7      1.835      5.261
REMARK  Name = 
REMARK  12 active torsions:
REMARK  status: ('A' for Active; 'I' for Inactive)
REMARK    1  A    between atoms: O_2  and  C_3
REMARK    2  A    between atoms: C_5  and  N_6
REMARK    3  A    between atoms: N_9  and  C_10
REMARK    4  A    between atoms: C_12  and  C_21
REMARK    5  A    between atoms: C_15  and  C_17
REMARK    6  A    between atoms: N_23  and  C_24
REMARK    7  A    between atoms: C_24  and  C_25
REMARK    8  A    between atoms: C_24  and  C_35
REMARK    9  A    between atoms: C_25  and  C_26
REMARK   10  A    between atoms: C_26  and  C_27
REMARK   11  A    between atoms: C_27  and  N_28
REMARK   12  A    between atoms: C_29  and  C_31
REMARK                            x       y       z     vdW  Elec       q    Type
REMARK                         _______ _______ _______ _____ _____    ______ ____
ROOT
ATOM     10  C   UNL     1      -0.202   1.815  25.179  0.00  0.00    +0.119 C 
ATOM     11  C   UNL     1      -0.596   1.089  25.189  0.00  0.00    +0.053 C 
ATOM     12  C   UNL     1      -0.253   0.604  24.618  0.00  0.00    +0.156 C 
ATOM     13  N   UNL     1       0.354   1.028  24.254  0.00  0.00    -0.268 N 
ATOM     14  C   UNL     1       0.385   1.776  24.600  0.00  0.00    +0.116 C 
ATOM     15  C   UNL     1       0.843   0.753  23.649  0.00  0.00    +0.249 C 
ATOM     16  O   UNL     1       1.429   1.242  23.337  0.00  0.00    -0.270 OA
ENDROOT
BRANCH  10   9
ATOM      6  N   UNL     1      -1.165   3.606  25.969  0.00  0.00    -0.161 NA
ATOM      7  C   UNL     1      -1.002   2.957  25.486  0.00  0.00    +0.343 C 
ATOM      8  O   UNL     1      -1.475   2.802  24.828  0.00  0.00    -0.249 OA
ATOM      9  N   UNL     1      -0.365   2.463  25.661  0.00  0.00    -0.187 NA
BRANCH   6   5
ATOM      3  C   UNL     1      -3.198   4.395  25.874  0.00  0.00    +0.140 A 
ATOM      4  C   UNL     1      -2.562   3.901  26.049  0.00  0.00    +0.054 A 
ATOM      5  C   UNL     1      -1.802   4.100  25.794  0.00  0.00    +0.078 A 
ATOM     38  C   UNL     1      -1.680   4.794  25.364  0.00  0.00    +0.017 A 
ATOM     39  C   UNL     1      -2.317   5.288  25.190  0.00  0.00    +0.004 A 
ATOM     40  C   UNL     1      -3.075   5.089  25.444  0.00  0.00    +0.037 A 
BRANCH   3   2
ATOM      1  C   UNL     1      -4.598   4.273  25.614  0.00  0.00    +0.252 C 
ATOM      2  O   UNL     1      -3.957   4.197  26.129  0.00  0.00    -0.471 OA
ENDBRANCH   3   2
ENDBRANCH   6   5
ENDBRANCH  10   9
BRANCH  15  17
ATOM     17  C   UNL     1       0.746  -0.013  23.356  0.00  0.00    +0.049 C 
ATOM     18  C   UNL     1       1.252  -0.298  22.771  0.00  0.00    -0.039 C 
ATOM     19  C   UNL     1       1.856   0.183  22.478  0.00  0.00    +0.027 C 
ATOM     20  C   UNL     1       1.155  -1.063  22.478  0.00  0.00    +0.027 C 
ENDBRANCH  15  17
BRANCH  12  21
ATOM     21  C   UNL     1      -0.477  -0.171  24.441  0.00  0.00    +0.260 C 
ATOM     22  O   UNL     1      -0.462  -0.436  23.660  0.00  0.00    -0.272 OA
ATOM     23  N   UNL     1      -0.715  -0.680  25.045  0.00  0.00    -0.196 NA
BRANCH  23  24
ATOM     24  C   UNL     1      -0.939  -1.454  24.868  0.00  0.00    +0.174 C 
BRANCH  24  35
ATOM     35  C   UNL     1      -0.473  -2.086  25.122  0.00  0.00    +0.281 C 
ATOM     36  N   UNL     1      -0.503  -2.808  24.725  0.00  0.00    -0.086 NA
ATOM     37  O   UNL     1       0.024  -1.995  25.776  0.00  0.00    -0.270 OA
ENDBRANCH  24  35
BRANCH  24  25
ATOM     25  C   UNL     1      -1.627  -1.597  24.437  0.00  0.00    +0.033 C 
BRANCH  25  26
ATOM     26  C   UNL     1      -2.337  -1.747  24.830  0.00  0.00    +0.026 C 
BRANCH  26  27
ATOM     27  C   UNL     1      -3.055  -1.546  24.477  0.00  0.00    +0.116 C 
BRANCH  27  28
ATOM     28  N   UNL     1      -3.605  -1.094  24.892  0.00  0.00    -0.202 NA
ATOM     29  C   UNL     1      -4.147  -0.624  24.483  0.00  0.00    +0.264 C 
ATOM     30  O   UNL     1      -4.136  -0.607  23.658  0.00  0.00    -0.268 OA
BRANCH  29  31
ATOM     31  C   UNL     1      -4.697  -0.172  24.898  0.00  0.00    +0.051 C 
ATOM     32  C   UNL     1      -4.723   0.646  24.793  0.00  0.00    -0.039 C 
ATOM     33  C   UNL     1      -5.274   1.098  25.207  0.00  0.00    +0.027 C 
ATOM     34  C   UNL     1      -4.198   1.011  24.272  0.00  0.00    +0.027 C 
ENDBRANCH  29  31
ENDBRANCH  27  28
ENDBRANCH  26  27
ENDBRANCH  25  26
ENDBRANCH  24  25
ENDBRANCH  23  24
ENDBRANCH  12  21
TORSDOF 12
ENDMDL
