MODEL 1
REMARK VINA RESULT:      -9.3      0.000      0.000
REMARK  Name = 
REMARK  6 active torsions:
REMARK  status: ('A' for Active; 'I' for Inactive)
REMARK    1  A    between atoms: C_2  and  N_4
REMARK    2  A    between atoms: C_5  and  O_7
REMARK    3  A    between atoms: O_7  and  C_8
REMARK    4  A    between atoms: C_8  and  C_9
REMARK    5  A    between atoms: C_16  and  C_17
REMARK    6  A    between atoms: C_19  and  C_23
REMARK                            x       y       z     vdW  Elec       q    Type
REMARK                         _______ _______ _______ _____ _____    ______ ____
ROOT
ATOM      9  C   UNL     1      -3.902   0.503  24.018  0.00  0.00    +0.102 C 
ATOM     10  C   UNL     1      -3.619   1.090  23.593  0.00  0.00    +0.020 C 
ATOM     11  C   UNL     1      -3.393   1.813  23.878  0.00  0.00    +0.010 C 
ATOM     12  C   UNL     1      -3.093   2.351  23.226  0.00  0.00    +0.018 C 
ATOM     13  C   UNL     1      -3.337   1.799  23.478  0.00  0.00    +0.072 C 
ATOM     14  N   UNL     1      -3.671   1.243  24.301  0.00  0.00    -0.270 NA
ATOM     15  C   UNL     1      -3.666   1.601  25.141  0.00  0.00    +0.078 C 
ATOM     16  C   UNL     1      -3.392   2.151  24.688  0.00  0.00    +0.056 C 
ENDROOT
BRANCH  16  17
ATOM     17  C   UNL     1      -3.146   2.906  24.913  0.00  0.00    +0.058 A 
ATOM     18  C   UNL     1      -2.411   3.244  24.753  0.00  0.00    +0.036 A 
ATOM     19  C   UNL     1      -2.402   4.001  25.079  0.00  0.00    +0.108 A 
ATOM     20  N   UNL     1      -3.132   4.132  25.440  0.00  0.00    -0.169 NA
ATOM     21  N   UNL     1      -3.592   3.455  25.338  0.00  0.00    -0.253 N 
ATOM     22  C   UNL     1      -4.362   3.345  25.612  0.00  0.00    +0.153 C 
BRANCH  19  23
ATOM     23  C   UNL     1      -1.774   4.535  25.049  0.00  0.00    +0.049 A 
ATOM     24  C   UNL     1      -1.837   5.358  25.054  0.00  0.00    +0.009 A 
ATOM     25  C   UNL     1      -1.074   5.672  25.017  0.00  0.00    +0.008 A 
ATOM     26  C   UNL     1      -0.541   5.044  24.988  0.00  0.00    +0.035 A 
ATOM     27  S   UNL     1      -0.972   4.341  25.008  0.00  0.00    -0.085 S 
ENDBRANCH  19  23
ENDBRANCH  16  17
BRANCH   9   8
ATOM      8  C   UNL     1      -4.201  -0.260  24.113  0.00  0.00    +0.226 C 
BRANCH   8   7
ATOM      7  O   UNL     1      -3.829  -0.897  23.742  0.00  0.00    -0.432 OA
BRANCH   7   5
ATOM      4  N   UNL     1      -3.258  -2.077  24.311  0.00  0.00    -0.170 NA
ATOM      5  C   UNL     1      -3.919  -1.660  24.045  0.00  0.00    +0.421 C 
ATOM      6  O   UNL     1      -4.667  -2.004  24.082  0.00  0.00    -0.225 OA
BRANCH   4   2
ATOM      1  C   UNL     1      -3.490  -3.472  24.104  0.00  0.00    +0.024 C 
ATOM      2  C   UNL     1      -3.348  -2.840  24.614  0.00  0.00    +0.099 C 
ATOM      3  C   UNL     1      -3.295  -2.970  25.427  0.00  0.00    +0.024 C 
ENDBRANCH   4   2
ENDBRANCH   7   5
ENDBRANCH   8   7
ENDBRANCH   9   8
TORSDOF 6
ENDMDL
MODEL 2
REMARK VINA RESULT:      -9.0      2.299      2.526
REMARK  Name = 
REMARK  6 active torsions:
REMARK  status: ('A' for Active; 'I' for Inactive)
REMARK    1  A    between atoms: C_2  and  N_4
REMARK    2  A    between atoms: C_5  and  O_7
REMARK    3  A    between atoms: O_7  and  C_8
REMARK    4  A    between atoms: C_8  and  C_9
REMARK    5  A    between atoms: C_16  and  C_17
REMARK    6  A    between atoms: C_19  and  C_23
REMARK                            x       y       z     vdW  Elec       q    Type
REMARK                         _______ _______ _______ _____ _____    ______ ____
ROOT
ATOM      9  C   UNL     1      -0.733  -0.320  24.627  0.00  0.00    +0.102 C 
ATOM     10  C   UNL     1      -0.416   0.283  24.251  0.00  0.00    +0.020 C 
ATOM     11  C   UNL     1      -0.412   1.051  24.509  0.00  0.00    +0.010 C 
ATOM     12  C   UNL     1       0.004   1.596  23.931  0.00  0.00    +0.018 C 
ATOM     13  C   UNL     1      -0.223   1.025  24.153  0.00  0.00    +0.072 C 
ATOM     14  N   UNL     1      -0.725   0.465  24.883  0.00  0.00    -0.270 NA
ATOM     15  C   UNL     1      -1.057   0.865  25.633  0.00  0.00    +0.078 C 
ATOM     16  C   UNL     1      -0.734   1.429  25.233  0.00  0.00    +0.056 C 
ENDROOT
BRANCH  16  17
ATOM     17  C   UNL     1      -0.696   2.228  25.438  0.00  0.00    +0.058 A 
ATOM     18  C   UNL     1      -1.078   2.847  25.049  0.00  0.00    +0.036 A 
ATOM     19  C   UNL     1      -0.888   3.548  25.438  0.00  0.00    +0.108 A 
ATOM     20  N   UNL     1      -0.387   3.364  26.067  0.00  0.00    -0.169 NA
ATOM     21  N   UNL     1      -0.268   2.547  26.067  0.00  0.00    -0.253 N 
ATOM     22  C   UNL     1       0.196   2.123  26.602  0.00  0.00    +0.153 C 
BRANCH  19  23
ATOM     23  C   UNL     1      -1.151   4.303  25.234  0.00  0.00    +0.049 A 
ATOM     24  C   UNL     1      -0.698   4.894  24.877  0.00  0.00    +0.009 A 
ATOM     25  C   UNL     1      -1.180   5.556  24.774  0.00  0.00    +0.008 A 
ATOM     26  C   UNL     1      -1.930   5.374  25.067  0.00  0.00    +0.035 A 
ATOM     27  S   UNL     1      -1.912   4.600  25.351  0.00  0.00    -0.085 S 
ENDBRANCH  19  23
ENDBRANCH  16  17
BRANCH   9   8
ATOM      8  C   UNL     1      -0.926  -1.118  24.707  0.00  0.00    +0.226 C 
BRANCH   8   7
ATOM      7  O   UNL     1      -1.453  -1.469  24.178  0.00  0.00    -0.432 OA
BRANCH   7   5
ATOM      4  N   UNL     1      -2.787  -1.950  24.357  0.00  0.00    -0.170 NA
ATOM      5  C   UNL     1      -1.973  -2.054  24.442  0.00  0.00    +0.421 C 
ATOM      6  O   UNL     1      -1.679  -2.742  24.790  0.00  0.00    -0.225 OA
BRANCH   4   2
ATOM      1  C   UNL     1      -3.649  -3.056  24.082  0.00  0.00    +0.024 C 
ATOM      2  C   UNL     1      -3.307  -2.535  24.621  0.00  0.00    +0.099 C 
ATOM      3  C   UNL     1      -3.485  -2.597  25.425  0.00  0.00    +0.024 C 
ENDBRANCH   4   2
ENDBRANCH   7   5
ENDBRANCH   8   7
ENDBRANCH   9   8
TORSDOF 6
ENDMDL
MODEL 3
REMARK VINA RESULT:      -8.6      3.610      4.597
REMARK  Name = 
REMARK  6 active torsions:
REMARK  status: ('A' for Active; 'I' for Inactive)
REMARK    1  A    between atoms: C_2  and  N_4
REMARK    2  A    between atoms: C_5  and  O_7
REMARK    3  A    between atoms: O_7  and  C_8
REMARK    4  A    between atoms: C_8  and  C_9
REMARK    5  A    between atoms: C_16  and  C_17
REMARK    6  A    between atoms: C_19  and  C_23
REMARK                            x       y       z     vdW  Elec       q    Type
REMARK                         _______ _______ _______ _____ _____    ______ ____
ROOT
ATOM      9  C   UNL     1      -0.246   0.934  23.962  0.00  0.00    +0.102 C 
ATOM     10  C   UNL     1      -0.892   0.544  24.150  0.00  0.00    +0.020 C 
ATOM     11  C   UNL     1      -1.643   0.846  24.149  0.00  0.00    +0.010 C 
ATOM     12  C   UNL     1      -2.250   0.234  24.395  0.00  0.00    +0.018 C 
ATOM     13  C   UNL     1      -1.651   0.458  24.262  0.00  0.00    +0.072 C 
ATOM     14  N   UNL     1      -1.014   1.235  23.964  0.00  0.00    -0.270 NA
ATOM     15  C   UNL     1      -1.347   2.061  23.763  0.00  0.00    +0.078 C 
ATOM     16  C   UNL     1      -1.956   1.643  23.954  0.00  0.00    +0.056 C 
ENDROOT
BRANCH  16  17
ATOM     17  C   UNL     1      -2.744   1.888  23.974  0.00  0.00    +0.058 A 
ATOM     18  C   UNL     1      -3.234   1.892  24.637  0.00  0.00    +0.036 A 
ATOM     19  C   UNL     1      -3.972   2.179  24.407  0.00  0.00    +0.108 A 
ATOM     20  N   UNL     1      -3.938   2.352  23.601  0.00  0.00    -0.169 NA
ATOM     21  N   UNL     1      -3.179   2.173  23.333  0.00  0.00    -0.253 N 
ATOM     22  C   UNL     1      -2.903   2.261  22.561  0.00  0.00    +0.153 C 
BRANCH  19  23
ATOM     23  C   UNL     1      -4.629   2.276  24.896  0.00  0.00    +0.049 A 
ATOM     24  C   UNL     1      -5.260   1.749  24.970  0.00  0.00    +0.009 A 
ATOM     25  C   UNL     1      -5.792   2.064  25.517  0.00  0.00    +0.008 A 
ATOM     26  C   UNL     1      -5.489   2.784  25.781  0.00  0.00    +0.035 A 
ATOM     27  S   UNL     1      -4.771   2.916  25.398  0.00  0.00    -0.085 S 
ENDBRANCH  19  23
ENDBRANCH  16  17
BRANCH   9   8
ATOM      8  C   UNL     1       0.569   0.998  23.850  0.00  0.00    +0.226 C 
BRANCH   8   7
ATOM      7  O   UNL     1       0.952   0.499  23.317  0.00  0.00    -0.432 OA
BRANCH   7   5
ATOM      4  N   UNL     1       2.167   0.010  22.744  0.00  0.00    -0.170 NA
ATOM      5  C   UNL     1       1.764   0.576  23.190  0.00  0.00    +0.421 C 
ATOM      6  O   UNL     1       2.173   1.218  23.508  0.00  0.00    -0.225 OA
BRANCH   4   2
ATOM      1  C   UNL     1       3.256   0.534  21.981  0.00  0.00    +0.024 C 
ATOM      2  C   UNL     1       2.979   0.088  22.617  0.00  0.00    +0.099 C 
ATOM      3  C   UNL     1       3.514  -0.281  23.127  0.00  0.00    +0.024 C 
ENDBRANCH   4   2
ENDBRANCH   7   5
ENDBRANCH   8   7
ENDBRANCH   9   8
TORSDOF 6
ENDMDL
MODEL 4
REMARK VINA RESULT:      -8.5      3.975      5.098
REMARK  Name = 
REMARK  6 active torsions:
REMARK  status: ('A' for Active; 'I' for Inactive)
REMARK    1  A    between atoms: C_2  and  N_4
REMARK    2  A    between atoms: C_5  and  O_7
REMARK    3  A    between atoms: O_7  and  C_8
REMARK    4  A    between atoms: C_8  and  C_9
REMARK    5  A    between atoms: C_16  and  C_17
REMARK    6  A    between atoms: C_19  and  C_23
REMARK                            x       y       z     vdW  Elec       q    Type
REMARK                         _______ _______ _______ _____ _____    ______ ____
ROOT
ATOM      9  C   UNL     1       0.355   0.756  23.772  0.00  0.00    +0.102 C 
ATOM     10  C   UNL     1       0.010   1.211  24.300  0.00  0.00    +0.020 C 
ATOM     11  C   UNL     1      -0.768   1.171  24.522  0.00  0.00    +0.010 C 
ATOM     12  C   UNL     1      -0.970   1.783  25.146  0.00  0.00    +0.018 C 
ATOM     13  C   UNL     1      -0.581   1.465  24.727  0.00  0.00    +0.072 C 
ATOM     14  N   UNL     1      -0.437   0.721  24.002  0.00  0.00    -0.270 NA
ATOM     15  C   UNL     1      -1.126   0.183  23.741  0.00  0.00    +0.078 C 
ATOM     16  C   UNL     1      -1.426   0.650  24.265  0.00  0.00    +0.056 C 
ENDROOT
BRANCH  16  17
ATOM     17  C   UNL     1      -2.206   0.662  24.535  0.00  0.00    +0.058 A 
ATOM     18  C   UNL     1      -2.752   1.267  24.412  0.00  0.00    +0.036 A 
ATOM     19  C   UNL     1      -3.459   1.050  24.775  0.00  0.00    +0.108 A 
ATOM     20  N   UNL     1      -3.351   0.310  25.122  0.00  0.00    -0.169 NA
ATOM     21  N   UNL     1      -2.576   0.069  24.974  0.00  0.00    -0.253 N 
ATOM     22  C   UNL     1      -2.231  -0.639  25.220  0.00  0.00    +0.153 C 
BRANCH  19  23
ATOM     23  C   UNL     1      -4.154   1.495  24.789  0.00  0.00    +0.049 A 
ATOM     24  C   UNL     1      -4.219   2.299  24.617  0.00  0.00    +0.009 A 
ATOM     25  C   UNL     1      -5.011   2.515  24.699  0.00  0.00    +0.008 A 
ATOM     26  C   UNL     1      -5.436   1.844  24.923  0.00  0.00    +0.035 A 
ATOM     27  S   UNL     1      -4.907   1.213  24.978  0.00  0.00    -0.085 S 
ENDBRANCH  19  23
ENDBRANCH  16  17
BRANCH   9   8
ATOM      8  C   UNL     1       1.003   0.505  23.328  0.00  0.00    +0.226 C 
BRANCH   8   7
ATOM      7  O   UNL     1       1.714   0.923  23.364  0.00  0.00    -0.432 OA
BRANCH   7   5
ATOM      4  N   UNL     1       3.122   0.984  23.123  0.00  0.00    -0.170 NA
ATOM      5  C   UNL     1       2.393   0.613  23.010  0.00  0.00    +0.421 C 
ATOM      6  O   UNL     1       2.343  -0.067  22.546  0.00  0.00    -0.225 OA
BRANCH   4   2
ATOM      1  C   UNL     1       3.872   0.671  21.948  0.00  0.00    +0.024 C 
ATOM      2  C   UNL     1       3.801   0.674  22.769  0.00  0.00    +0.099 C 
ATOM      3  C   UNL     1       4.407   0.367  23.238  0.00  0.00    +0.024 C 
ENDBRANCH   4   2
ENDBRANCH   7   5
ENDBRANCH   8   7
ENDBRANCH   9   8
TORSDOF 6
ENDMDL
MODEL 5
REMARK VINA RESULT:      -8.4      2.292      5.708
REMARK  Name = 
REMARK  6 active torsions:
REMARK  status: ('A' for Active; 'I' for Inactive)
REMARK    1  A    between atoms: C_2  and  N_4
REMARK    2  A    between atoms: C_5  and  O_7
REMARK    3  A    between atoms: O_7  and  C_8
REMARK    4  A    between atoms: C_8  and  C_9
REMARK    5  A    between atoms: C_16  and  C_17
REMARK    6  A    between atoms: C_19  and  C_23
REMARK                            x       y       z     vdW  Elec       q    Type
REMARK                         _______ _______ _______ _____ _____    ______ ____
ROOT
ATOM      9  C   UNL     1      -3.755   2.575  24.648  0.00  0.00    +0.102 C 
ATOM     10  C   UNL     1      -4.223   1.999  24.884  0.00  0.00    +0.020 C 
ATOM     11  C   UNL     1      -4.029   1.213  24.907  0.00  0.00    +0.010 C 
ATOM     12  C   UNL     1      -4.708   0.711  25.209  0.00  0.00    +0.018 C 
ATOM     13  C   UNL     1      -4.409   1.265  25.037  0.00  0.00    +0.072 C 
ATOM     14  N   UNL     1      -3.565   1.772  24.675  0.00  0.00    -0.270 NA
ATOM     15  C   UNL     1      -2.805   1.317  24.456  0.00  0.00    +0.078 C 
ATOM     16  C   UNL     1      -3.295   0.782  24.694  0.00  0.00    +0.056 C 
ENDROOT
BRANCH  16  17
ATOM     17  C   UNL     1      -3.162  -0.031  24.742  0.00  0.00    +0.058 A 
ATOM     18  C   UNL     1      -3.632  -0.619  24.406  0.00  0.00    +0.036 A 
ATOM     19  C   UNL     1      -3.296  -1.350  24.590  0.00  0.00    +0.108 A 
ATOM     20  N   UNL     1      -2.619  -1.213  25.041  0.00  0.00    -0.169 NA
ATOM     21  N   UNL     1      -2.536  -0.397  25.135  0.00  0.00    -0.253 N 
ATOM     22  C   UNL     1      -1.932  -0.015  25.548  0.00  0.00    +0.153 C 
BRANCH  19  23
ATOM     23  C   UNL     1      -3.587  -2.088  24.365  0.00  0.00    +0.049 A 
ATOM     24  C   UNL     1      -4.172  -2.227  23.800  0.00  0.00    +0.009 A 
ATOM     25  C   UNL     1      -4.290  -3.043  23.750  0.00  0.00    +0.008 A 
ATOM     26  C   UNL     1      -3.777  -3.407  24.284  0.00  0.00    +0.035 A 
ATOM     27  S   UNL     1      -3.343  -2.818  24.664  0.00  0.00    -0.085 S 
ENDBRANCH  19  23
ENDBRANCH  16  17
BRANCH   9   8
ATOM      8  C   UNL     1      -3.583   3.366  24.494  0.00  0.00    +0.226 C 
BRANCH   8   7
ATOM      7  O   UNL     1      -3.220   3.830  25.072  0.00  0.00    -0.432 OA
BRANCH   7   5
ATOM      4  N   UNL     1      -1.973   4.483  25.317  0.00  0.00    -0.170 NA
ATOM      5  C   UNL     1      -2.651   4.388  24.856  0.00  0.00    +0.421 C 
ATOM      6  O   UNL     1      -2.760   4.849  24.181  0.00  0.00    -0.225 OA
BRANCH   4   2
ATOM      1  C   UNL     1      -0.657   4.794  24.853  0.00  0.00    +0.024 C 
ATOM      2  C   UNL     1      -1.404   5.041  25.101  0.00  0.00    +0.099 C 
ATOM      3  C   UNL     1      -1.582   5.846  25.133  0.00  0.00    +0.024 C 
ENDBRANCH   4   2
ENDBRANCH   7   5
ENDBRANCH   8   7
ENDBRANCH   9   8
TORSDOF 6
ENDMDL
MODEL 6
REMARK VINA RESULT:      -8.2      3.003      6.020
REMARK  Name = 
REMARK  6 active torsions:
REMARK  status: ('A' for Active; 'I' for Inactive)
REMARK    1  A    between atoms: C_2  and  N_4
REMARK    2  A    between atoms: C_5  and  O_7
REMARK    3  A    between atoms: O_7  and  C_8
REMARK    4  A    between atoms: C_8  and  C_9
REMARK    5  A    between atoms: C_16  and  C_17
REMARK    6  A    between atoms: C_19  and  C_23
REMARK                            x       y       z     vdW  Elec       q    Type
REMARK                         _______ _______ _______ _____ _____    ______ ____
ROOT
ATOM      9  C   UNL     1      -0.316   1.616  24.713  0.00  0.00    +0.102 C 
ATOM     10  C   UNL     1      -0.337   1.061  24.168  0.00  0.00    +0.020 C 
ATOM     11  C   UNL     1      -0.721   0.351  24.234  0.00  0.00    +0.010 C 
ATOM     12  C   UNL     1      -0.625  -0.150  23.496  0.00  0.00    +0.018 C 
ATOM     13  C   UNL     1      -0.540   0.377  23.873  0.00  0.00    +0.072 C 
ATOM     14  N   UNL     1      -0.704   0.890  24.772  0.00  0.00    -0.270 NA
ATOM     15  C   UNL     1      -1.201   0.517  25.440  0.00  0.00    +0.078 C 
ATOM     16  C   UNL     1      -1.198  -0.002  24.880  0.00  0.00    +0.056 C 
ENDROOT
BRANCH  16  17
ATOM     17  C   UNL     1      -1.566  -0.741  24.883  0.00  0.00    +0.058 A 
ATOM     18  C   UNL     1      -2.287  -0.924  24.526  0.00  0.00    +0.036 A 
ATOM     19  C   UNL     1      -2.444  -1.722  24.665  0.00  0.00    +0.108 A 
ATOM     20  N   UNL     1      -1.821  -2.032  25.108  0.00  0.00    -0.169 NA
ATOM     21  N   UNL     1      -1.278  -1.425  25.243  0.00  0.00    -0.253 N 
ATOM     22  C   UNL     1      -0.571  -1.490  25.663  0.00  0.00    +0.153 C 
BRANCH  19  23
ATOM     23  C   UNL     1      -3.108  -2.138  24.406  0.00  0.00    +0.049 A 
ATOM     24  C   UNL     1      -3.807  -1.805  24.119  0.00  0.00    +0.009 A 
ATOM     25  C   UNL     1      -4.321  -2.421  23.925  0.00  0.00    +0.008 A 
ATOM     26  C   UNL     1      -3.940  -3.134  24.093  0.00  0.00    +0.035 A 
ATOM     27  S   UNL     1      -3.191  -2.959  24.390  0.00  0.00    -0.085 S 
ENDBRANCH  19  23
ENDBRANCH  16  17
BRANCH   9   8
ATOM      8  C   UNL     1      -0.086   2.353  25.003  0.00  0.00    +0.226 C 
BRANCH   8   7
ATOM      7  O   UNL     1      -0.284   3.040  24.591  0.00  0.00    -0.432 OA
BRANCH   7   5
ATOM      4  N   UNL     1      -1.207   4.127  24.688  0.00  0.00    -0.170 NA
ATOM      5  C   UNL     1      -0.574   3.697  24.998  0.00  0.00    +0.421 C 
ATOM      6  O   UNL     1      -0.233   3.923  25.714  0.00  0.00    -0.225 OA
BRANCH   4   2
ATOM      1  C   UNL     1      -2.124   4.697  25.624  0.00  0.00    +0.024 C 
ATOM      2  C   UNL     1      -1.497   4.784  25.096  0.00  0.00    +0.099 C 
ATOM      3  C   UNL     1      -1.160   5.527  24.974  0.00  0.00    +0.024 C 
ENDBRANCH   4   2
ENDBRANCH   7   5
ENDBRANCH   8   7
ENDBRANCH   9   8
TORSDOF 6
ENDMDL
