MODEL 1
REMARK VINA RESULT:     -12.3      0.000      0.000
REMARK  Name = 
REMARK  4 active torsions:
REMARK  status: ('A' for Active; 'I' for Inactive)
REMARK    1  A    between atoms: O_2  and  C_3
REMARK    2  A    between atoms: C_6  and  C_9
REMARK    3  A    between atoms: N_19  and  C_20
REMARK    4  A    between atoms: C_20  and  C_21
REMARK                            x       y       z     vdW  Elec       q    Type
REMARK                         _______ _______ _______ _____ _____    ______ ____
ROOT
ATOM      9  C   UNL     1      -0.745   1.876  25.246  0.00  0.00    +0.249 C 
ATOM     10  O   UNL     1      -0.039   1.477  25.398  0.00  0.00    -0.270 OA
ATOM     11  N   UNL     1      -1.461   1.464  25.249  0.00  0.00    -0.272 N 
ATOM     12  C   UNL     1      -2.167   1.863  25.098  0.00  0.00    +0.115 C 
ATOM     13  C   UNL     1      -2.881   1.452  25.101  0.00  0.00    +0.117 C 
ATOM     14  N   UNL     1      -2.891   0.641  25.257  0.00  0.00    -0.254 N 
ATOM     15  C   UNL     1      -2.185   0.242  25.408  0.00  0.00    +0.174 C 
ATOM     16  C   UNL     1      -1.469   0.654  25.405  0.00  0.00    +0.123 C 
ATOM     17  C   UNL     1      -2.364  -0.551  25.543  0.00  0.00    +0.253 C 
ATOM     18  O   UNL     1      -1.821  -1.148  25.715  0.00  0.00    -0.273 OA
ATOM     19  N   UNL     1      -3.181  -0.643  25.474  0.00  0.00    -0.208 N 
ATOM     27  C   UNL     1      -3.506   0.094  25.297  0.00  0.00    +0.314 C 
ATOM     28  O   UNL     1      -4.307   0.255  25.181  0.00  0.00    -0.252 OA
ENDROOT
BRANCH   9   6
ATOM      3  C   UNL     1      -0.721   4.307  24.781  0.00  0.00    +0.139 A 
ATOM      4  C   UNL     1      -0.558   3.770  24.177  0.00  0.00    +0.037 A 
ATOM      5  C   UNL     1      -0.566   2.959  24.331  0.00  0.00    +0.008 A 
ATOM      6  C   UNL     1      -0.737   2.686  25.091  0.00  0.00    +0.054 A 
ATOM      7  C   UNL     1      -0.900   3.223  25.696  0.00  0.00    +0.008 A 
ATOM      8  C   UNL     1      -0.892   4.033  25.540  0.00  0.00    +0.037 A 
BRANCH   3   2
ATOM      1  C   UNL     1      -1.280   5.608  24.968  0.00  0.00    +0.252 C 
ATOM      2  O   UNL     1      -0.713   5.117  24.627  0.00  0.00    -0.471 OA
ENDBRANCH   3   2
ENDBRANCH   9   6
BRANCH  19  20
ATOM     20  C   UNL     1      -3.599  -1.349  25.565  0.00  0.00    +0.129 C 
BRANCH  20  21
ATOM     21  C   UNL     1      -3.712  -1.849  24.919  0.00  0.00    -0.002 A 
ATOM     22  C   UNL     1      -4.205  -1.618  24.300  0.00  0.00    -0.003 A 
ATOM     23  C   UNL     1      -4.317  -2.119  23.654  0.00  0.00    -0.000 A 
ATOM     24  C   UNL     1      -3.937  -2.850  23.627  0.00  0.00    -0.000 A 
ATOM     25  C   UNL     1      -3.443  -3.081  24.247  0.00  0.00    -0.000 A 
ATOM     26  C   UNL     1      -3.330  -2.581  24.893  0.00  0.00    -0.003 A 
ENDBRANCH  20  21
ENDBRANCH  19  20
TORSDOF 4
ENDMDL
MODEL 2
REMARK VINA RESULT:     -12.3      1.175      5.483
REMARK  Name = 
REMARK  4 active torsions:
REMARK  status: ('A' for Active; 'I' for Inactive)
REMARK    1  A    between atoms: O_2  and  C_3
REMARK    2  A    between atoms: C_6  and  C_9
REMARK    3  A    between atoms: N_19  and  C_20
REMARK    4  A    between atoms: C_20  and  C_21
REMARK                            x       y       z     vdW  Elec       q    Type
REMARK                         _______ _______ _______ _____ _____    ______ ____
ROOT
ATOM      9  C   UNL     1      -1.812  -0.690  25.640  0.00  0.00    +0.249 C 
ATOM     10  O   UNL     1      -1.466  -0.819  26.377  0.00  0.00    -0.270 OA
ATOM     11  N   UNL     1      -1.692   0.026  25.247  0.00  0.00    -0.272 N 
ATOM     12  C   UNL     1      -2.039   0.156  24.510  0.00  0.00    +0.115 C 
ATOM     13  C   UNL     1      -1.918   0.871  24.118  0.00  0.00    +0.117 C 
ATOM     14  N   UNL     1      -1.451   1.458  24.462  0.00  0.00    -0.254 N 
ATOM     15  C   UNL     1      -1.105   1.328  25.200  0.00  0.00    +0.174 C 
ATOM     16  C   UNL     1      -1.225   0.612  25.592  0.00  0.00    +0.123 C 
ATOM     17  C   UNL     1      -0.675   2.002  25.401  0.00  0.00    +0.253 C 
ATOM     18  O   UNL     1      -0.241   2.112  26.095  0.00  0.00    -0.273 OA
ATOM     19  N   UNL     1      -0.756   2.549  24.789  0.00  0.00    -0.208 N 
ATOM     27  C   UNL     1      -1.236   2.212  24.209  0.00  0.00    +0.314 C 
ATOM     28  O   UNL     1      -1.461   2.567  23.499  0.00  0.00    -0.252 OA
ENDROOT
BRANCH   9   6
ATOM      3  C   UNL     1      -3.212  -2.448  24.603  0.00  0.00    +0.139 A 
ATOM      4  C   UNL     1      -3.556  -1.888  25.101  0.00  0.00    +0.037 A 
ATOM      5  C   UNL     1      -3.090  -1.301  25.447  0.00  0.00    +0.008 A 
ATOM      6  C   UNL     1      -2.279  -1.275  25.295  0.00  0.00    +0.054 A 
ATOM      7  C   UNL     1      -1.935  -1.836  24.796  0.00  0.00    +0.008 A 
ATOM      8  C   UNL     1      -2.402  -2.422  24.450  0.00  0.00    +0.037 A 
BRANCH   3   2
ATOM      1  C   UNL     1      -4.309  -2.826  23.769  0.00  0.00    +0.252 C 
ATOM      2  O   UNL     1      -3.678  -3.034  24.257  0.00  0.00    -0.471 OA
ENDBRANCH   3   2
ENDBRANCH   9   6
BRANCH  19  20
ATOM     20  C   UNL     1      -0.417   3.301  24.762  0.00  0.00    +0.129 C 
BRANCH  20  21
ATOM     21  C   UNL     1      -0.869   3.965  24.948  0.00  0.00    -0.002 A 
ATOM     22  C   UNL     1      -1.487   3.905  25.491  0.00  0.00    -0.003 A 
ATOM     23  C   UNL     1      -1.939   4.570  25.677  0.00  0.00    -0.000 A 
ATOM     24  C   UNL     1      -1.773   5.294  25.320  0.00  0.00    -0.000 A 
ATOM     25  C   UNL     1      -1.155   5.354  24.777  0.00  0.00    -0.000 A 
ATOM     26  C   UNL     1      -0.703   4.690  24.590  0.00  0.00    -0.003 A 
ENDBRANCH  20  21
ENDBRANCH  19  20
TORSDOF 4
ENDMDL
MODEL 3
REMARK VINA RESULT:     -11.9      1.584      2.063
REMARK  Name = 
REMARK  4 active torsions:
REMARK  status: ('A' for Active; 'I' for Inactive)
REMARK    1  A    between atoms: O_2  and  C_3
REMARK    2  A    between atoms: C_6  and  C_9
REMARK    3  A    between atoms: N_19  and  C_20
REMARK    4  A    between atoms: C_20  and  C_21
REMARK                            x       y       z     vdW  Elec       q    Type
REMARK                         _______ _______ _______ _____ _____    ______ ____
ROOT
ATOM      9  C   UNL     1      -3.503   3.184  25.494  0.00  0.00    +0.249 C 
ATOM     10  O   UNL     1      -4.131   3.307  26.014  0.00  0.00    -0.270 OA
ATOM     11  N   UNL     1      -3.446   2.476  25.074  0.00  0.00    -0.272 N 
ATOM     12  C   UNL     1      -2.818   2.353  24.554  0.00  0.00    +0.115 C 
ATOM     13  C   UNL     1      -2.761   1.646  24.135  0.00  0.00    +0.117 C 
ATOM     14  N   UNL     1      -3.333   1.059  24.235  0.00  0.00    -0.254 N 
ATOM     15  C   UNL     1      -3.962   1.182  24.756  0.00  0.00    +0.174 C 
ATOM     16  C   UNL     1      -4.018   1.890  25.175  0.00  0.00    +0.123 C 
ATOM     17  C   UNL     1      -4.439   0.510  24.742  0.00  0.00    +0.253 C 
ATOM     18  O   UNL     1      -5.129   0.395  25.180  0.00  0.00    -0.273 OA
ATOM     19  N   UNL     1      -4.106  -0.029  24.213  0.00  0.00    -0.208 N 
ATOM     27  C   UNL     1      -3.423   0.312  23.900  0.00  0.00    +0.314 C 
ATOM     28  O   UNL     1      -2.917  -0.036  23.349  0.00  0.00    -0.252 OA
ENDROOT
BRANCH   9   6
ATOM      3  C   UNL     1      -1.785   4.940  25.191  0.00  0.00    +0.139 A 
ATOM      4  C   UNL     1      -2.473   4.954  24.737  0.00  0.00    +0.037 A 
ATOM      5  C   UNL     1      -3.046   4.369  24.837  0.00  0.00    +0.008 A 
ATOM      6  C   UNL     1      -2.930   3.770  25.393  0.00  0.00    +0.054 A 
ATOM      7  C   UNL     1      -2.241   3.756  25.848  0.00  0.00    +0.008 A 
ATOM      8  C   UNL     1      -1.669   4.341  25.746  0.00  0.00    +0.037 A 
BRANCH   3   2
ATOM      1  C   UNL     1      -0.537   5.370  24.642  0.00  0.00    +0.252 C 
ATOM      2  O   UNL     1      -1.211   5.525  25.091  0.00  0.00    -0.471 OA
ENDBRANCH   3   2
ENDBRANCH   9   6
BRANCH  19  20
ATOM     20  C   UNL     1      -4.404  -0.776  24.029  0.00  0.00    +0.129 C 
BRANCH  20  21
ATOM     21  C   UNL     1      -4.062  -1.449  24.360  0.00  0.00    -0.002 A 
ATOM     22  C   UNL     1      -3.824  -1.446  25.150  0.00  0.00    -0.003 A 
ATOM     23  C   UNL     1      -3.483  -2.121  25.481  0.00  0.00    -0.000 A 
ATOM     24  C   UNL     1      -3.379  -2.798  25.022  0.00  0.00    -0.000 A 
ATOM     25  C   UNL     1      -3.617  -2.801  24.232  0.00  0.00    -0.000 A 
ATOM     26  C   UNL     1      -3.958  -2.128  23.901  0.00  0.00    -0.003 A 
ENDBRANCH  20  21
ENDBRANCH  19  20
TORSDOF 4
ENDMDL
MODEL 4
REMARK VINA RESULT:     -10.6      2.913      4.029
REMARK  Name = 
REMARK  4 active torsions:
REMARK  status: ('A' for Active; 'I' for Inactive)
REMARK    1  A    between atoms: O_2  and  C_3
REMARK    2  A    between atoms: C_6  and  C_9
REMARK    3  A    between atoms: N_19  and  C_20
REMARK    4  A    between atoms: C_20  and  C_21
REMARK                            x       y       z     vdW  Elec       q    Type
REMARK                         _______ _______ _______ _____ _____    ______ ____
ROOT
ATOM      9  C   UNL     1      -0.382   1.331  24.662  0.00  0.00    +0.249 C 
ATOM     10  O   UNL     1      -0.156   1.435  25.449  0.00  0.00    -0.270 OA
ATOM     11  N   UNL     1      -1.104   1.632  24.397  0.00  0.00    -0.272 N 
ATOM     12  C   UNL     1      -1.330   1.528  23.611  0.00  0.00    +0.115 C 
ATOM     13  C   UNL     1      -2.051   1.829  23.346  0.00  0.00    +0.117 C 
ATOM     14  N   UNL     1      -2.545   2.235  23.867  0.00  0.00    -0.254 N 
ATOM     15  C   UNL     1      -2.319   2.339  24.653  0.00  0.00    +0.174 C 
ATOM     16  C   UNL     1      -1.597   2.038  24.919  0.00  0.00    +0.123 C 
ATOM     17  C   UNL     1      -2.916   2.759  25.037  0.00  0.00    +0.253 C 
ATOM     18  O   UNL     1      -2.917   2.985  25.831  0.00  0.00    -0.273 OA
ATOM     19  N   UNL     1      -3.511   2.915  24.488  0.00  0.00    -0.208 N 
ATOM     27  C   UNL     1      -3.282   2.590  23.765  0.00  0.00    +0.314 C 
ATOM     28  O   UNL     1      -3.714   2.617  23.063  0.00  0.00    -0.252 OA
ENDROOT
BRANCH   9   6
ATOM      3  C   UNL     1       1.100   0.115  23.097  0.00  0.00    +0.139 A 
ATOM      4  C   UNL     1       0.455  -0.270  23.436  0.00  0.00    +0.037 A 
ATOM      5  C   UNL     1      -0.040   0.135  23.958  0.00  0.00    +0.008 A 
ATOM      6  C   UNL     1       0.111   0.925  24.141  0.00  0.00    +0.054 A 
ATOM      7  C   UNL     1       0.758   1.311  23.801  0.00  0.00    +0.008 A 
ATOM      8  C   UNL     1       1.252   0.905  23.280  0.00  0.00    +0.037 A 
BRANCH   3   2
ATOM      1  C   UNL     1       2.318   0.038  22.355  0.00  0.00    +0.252 C 
ATOM      2  O   UNL     1       1.595  -0.289  22.575  0.00  0.00    -0.471 OA
ENDBRANCH   3   2
ENDBRANCH   9   6
BRANCH  19  20
ATOM     20  C   UNL     1      -4.213   3.323  24.636  0.00  0.00    +0.129 C 
BRANCH  20  21
ATOM     21  C   UNL     1      -4.853   2.932  24.979  0.00  0.00    -0.002 A 
ATOM     22  C   UNL     1      -5.251   2.344  24.560  0.00  0.00    -0.003 A 
ATOM     23  C   UNL     1      -5.892   1.954  24.904  0.00  0.00    -0.000 A 
ATOM     24  C   UNL     1      -6.134   2.152  25.667  0.00  0.00    -0.000 A 
ATOM     25  C   UNL     1      -5.736   2.741  26.086  0.00  0.00    -0.000 A 
ATOM     26  C   UNL     1      -5.096   3.131  25.743  0.00  0.00    -0.003 A 
ENDBRANCH  20  21
ENDBRANCH  19  20
TORSDOF 4
ENDMDL
MODEL 5
REMARK VINA RESULT:      -8.6      2.290      4.064
REMARK  Name = 
REMARK  4 active torsions:
REMARK  status: ('A' for Active; 'I' for Inactive)
REMARK    1  A    between atoms: O_2  and  C_3
REMARK    2  A    between atoms: C_6  and  C_9
REMARK    3  A    between atoms: N_19  and  C_20
REMARK    4  A    between atoms: C_20  and  C_21
REMARK                            x       y       z     vdW  Elec       q    Type
REMARK                         _______ _______ _______ _____ _____    ______ ____
ROOT
ATOM      9  C   UNL     1      -4.147   0.797  24.589  0.00  0.00    +0.249 C 
ATOM     10  O   UNL     1      -4.499   0.117  24.281  0.00  0.00    -0.270 OA
ATOM     11  N   UNL     1      -3.326   0.834  24.676  0.00  0.00    -0.272 N 
ATOM     12  C   UNL     1      -2.974   1.514  24.983  0.00  0.00    +0.115 C 
ATOM     13  C   UNL     1      -2.155   1.550  25.070  0.00  0.00    +0.117 C 
ATOM     14  N   UNL     1      -1.687   0.907  24.850  0.00  0.00    -0.254 N 
ATOM     15  C   UNL     1      -2.039   0.227  24.542  0.00  0.00    +0.174 C 
ATOM     16  C   UNL     1      -2.860   0.190  24.455  0.00  0.00    +0.123 C 
ATOM     17  C   UNL     1      -1.442  -0.316  24.374  0.00  0.00    +0.253 C 
ATOM     18  O   UNL     1      -1.548  -1.071  24.058  0.00  0.00    -0.273 OA
ATOM     19  N   UNL     1      -0.721   0.028  24.577  0.00  0.00    -0.208 N 
ATOM     27  C   UNL     1      -0.873   0.783  24.871  0.00  0.00    +0.314 C 
ATOM     28  O   UNL     1      -0.308   1.322  25.140  0.00  0.00    -0.252 OA
ENDROOT
BRANCH   9   6
ATOM      3  C   UNL     1      -5.547   2.727  25.251  0.00  0.00    +0.139 A 
ATOM      4  C   UNL     1      -5.115   2.753  24.550  0.00  0.00    +0.037 A 
ATOM      5  C   UNL     1      -4.648   2.110  24.328  0.00  0.00    +0.008 A 
ATOM      6  C   UNL     1      -4.613   1.440  24.809  0.00  0.00    +0.054 A 
ATOM      7  C   UNL     1      -5.046   1.414  25.512  0.00  0.00    +0.008 A 
ATOM      8  C   UNL     1      -5.513   2.057  25.732  0.00  0.00    +0.037 A 
BRANCH   3   2
ATOM      1  C   UNL     1      -5.662   4.089  25.666  0.00  0.00    +0.252 C 
ATOM      2  O   UNL     1      -6.015   3.370  25.473  0.00  0.00    -0.471 OA
ENDBRANCH   3   2
ENDBRANCH   9   6
BRANCH  19  20
ATOM     20  C   UNL     1       0.022  -0.322  24.500  0.00  0.00    +0.129 C 
BRANCH  20  21
ATOM     21  C   UNL     1       0.474  -0.188  23.823  0.00  0.00    -0.002 A 
ATOM     22  C   UNL     1       0.390  -0.681  23.167  0.00  0.00    -0.003 A 
ATOM     23  C   UNL     1       0.842  -0.546  22.490  0.00  0.00    -0.000 A 
ATOM     24  C   UNL     1       1.377   0.080  22.469  0.00  0.00    -0.000 A 
ATOM     25  C   UNL     1       1.461   0.573  23.125  0.00  0.00    -0.000 A 
ATOM     26  C   UNL     1       1.010   0.439  23.802  0.00  0.00    -0.003 A 
ENDBRANCH  20  21
ENDBRANCH  19  20
TORSDOF 4
ENDMDL
