REMARK  Name = 
REMARK  7 active torsions:
REMARK  status: ('A' for Active; 'I' for Inactive)
REMARK    1  A    between atoms: C_2  and  N_4
REMARK    2  A    between atoms: N_7  and  C_8
REMARK    3  A    between atoms: C_8  and  C_9
REMARK    4  A    between atoms: C_13  and  C_14
REMARK    5  A    between atoms: C_14  and  C_15
REMARK    6  A    between atoms: N_17  and  C_18
REMARK    7  A    between atoms: C_24  and  C_25
REMARK                            x       y       z     vdW  Elec       q    Type
REMARK                         _______ _______ _______ _____ _____    ______ ____
ROOT
ATOM      9  C   UNL     1       5.716  -4.125   0.000  0.00  0.00    +0.043 C 
ATOM     10  C   UNL     1       6.430  -3.712   0.000  0.00  0.00    -0.033 C 
ATOM     11  C   UNL     1       7.145  -4.125   0.000  0.00  0.00    -0.048 C 
ATOM     12  C   UNL     1       7.859  -3.712   0.000  0.00  0.00    +0.026 C 
ATOM     13  C   UNL     1       7.145  -4.950   0.000  0.00  0.00    +0.027 C 
ATOM     23  C   UNL     1       6.430  -5.362   0.000  0.00  0.00    +0.005 C 
ATOM     24  C   UNL     1       5.716  -4.950   0.000  0.00  0.00    +0.006 C 
ENDROOT
BRANCH  24  25
ATOM     25  C   UNL     1       5.001  -5.362   0.000  0.00  0.00    +0.000 C 
ATOM     26  C   UNL     1       4.287  -4.950   0.000  0.00  0.00    +0.000 C 
ATOM     27  C   UNL     1       5.001  -6.188   0.000  0.00  0.00    +0.000 C 
ENDBRANCH  24  25
BRANCH   9   8
ATOM      8  C   UNL     1       5.001  -3.712   0.000  0.00  0.00    +0.121 C 
BRANCH   8   7
ATOM      4  N   UNL     1       2.858  -4.125   0.000  0.00  0.00    -0.189 NA
ATOM      5  C   UNL     1       3.572  -3.712   0.000  0.00  0.00    +0.339 C 
ATOM      6  O   UNL     1       3.572  -2.888   0.000  0.00  0.00    -0.249 OA
ATOM      7  N   UNL     1       4.287  -4.125   0.000  0.00  0.00    -0.187 NA
BRANCH   4   2
ATOM      1  C   UNL     1       1.429  -4.125   0.000  0.00  0.00    +0.023 C 
ATOM      2  C   UNL     1       2.143  -3.712   0.000  0.00  0.00    +0.097 C 
ATOM      3  C   UNL     1       2.143  -2.888   0.000  0.00  0.00    +0.023 C 
ENDBRANCH   4   2
ENDBRANCH   8   7
ENDBRANCH   9   8
BRANCH  13  14
ATOM     14  C   UNL     1       7.859  -5.362   0.000  0.00  0.00    +0.091 C 
BRANCH  14  15
ATOM     15  C   UNL     1       7.859  -6.188   0.000  0.00  0.00    +0.242 C 
ATOM     16  O   UNL     1       7.145  -6.600   0.000  0.00  0.00    -0.273 OA
ATOM     17  N   UNL     1       8.574  -6.600   0.000  0.00  0.00    -0.207 NA
BRANCH  17  18
ATOM     18  C   UNL     1       8.574  -7.425   0.000  0.00  0.00    +0.095 C 
ATOM     19  C   UNL     1       9.241  -7.910   0.000  0.00  0.00    +0.022 C 
ATOM     20  C   UNL     1       8.986  -8.694   0.000  0.00  0.00    +0.002 C 
ATOM     21  C   UNL     1       8.161  -8.694   0.000  0.00  0.00    +0.002 C 
ATOM     22  C   UNL     1       7.906  -7.910   0.000  0.00  0.00    +0.022 C 
ENDBRANCH  17  18
ENDBRANCH  14  15
ENDBRANCH  13  14
TORSDOF 7
