MODEL 1
REMARK VINA RESULT:     -11.3      0.000      0.000
REMARK  Name = 
REMARK  5 active torsions:
REMARK  status: ('A' for Active; 'I' for Inactive)
REMARK    1  A    between atoms: C_2  and  C_5
REMARK    2  A    between atoms: C_9  and  N_10
REMARK    3  A    between atoms: C_11  and  O_13
REMARK    4  A    between atoms: O_13  and  C_14
REMARK    5  A    between atoms: C_18  and  N_22
REMARK                            x       y       z     vdW  Elec       q    Type
REMARK                         _______ _______ _______ _____ _____    ______ ____
ROOT
ATOM     14  C   UNL     1      -0.479   0.075  24.622  0.00  0.00    +0.229 C 
ATOM     15  C   UNL     1      -0.434   0.411  23.870  0.00  0.00    +0.188 C 
ATOM     16  O   UNL     1      -0.460   1.231  23.955  0.00  0.00    -0.348 OA
ATOM     17  C   UNL     1      -0.521   1.402  24.759  0.00  0.00    +0.168 C 
ATOM     18  C   UNL     1      -0.575   2.014  25.310  0.00  0.00    +0.156 C 
ATOM     19  C   UNL     1      -0.620   1.678  26.062  0.00  0.00    +0.166 C 
ATOM     20  O   UNL     1      -0.594   0.858  25.976  0.00  0.00    -0.348 OA
ATOM     21  C   UNL     1      -0.533   0.687  25.171  0.00  0.00    +0.186 C 
ENDROOT
BRANCH  18  22
ATOM     22  N   UNL     1      -0.583   2.821  25.139  0.00  0.00    -0.185 NA
ATOM     23  C   UNL     1      -1.207   3.292  25.400  0.00  0.00    +0.323 C 
ATOM     24  O   UNL     1      -1.824   2.958  25.834  0.00  0.00    -0.251 OA
ATOM     25  N   UNL     1      -1.214   4.100  25.229  0.00  0.00    -0.258 N 
ATOM     26  C   UNL     1      -1.839   4.571  25.490  0.00  0.00    +0.127 C 
ATOM     27  C   UNL     1      -1.847   5.378  25.319  0.00  0.00    +0.164 C 
ATOM     28  O   UNL     1      -1.229   5.713  24.885  0.00  0.00    -0.350 OA
ATOM     29  C   UNL     1      -0.606   5.242  24.624  0.00  0.00    +0.164 C 
ATOM     30  C   UNL     1      -0.597   4.434  24.795  0.00  0.00    +0.127 C 
ENDBRANCH  18  22
BRANCH  14  13
ATOM     13  O   UNL     1      -0.472  -0.732  24.793  0.00  0.00    -0.432 OA
BRANCH  13  11
ATOM     10  N   UNL     1      -1.681  -1.450  25.046  0.00  0.00    -0.142 NA
ATOM     11  C   UNL     1      -1.084  -1.217  24.527  0.00  0.00    +0.425 C 
ATOM     12  O   UNL     1      -1.099  -1.468  23.741  0.00  0.00    -0.224 OA
BRANCH  10   9
ATOM      5  C   UNL     1      -3.631  -2.089  24.300  0.00  0.00    +0.073 A 
ATOM      6  C   UNL     1      -3.518  -2.904  24.247  0.00  0.00    +0.004 A 
ATOM      7  C   UNL     1      -2.793  -3.235  24.461  0.00  0.00    +0.001 A 
ATOM      8  C   UNL     1      -2.181  -2.750  24.727  0.00  0.00    +0.017 A 
ATOM      9  C   UNL     1      -2.294  -1.934  24.780  0.00  0.00    +0.077 A 
ATOM     31  C   UNL     1      -3.018  -1.604  24.566  0.00  0.00    +0.021 A 
BRANCH   5   2
ATOM      1  F   UNL     1      -5.081  -1.428  23.873  0.00  0.00    -0.166 F 
ATOM      2  C   UNL     1      -4.356  -1.758  24.087  0.00  0.00    +0.419 C 
ATOM      3  F   UNL     1      -4.314  -2.138  23.356  0.00  0.00    -0.166 F 
ATOM      4  F   UNL     1      -4.399  -1.378  24.818  0.00  0.00    -0.166 F 
ENDBRANCH   5   2
ENDBRANCH  10   9
ENDBRANCH  13  11
ENDBRANCH  14  13
TORSDOF 5
ENDMDL
MODEL 2
REMARK VINA RESULT:     -10.7      2.160      2.768
REMARK  Name = 
REMARK  5 active torsions:
REMARK  status: ('A' for Active; 'I' for Inactive)
REMARK    1  A    between atoms: C_2  and  C_5
REMARK    2  A    between atoms: C_9  and  N_10
REMARK    3  A    between atoms: C_11  and  O_13
REMARK    4  A    between atoms: O_13  and  C_14
REMARK    5  A    between atoms: C_18  and  N_22
REMARK                            x       y       z     vdW  Elec       q    Type
REMARK                         _______ _______ _______ _____ _____    ______ ____
ROOT
ATOM     14  C   UNL     1      -4.336   0.959  24.494  0.00  0.00    +0.229 C 
ATOM     15  C   UNL     1      -4.446   1.277  25.247  0.00  0.00    +0.188 C 
ATOM     16  O   UNL     1      -4.017   1.980  25.292  0.00  0.00    -0.348 OA
ATOM     17  C   UNL     1      -3.642   2.097  24.568  0.00  0.00    +0.168 C 
ATOM     18  C   UNL     1      -3.145   2.604  24.146  0.00  0.00    +0.156 C 
ATOM     19  C   UNL     1      -3.035   2.286  23.393  0.00  0.00    +0.166 C 
ATOM     20  O   UNL     1      -3.464   1.583  23.349  0.00  0.00    -0.348 OA
ATOM     21  C   UNL     1      -3.839   1.466  24.074  0.00  0.00    +0.186 C 
ENDROOT
BRANCH  18  22
ATOM     22  N   UNL     1      -2.816   3.306  24.430  0.00  0.00    -0.185 NA
ATOM     23  C   UNL     1      -2.001   3.424  24.392  0.00  0.00    +0.323 C 
ATOM     24  O   UNL     1      -1.514   2.841  24.070  0.00  0.00    -0.251 OA
ATOM     25  N   UNL     1      -1.672   4.126  24.675  0.00  0.00    -0.258 N 
ATOM     26  C   UNL     1      -0.856   4.244  24.637  0.00  0.00    +0.127 C 
ATOM     27  C   UNL     1      -0.527   4.945  24.920  0.00  0.00    +0.164 C 
ATOM     28  O   UNL     1      -1.014   5.529  25.241  0.00  0.00    -0.350 OA
ATOM     29  C   UNL     1      -1.829   5.410  25.279  0.00  0.00    +0.164 C 
ATOM     30  C   UNL     1      -2.159   4.709  24.996  0.00  0.00    +0.127 C 
ENDBRANCH  18  22
BRANCH  14  13
ATOM     13  O   UNL     1      -4.665   0.258  24.211  0.00  0.00    -0.432 OA
BRANCH  13  11
ATOM     10  N   UNL     1      -4.025  -0.976  23.877  0.00  0.00    -0.142 NA
ATOM     11  C   UNL     1      -4.349  -0.469  24.441  0.00  0.00    +0.425 C 
ATOM     12  O   UNL     1      -4.357  -0.688  25.237  0.00  0.00    -0.224 OA
BRANCH  10   9
ATOM      5  C   UNL     1      -2.588  -2.496  24.502  0.00  0.00    +0.073 A 
ATOM      6  C   UNL     1      -3.078  -3.156  24.568  0.00  0.00    +0.004 A 
ATOM      7  C   UNL     1      -3.884  -3.089  24.404  0.00  0.00    +0.001 A 
ATOM      8  C   UNL     1      -4.199  -2.363  24.174  0.00  0.00    +0.017 A 
ATOM      9  C   UNL     1      -3.709  -1.702  24.107  0.00  0.00    +0.077 A 
ATOM     31  C   UNL     1      -2.904  -1.769  24.271  0.00  0.00    +0.021 A 
BRANCH   5   2
ATOM      1  F   UNL     1      -0.976  -2.629  24.830  0.00  0.00    -0.166 F 
ATOM      2  C   UNL     1      -1.782  -2.562  24.666  0.00  0.00    +0.419 C 
ATOM      3  F   UNL     1      -1.916  -2.288  25.432  0.00  0.00    -0.166 F 
ATOM      4  F   UNL     1      -1.648  -2.836  23.899  0.00  0.00    -0.166 F 
ENDBRANCH   5   2
ENDBRANCH  10   9
ENDBRANCH  13  11
ENDBRANCH  14  13
TORSDOF 5
ENDMDL
MODEL 3
REMARK VINA RESULT:     -10.7      3.141      6.376
REMARK  Name = 
REMARK  5 active torsions:
REMARK  status: ('A' for Active; 'I' for Inactive)
REMARK    1  A    between atoms: C_2  and  C_5
REMARK    2  A    between atoms: C_9  and  N_10
REMARK    3  A    between atoms: C_11  and  O_13
REMARK    4  A    between atoms: O_13  and  C_14
REMARK    5  A    between atoms: C_18  and  N_22
REMARK                            x       y       z     vdW  Elec       q    Type
REMARK                         _______ _______ _______ _____ _____    ______ ____
ROOT
ATOM     14  C   UNL     1      -4.138   2.321  24.365  0.00  0.00    +0.229 C 
ATOM     15  C   UNL     1      -3.806   2.079  23.650  0.00  0.00    +0.188 C 
ATOM     16  O   UNL     1      -3.840   1.255  23.621  0.00  0.00    -0.348 OA
ATOM     17  C   UNL     1      -4.191   0.989  24.317  0.00  0.00    +0.168 C 
ATOM     18  C   UNL     1      -4.430   0.316  24.731  0.00  0.00    +0.156 C 
ATOM     19  C   UNL     1      -4.762   0.559  25.446  0.00  0.00    +0.166 C 
ATOM     20  O   UNL     1      -4.728   1.382  25.475  0.00  0.00    -0.348 OA
ATOM     21  C   UNL     1      -4.376   1.648  24.777  0.00  0.00    +0.186 C 
ENDROOT
BRANCH  18  22
ATOM     22  N   UNL     1      -4.351  -0.464  24.473  0.00  0.00    -0.185 NA
ATOM     23  C   UNL     1      -3.926  -1.007  24.927  0.00  0.00    +0.323 C 
ATOM     24  O   UNL     1      -3.581  -0.770  25.638  0.00  0.00    -0.251 OA
ATOM     25  N   UNL     1      -3.847  -1.787  24.669  0.00  0.00    -0.258 N 
ATOM     26  C   UNL     1      -3.422  -2.330  25.123  0.00  0.00    +0.127 C 
ATOM     27  C   UNL     1      -3.342  -3.110  24.866  0.00  0.00    +0.164 C 
ATOM     28  O   UNL     1      -3.688  -3.346  24.154  0.00  0.00    -0.350 OA
ATOM     29  C   UNL     1      -4.112  -2.804  23.702  0.00  0.00    +0.164 C 
ATOM     30  C   UNL     1      -4.192  -2.024  23.959  0.00  0.00    +0.127 C 
ENDBRANCH  18  22
BRANCH  14  13
ATOM     13  O   UNL     1      -4.217   3.102  24.623  0.00  0.00    -0.432 OA
BRANCH  13  11
ATOM     10  N   UNL     1      -3.089   3.725  25.240  0.00  0.00    -0.142 NA
ATOM     11  C   UNL     1      -3.574   3.617  24.582  0.00  0.00    +0.425 C 
ATOM     12  O   UNL     1      -3.417   4.025  23.882  0.00  0.00    -0.224 OA
BRANCH  10   9
ATOM      5  C   UNL     1      -1.046   4.461  25.021  0.00  0.00    +0.073 A 
ATOM      6  C   UNL     1      -1.161   5.272  25.120  0.00  0.00    +0.004 A 
ATOM      7  C   UNL     1      -1.919   5.567  25.259  0.00  0.00    +0.001 A 
ATOM      8  C   UNL     1      -2.562   5.051  25.299  0.00  0.00    +0.017 A 
ATOM      9  C   UNL     1      -2.446   4.240  25.200  0.00  0.00    +0.077 A 
ATOM     31  C   UNL     1      -1.689   3.946  25.061  0.00  0.00    +0.021 A 
BRANCH   5   2
ATOM      1  F   UNL     1       0.469   3.872  24.743  0.00  0.00    -0.166 F 
ATOM      2  C   UNL     1      -0.289   4.167  24.882  0.00  0.00    +0.419 C 
ATOM      3  F   UNL     1      -0.305   4.484  24.121  0.00  0.00    -0.166 F 
ATOM      4  F   UNL     1      -0.271   3.849  25.643  0.00  0.00    -0.166 F 
ENDBRANCH   5   2
ENDBRANCH  10   9
ENDBRANCH  13  11
ENDBRANCH  14  13
TORSDOF 5
ENDMDL
MODEL 4
REMARK VINA RESULT:     -10.6      2.232      5.722
REMARK  Name = 
REMARK  5 active torsions:
REMARK  status: ('A' for Active; 'I' for Inactive)
REMARK    1  A    between atoms: C_2  and  C_5
REMARK    2  A    between atoms: C_9  and  N_10
REMARK    3  A    between atoms: C_11  and  O_13
REMARK    4  A    between atoms: O_13  and  C_14
REMARK    5  A    between atoms: C_18  and  N_22
REMARK                            x       y       z     vdW  Elec       q    Type
REMARK                         _______ _______ _______ _____ _____    ______ ____
ROOT
ATOM     14  C   UNL     1      -0.258   1.287  24.485  0.00  0.00    +0.229 C 
ATOM     15  C   UNL     1      -0.323   1.015  23.709  0.00  0.00    +0.188 C 
ATOM     16  O   UNL     1      -0.699   0.281  23.728  0.00  0.00    -0.348 OA
ATOM     17  C   UNL     1      -0.866   0.100  24.515  0.00  0.00    +0.168 C 
ATOM     18  C   UNL     1      -1.202  -0.465  25.014  0.00  0.00    +0.156 C 
ATOM     19  C   UNL     1      -1.137  -0.193  25.789  0.00  0.00    +0.166 C 
ATOM     20  O   UNL     1      -0.761   0.541  25.770  0.00  0.00    -0.348 OA
ATOM     21  C   UNL     1      -0.593   0.722  24.983  0.00  0.00    +0.186 C 
ENDROOT
BRANCH  18  22
ATOM     22  N   UNL     1      -1.543  -1.179  24.777  0.00  0.00    -0.185 NA
ATOM     23  C   UNL     1      -2.321  -1.353  24.987  0.00  0.00    +0.323 C 
ATOM     24  O   UNL     1      -2.759  -0.815  25.434  0.00  0.00    -0.251 OA
ATOM     25  N   UNL     1      -2.663  -2.066  24.751  0.00  0.00    -0.258 N 
ATOM     26  C   UNL     1      -3.441  -2.241  24.961  0.00  0.00    +0.127 C 
ATOM     27  C   UNL     1      -3.783  -2.954  24.725  0.00  0.00    +0.164 C 
ATOM     28  O   UNL     1      -3.345  -3.492  24.278  0.00  0.00    -0.350 OA
ATOM     29  C   UNL     1      -2.567  -3.317  24.068  0.00  0.00    +0.164 C 
ATOM     30  C   UNL     1      -2.225  -2.604  24.304  0.00  0.00    +0.127 C 
ENDBRANCH  18  22
BRANCH  14  13
ATOM     13  O   UNL     1       0.084   2.001  24.722  0.00  0.00    -0.432 OA
BRANCH  13  11
ATOM     10  N   UNL     1      -0.525   3.127  25.357  0.00  0.00    -0.142 NA
ATOM     11  C   UNL     1      -0.349   2.702  24.673  0.00  0.00    +0.425 C 
ATOM     12  O   UNL     1      -0.605   2.977  23.938  0.00  0.00    -0.224 OA
BRANCH  10   9
ATOM      5  C   UNL     1      -2.181   4.543  25.490  0.00  0.00    +0.073 A 
ATOM      6  C   UNL     1      -1.821   5.230  25.209  0.00  0.00    +0.004 A 
ATOM      7  C   UNL     1      -1.030   5.216  24.977  0.00  0.00    +0.001 A 
ATOM      8  C   UNL     1      -0.598   4.515  25.027  0.00  0.00    +0.017 A 
ATOM      9  C   UNL     1      -0.957   3.828  25.308  0.00  0.00    +0.077 A 
ATOM     31  C   UNL     1      -1.748   3.842  25.539  0.00  0.00    +0.021 A 
BRANCH   5   2
ATOM      1  F   UNL     1      -3.764   4.571  25.954  0.00  0.00    -0.166 F 
ATOM      2  C   UNL     1      -2.972   4.557  25.722  0.00  0.00    +0.419 C 
ATOM      3  F   UNL     1      -2.740   4.638  26.509  0.00  0.00    -0.166 F 
ATOM      4  F   UNL     1      -3.205   4.476  24.935  0.00  0.00    -0.166 F 
ENDBRANCH   5   2
ENDBRANCH  10   9
ENDBRANCH  13  11
ENDBRANCH  14  13
TORSDOF 5
ENDMDL
MODEL 5
REMARK VINA RESULT:     -10.2      3.074      4.574
REMARK  Name = 
REMARK  5 active torsions:
REMARK  status: ('A' for Active; 'I' for Inactive)
REMARK    1  A    between atoms: C_2  and  C_5
REMARK    2  A    between atoms: C_9  and  N_10
REMARK    3  A    between atoms: C_11  and  O_13
REMARK    4  A    between atoms: O_13  and  C_14
REMARK    5  A    between atoms: C_18  and  N_22
REMARK                            x       y       z     vdW  Elec       q    Type
REMARK                         _______ _______ _______ _____ _____    ______ ____
ROOT
ATOM     14  C   UNL     1      -1.231   0.750  24.611  0.00  0.00    +0.229 C 
ATOM     15  C   UNL     1      -0.855   1.465  24.777  0.00  0.00    +0.188 C 
ATOM     16  O   UNL     1      -0.089   1.426  24.473  0.00  0.00    -0.348 OA
ATOM     17  C   UNL     1       0.008   0.688  24.119  0.00  0.00    +0.168 C 
ATOM     18  C   UNL     1       0.541   0.207  23.712  0.00  0.00    +0.156 C 
ATOM     19  C   UNL     1       0.165  -0.508  23.546  0.00  0.00    +0.166 C 
ATOM     20  O   UNL     1      -0.601  -0.469  23.851  0.00  0.00    -0.348 OA
ATOM     21  C   UNL     1      -0.698   0.270  24.205  0.00  0.00    +0.186 C 
ENDROOT
BRANCH  18  22
ATOM     22  N   UNL     1       1.315   0.407  23.507  0.00  0.00    -0.185 NA
ATOM     23  C   UNL     1       1.648   0.109  22.814  0.00  0.00    +0.323 C 
ATOM     24  O   UNL     1       1.208  -0.390  22.326  0.00  0.00    -0.251 OA
ATOM     25  N   UNL     1       2.422   0.308  22.609  0.00  0.00    -0.258 N 
ATOM     26  C   UNL     1       2.755   0.010  21.916  0.00  0.00    +0.127 C 
ATOM     27  C   UNL     1       3.529   0.209  21.710  0.00  0.00    +0.164 C 
ATOM     28  O   UNL     1       3.969   0.708  22.199  0.00  0.00    -0.350 OA
ATOM     29  C   UNL     1       3.636   1.006  22.892  0.00  0.00    +0.164 C 
ATOM     30  C   UNL     1       2.862   0.807  23.098  0.00  0.00    +0.127 C 
ENDBRANCH  18  22
BRANCH  14  13
ATOM     13  O   UNL     1      -2.005   0.550  24.816  0.00  0.00    -0.432 OA
BRANCH  13  11
ATOM     10  N   UNL     1      -3.288   1.052  24.439  0.00  0.00    -0.142 NA
ATOM     11  C   UNL     1      -2.585   1.135  24.860  0.00  0.00    +0.425 C 
ATOM     12  O   UNL     1      -2.460   1.805  25.327  0.00  0.00    -0.224 OA
BRANCH  10   9
ATOM      5  C   UNL     1      -5.125   2.100  24.981  0.00  0.00    +0.073 A 
ATOM      6  C   UNL     1      -5.027   2.809  24.569  0.00  0.00    +0.004 A 
ATOM      7  C   UNL     1      -4.350   2.932  24.114  0.00  0.00    +0.001 A 
ATOM      8  C   UNL     1      -3.771   2.346  24.071  0.00  0.00    +0.017 A 
ATOM      9  C   UNL     1      -3.868   1.637  24.482  0.00  0.00    +0.077 A 
ATOM     31  C   UNL     1      -4.545   1.515  24.937  0.00  0.00    +0.021 A 
BRANCH   5   2
ATOM      1  F   UNL     1      -6.479   1.855  25.891  0.00  0.00    -0.166 F 
ATOM      2  C   UNL     1      -5.802   1.978  25.435  0.00  0.00    +0.419 C 
ATOM      3  F   UNL     1      -5.437   2.345  26.077  0.00  0.00    -0.166 F 
ATOM      4  F   UNL     1      -6.168   1.611  24.794  0.00  0.00    -0.166 F 
ENDBRANCH   5   2
ENDBRANCH  10   9
ENDBRANCH  13  11
ENDBRANCH  14  13
TORSDOF 5
ENDMDL
MODEL 6
REMARK VINA RESULT:      -9.8      2.747      4.686
REMARK  Name = 
REMARK  5 active torsions:
REMARK  status: ('A' for Active; 'I' for Inactive)
REMARK    1  A    between atoms: C_2  and  C_5
REMARK    2  A    between atoms: C_9  and  N_10
REMARK    3  A    between atoms: C_11  and  O_13
REMARK    4  A    between atoms: O_13  and  C_14
REMARK    5  A    between atoms: C_18  and  N_22
REMARK                            x       y       z     vdW  Elec       q    Type
REMARK                         _______ _______ _______ _____ _____    ______ ____
ROOT
ATOM     14  C   UNL     1      -1.389   3.383  25.301  0.00  0.00    +0.229 C 
ATOM     15  C   UNL     1      -1.075   3.774  24.646  0.00  0.00    +0.188 C 
ATOM     16  O   UNL     1      -0.498   3.288  24.313  0.00  0.00    -0.348 OA
ATOM     17  C   UNL     1      -0.454   2.598  24.762  0.00  0.00    +0.168 C 
ATOM     18  C   UNL     1      -0.071   1.871  24.835  0.00  0.00    +0.156 C 
ATOM     19  C   UNL     1      -0.384   1.481  25.490  0.00  0.00    +0.166 C 
ATOM     20  O   UNL     1      -0.962   1.966  25.822  0.00  0.00    -0.348 OA
ATOM     21  C   UNL     1      -1.005   2.657  25.373  0.00  0.00    +0.186 C 
ENDROOT
BRANCH  18  22
ATOM     22  N   UNL     1       0.523   1.585  24.338  0.00  0.00    -0.185 NA
ATOM     23  C   UNL     1       0.413   0.878  23.928  0.00  0.00    +0.323 C 
ATOM     24  O   UNL     1      -0.291   0.457  24.014  0.00  0.00    -0.251 OA
ATOM     25  N   UNL     1       1.007   0.592  23.431  0.00  0.00    -0.258 N 
ATOM     26  C   UNL     1       0.897  -0.115  23.021  0.00  0.00    +0.127 C 
ATOM     27  C   UNL     1       1.490  -0.402  22.524  0.00  0.00    +0.164 C 
ATOM     28  O   UNL     1       2.194   0.021  22.439  0.00  0.00    -0.350 OA
ATOM     29  C   UNL     1       2.304   0.727  22.849  0.00  0.00    +0.164 C 
ATOM     30  C   UNL     1       1.711   1.014  23.345  0.00  0.00    +0.127 C 
ENDBRANCH  18  22
BRANCH  14  13
ATOM     13  O   UNL     1      -1.983   3.669  25.798  0.00  0.00    -0.432 OA
BRANCH  13  11
ATOM     10  N   UNL     1      -3.352   3.319  26.012  0.00  0.00    -0.142 NA
ATOM     11  C   UNL     1      -2.769   3.668  25.545  0.00  0.00    +0.425 C 
ATOM     12  O   UNL     1      -2.970   4.017  24.825  0.00  0.00    -0.224 OA
BRANCH  10   9
ATOM      5  C   UNL     1      -5.270   2.617  25.242  0.00  0.00    +0.073 A 
ATOM      6  C   UNL     1      -5.708   3.316  25.254  0.00  0.00    +0.004 A 
ATOM      7  C   UNL     1      -5.361   4.016  25.519  0.00  0.00    +0.001 A 
ATOM      8  C   UNL     1      -4.575   4.017  25.772  0.00  0.00    +0.017 A 
ATOM      9  C   UNL     1      -4.137   3.318  25.759  0.00  0.00    +0.077 A 
ATOM     31  C   UNL     1      -4.485   2.618  25.495  0.00  0.00    +0.021 A 
BRANCH   5   2
ATOM      1  F   UNL     1      -5.966   1.218  24.713  0.00  0.00    -0.166 F 
ATOM      2  C   UNL     1      -5.618   1.918  24.977  0.00  0.00    +0.419 C 
ATOM      3  F   UNL     1      -5.850   1.741  25.749  0.00  0.00    -0.166 F 
ATOM      4  F   UNL     1      -5.386   2.094  24.205  0.00  0.00    -0.166 F 
ENDBRANCH   5   2
ENDBRANCH  10   9
ENDBRANCH  13  11
ENDBRANCH  14  13
TORSDOF 5
ENDMDL
MODEL 7
REMARK VINA RESULT:      -9.2      3.846      4.918
REMARK  Name = 
REMARK  5 active torsions:
REMARK  status: ('A' for Active; 'I' for Inactive)
REMARK    1  A    between atoms: C_2  and  C_5
REMARK    2  A    between atoms: C_9  and  N_10
REMARK    3  A    between atoms: C_11  and  O_13
REMARK    4  A    between atoms: O_13  and  C_14
REMARK    5  A    between atoms: C_18  and  N_22
REMARK                            x       y       z     vdW  Elec       q    Type
REMARK                         _______ _______ _______ _____ _____    ______ ____
ROOT
ATOM     14  C   UNL     1      -0.776   0.595  24.226  0.00  0.00    +0.229 C 
ATOM     15  C   UNL     1      -0.576   1.374  24.406  0.00  0.00    +0.188 C 
ATOM     16  O   UNL     1      -1.270   1.781  24.585  0.00  0.00    -0.348 OA
ATOM     17  C   UNL     1      -1.900   1.254  24.515  0.00  0.00    +0.168 C 
ATOM     18  C   UNL     1      -2.719   1.179  24.581  0.00  0.00    +0.156 C 
ATOM     19  C   UNL     1      -2.920   0.400  24.401  0.00  0.00    +0.166 C 
ATOM     20  O   UNL     1      -2.225  -0.007  24.223  0.00  0.00    -0.348 OA
ATOM     21  C   UNL     1      -1.595   0.521  24.293  0.00  0.00    +0.186 C 
ENDROOT
BRANCH  18  22
ATOM     22  N   UNL     1      -3.245   1.779  24.792  0.00  0.00    -0.185 NA
ATOM     23  C   UNL     1      -4.030   1.596  24.969  0.00  0.00    +0.323 C 
ATOM     24  O   UNL     1      -4.289   0.814  24.936  0.00  0.00    -0.251 OA
ATOM     25  N   UNL     1      -4.556   2.196  25.179  0.00  0.00    -0.258 N 
ATOM     26  C   UNL     1      -5.341   2.013  25.356  0.00  0.00    +0.127 C 
ATOM     27  C   UNL     1      -5.868   2.612  25.567  0.00  0.00    +0.164 C 
ATOM     28  O   UNL     1      -5.608   3.396  25.600  0.00  0.00    -0.350 OA
ATOM     29  C   UNL     1      -4.824   3.578  25.423  0.00  0.00    +0.164 C 
ATOM     30  C   UNL     1      -4.297   2.979  25.212  0.00  0.00    +0.127 C 
ENDBRANCH  18  22
BRANCH  14  13
ATOM     13  O   UNL     1      -0.250  -0.005  24.016  0.00  0.00    -0.432 OA
BRANCH  13  11
ATOM     10  N   UNL     1       1.053  -0.286  23.501  0.00  0.00    -0.142 NA
ATOM     11  C   UNL     1       0.351   0.145  23.471  0.00  0.00    +0.425 C 
ATOM     12  O   UNL     1       0.249   0.728  22.895  0.00  0.00    -0.224 OA
BRANCH  10   9
ATOM      5  C   UNL     1       2.957   0.370  22.659  0.00  0.00    +0.073 A 
ATOM      6  C   UNL     1       2.856   0.165  21.866  0.00  0.00    +0.004 A 
ATOM      7  C   UNL     1       2.153  -0.191  21.619  0.00  0.00    +0.001 A 
ATOM      8  C   UNL     1       1.553  -0.341  22.164  0.00  0.00    +0.017 A 
ATOM      9  C   UNL     1       1.654  -0.135  22.957  0.00  0.00    +0.077 A 
ATOM     31  C   UNL     1       2.356   0.220  23.204  0.00  0.00    +0.021 A 
BRANCH   5   2
ATOM      1  F   UNL     1       4.362   1.080  23.153  0.00  0.00    -0.166 F 
ATOM      2  C   UNL     1       3.659   0.725  22.906  0.00  0.00    +0.419 C 
ATOM      3  F   UNL     1       4.010  -0.017  22.976  0.00  0.00    -0.166 F 
ATOM      4  F   UNL     1       3.309   1.469  22.836  0.00  0.00    -0.166 F 
ENDBRANCH   5   2
ENDBRANCH  10   9
ENDBRANCH  13  11
ENDBRANCH  14  13
TORSDOF 5
ENDMDL
