REMARK  Name = 
REMARK  6 active torsions:
REMARK  status: ('A' for Active; 'I' for Inactive)
REMARK    1  A    between atoms: C_5  and  N_6
REMARK    2  A    between atoms: N_9  and  C_10
REMARK    3  A    between atoms: C_10  and  C_11
REMARK    4  A    between atoms: C_13  and  C_14
REMARK    5  A    between atoms: C_14  and  C_15
REMARK    6  A    between atoms: N_20  and  C_23
REMARK                            x       y       z     vdW  Elec       q    Type
REMARK                         _______ _______ _______ _____ _____    ______ ____
ROOT
ATOM     11  C   UNL     1       1.429  -4.950   0.000  0.00  0.00    +0.170 C 
ATOM     12  O   UNL     1       2.096  -5.435   0.000  0.00  0.00    -0.351 OA
ATOM     13  C   UNL     1       1.841  -6.220   0.000  0.00  0.00    +0.157 C 
ATOM     29  C   UNL     1       1.016  -6.220   0.000  0.00  0.00    +0.212 C 
ATOM     30  O   UNL     1       0.531  -6.887   0.000  0.00  0.00    -0.218 OA
ATOM     31  C   UNL     1       0.761  -5.435   0.000  0.00  0.00    +0.213 C 
ATOM     32  O   UNL     1      -0.023  -5.180   0.000  0.00  0.00    -0.218 OA
ENDROOT
BRANCH  11  10
ATOM     10  C   UNL     1       1.429  -4.125   0.000  0.00  0.00    +0.149 C 
BRANCH  10   9
ATOM      6  N   UNL     1       0.000  -2.475   0.000  0.00  0.00    -0.161 NA
ATOM      7  C   UNL     1       0.715  -2.888   0.000  0.00  0.00    +0.344 C 
ATOM      8  O   UNL     1       1.429  -2.475   0.000  0.00  0.00    -0.249 OA
ATOM      9  N   UNL     1       0.715  -3.712   0.000  0.00  0.00    -0.184 NA
BRANCH   6   5
ATOM      1  C   UNL     1       0.000   0.825   0.000  0.00  0.00    +0.031 C 
ATOM      2  C   UNL     1       0.000   0.000   0.000  0.00  0.00    -0.022 A 
ATOM      3  C   UNL     1       0.715  -0.412   0.000  0.00  0.00    -0.003 A 
ATOM      4  C   UNL     1       0.715  -1.238   0.000  0.00  0.00    +0.016 A 
ATOM      5  C   UNL     1       0.000  -1.650   0.000  0.00  0.00    +0.075 A 
ATOM     33  C   UNL     1      -0.715  -1.238   0.000  0.00  0.00    +0.016 A 
ATOM     34  C   UNL     1      -0.715  -0.412   0.000  0.00  0.00    -0.003 A 
ENDBRANCH   6   5
ENDBRANCH  10   9
ENDBRANCH  11  10
BRANCH  13  14
ATOM     14  C   UNL     1       2.326  -6.887   0.000  0.00  0.00    +0.117 C 
BRANCH  14  15
ATOM     15  C   UNL     1       3.147  -6.801   0.000  0.00  0.00    +0.228 C 
ATOM     16  O   UNL     1       3.482  -6.047   0.000  0.00  0.00    -0.275 OA
ATOM     17  N   UNL     1       3.632  -7.468   0.000  0.00  0.00    -0.276 N 
ATOM     18  C   UNL     1       4.452  -7.382   0.000  0.00  0.00    +0.115 C 
ATOM     19  C   UNL     1       4.937  -8.049   0.000  0.00  0.00    +0.112 C 
ATOM     20  N   UNL     1       4.602  -8.803   0.000  0.00  0.00    -0.304 N 
ATOM     21  C   UNL     1       3.781  -8.889   0.000  0.00  0.00    +0.112 C 
ATOM     22  C   UNL     1       3.296  -8.222   0.000  0.00  0.00    +0.115 C 
BRANCH  20  23
ATOM     23  C   UNL     1       5.087  -9.470   0.000  0.00  0.00    +0.048 A 
ATOM     24  C   UNL     1       5.907  -9.384   0.000  0.00  0.00    +0.015 A 
ATOM     25  C   UNL     1       6.392 -10.052   0.000  0.00  0.00    +0.001 A 
ATOM     26  C   UNL     1       6.056 -10.805   0.000  0.00  0.00    +0.000 A 
ATOM     27  C   UNL     1       5.236 -10.892   0.000  0.00  0.00    +0.001 A 
ATOM     28  C   UNL     1       4.751 -10.224   0.000  0.00  0.00    +0.015 A 
ENDBRANCH  20  23
ENDBRANCH  14  15
ENDBRANCH  13  14
TORSDOF 6
