MODEL 1
REMARK VINA RESULT:     -11.0      0.000      0.000
REMARK  Name = 
REMARK  6 active torsions:
REMARK  status: ('A' for Active; 'I' for Inactive)
REMARK    1  A    between atoms: O_2  and  C_3
REMARK    2  A    between atoms: C_6  and  C_9
REMARK    3  A    between atoms: C_15  and  C_17
REMARK    4  A    between atoms: N_19  and  C_20
REMARK    5  A    between atoms: C_27  and  C_29
REMARK    6  A    between atoms: C_32  and  O_33
REMARK                            x       y       z     vdW  Elec       q    Type
REMARK                         _______ _______ _______ _____ _____    ______ ____
ROOT
ATOM      9  C   UNL     1      -2.728   3.055  24.470  0.00  0.00    +0.249 C 
ATOM     10  O   UNL     1      -2.250   3.673  24.202  0.00  0.00    -0.270 OA
ATOM     11  N   UNL     1      -2.459   2.277  24.425  0.00  0.00    -0.272 N 
ATOM     12  C   UNL     1      -2.938   1.659  24.692  0.00  0.00    +0.115 C 
ATOM     13  C   UNL     1      -2.669   0.881  24.647  0.00  0.00    +0.116 C 
ATOM     14  N   UNL     1      -1.923   0.719  24.335  0.00  0.00    -0.266 N 
ATOM     15  C   UNL     1      -1.445   1.336  24.068  0.00  0.00    +0.174 C 
ATOM     16  C   UNL     1      -1.713   2.115  24.113  0.00  0.00    +0.123 C 
ATOM     27  C   UNL     1      -1.655  -0.060  24.290  0.00  0.00    +0.249 C 
ATOM     28  O   UNL     1      -0.908  -0.222  23.978  0.00  0.00    -0.270 OA
ENDROOT
BRANCH   9   6
ATOM      3  C   UNL     1      -4.966   3.541  25.405  0.00  0.00    +0.139 A 
ATOM      4  C   UNL     1      -4.893   3.281  24.625  0.00  0.00    +0.037 A 
ATOM      5  C   UNL     1      -4.147   3.119  24.313  0.00  0.00    +0.008 A 
ATOM      6  C   UNL     1      -3.474   3.217  24.781  0.00  0.00    +0.054 A 
ATOM      7  C   UNL     1      -3.548   3.476  25.561  0.00  0.00    +0.008 A 
ATOM      8  C   UNL     1      -4.294   3.638  25.873  0.00  0.00    +0.037 A 
BRANCH   3   2
ATOM      1  C   UNL     1      -6.228   3.084  25.897  0.00  0.00    +0.252 C 
ATOM      2  O   UNL     1      -5.714   3.703  25.718  0.00  0.00    -0.471 OA
ENDBRANCH   3   2
ENDBRANCH   9   6
BRANCH  27  29
ATOM     29  C   UNL     1      -2.132  -0.677  24.557  0.00  0.00    +0.054 A 
ATOM     30  C   UNL     1      -2.756  -0.948  24.091  0.00  0.00    +0.008 A 
ATOM     31  C   UNL     1      -3.234  -1.565  24.357  0.00  0.00    +0.037 A 
ATOM     32  C   UNL     1      -3.088  -1.911  25.092  0.00  0.00    +0.139 A 
ATOM     35  C   UNL     1      -2.464  -1.640  25.560  0.00  0.00    +0.037 A 
ATOM     36  C   UNL     1      -1.987  -1.023  25.292  0.00  0.00    +0.008 A 
BRANCH  32  33
ATOM     33  O   UNL     1      -3.566  -2.529  25.360  0.00  0.00    -0.471 OA
ATOM     34  C   UNL     1      -3.620  -3.227  24.923  0.00  0.00    +0.252 C 
ENDBRANCH  32  33
ENDBRANCH  27  29
BRANCH  15  17
ATOM     17  C   UNL     1      -0.698   1.174  23.756  0.00  0.00    +0.262 C 
ATOM     18  O   UNL     1      -0.629   0.803  23.023  0.00  0.00    -0.271 OA
ATOM     19  N   UNL     1      -0.020   1.383  24.178  0.00  0.00    -0.196 NA
BRANCH  19  20
ATOM     20  C   UNL     1      -0.089   1.754  24.911  0.00  0.00    +0.173 C 
ATOM     21  C   UNL     1      -0.404   1.342  25.554  0.00  0.00    +0.033 C 
ATOM     22  C   UNL     1      -0.473   1.713  26.288  0.00  0.00    +0.026 C 
ATOM     23  C   UNL     1      -0.227   2.495  26.379  0.00  0.00    +0.115 C 
ATOM     24  N   UNL     1       0.088   2.907  25.736  0.00  0.00    -0.204 NA
ATOM     25  C   UNL     1       0.157   2.536  25.003  0.00  0.00    +0.261 C 
ATOM     26  O   UNL     1       0.472   2.947  24.361  0.00  0.00    -0.271 OA
ENDBRANCH  19  20
ENDBRANCH  15  17
TORSDOF 6
ENDMDL
MODEL 2
REMARK VINA RESULT:     -10.7      0.558      3.967
REMARK  Name = 
REMARK  6 active torsions:
REMARK  status: ('A' for Active; 'I' for Inactive)
REMARK    1  A    between atoms: O_2  and  C_3
REMARK    2  A    between atoms: C_6  and  C_9
REMARK    3  A    between atoms: C_15  and  C_17
REMARK    4  A    between atoms: N_19  and  C_20
REMARK    5  A    between atoms: C_27  and  C_29
REMARK    6  A    between atoms: C_32  and  O_33
REMARK                            x       y       z     vdW  Elec       q    Type
REMARK                         _______ _______ _______ _____ _____    ______ ____
ROOT
ATOM      9  C   UNL     1      -1.477   0.067  24.346  0.00  0.00    +0.249 C 
ATOM     10  O   UNL     1      -0.722  -0.025  24.024  0.00  0.00    -0.270 OA
ATOM     11  N   UNL     1      -1.821   0.816  24.382  0.00  0.00    -0.272 N 
ATOM     12  C   UNL     1      -2.576   0.908  24.703  0.00  0.00    +0.115 C 
ATOM     13  C   UNL     1      -2.919   1.657  24.740  0.00  0.00    +0.116 C 
ATOM     14  N   UNL     1      -2.509   2.314  24.455  0.00  0.00    -0.266 N 
ATOM     15  C   UNL     1      -1.755   2.222  24.135  0.00  0.00    +0.174 C 
ATOM     16  C   UNL     1      -1.410   1.473  24.098  0.00  0.00    +0.123 C 
ATOM     27  C   UNL     1      -2.854   3.062  24.492  0.00  0.00    +0.249 C 
ATOM     28  O   UNL     1      -2.443   3.720  24.208  0.00  0.00    -0.270 OA
ENDROOT
BRANCH   9   6
ATOM      3  C   UNL     1      -2.707  -1.903  25.198  0.00  0.00    +0.139 A 
ATOM      4  C   UNL     1      -2.823  -1.649  24.422  0.00  0.00    +0.037 A 
ATOM      5  C   UNL     1      -2.413  -0.992  24.137  0.00  0.00    +0.008 A 
ATOM      6  C   UNL     1      -1.887  -0.589  24.629  0.00  0.00    +0.054 A 
ATOM      7  C   UNL     1      -1.772  -0.844  25.406  0.00  0.00    +0.008 A 
ATOM      8  C   UNL     1      -2.182  -1.501  25.690  0.00  0.00    +0.037 A 
BRANCH   3   2
ATOM      1  C   UNL     1      -3.533  -3.045  24.961  0.00  0.00    +0.252 C 
ATOM      2  O   UNL     1      -3.118  -2.561  25.483  0.00  0.00    -0.471 OA
ENDBRANCH   3   2
ENDBRANCH   9   6
BRANCH  27  29
ATOM     29  C   UNL     1      -3.608   3.154  24.813  0.00  0.00    +0.054 A 
ATOM     30  C   UNL     1      -3.700   3.485  25.562  0.00  0.00    +0.008 A 
ATOM     31  C   UNL     1      -4.454   3.577  25.884  0.00  0.00    +0.037 A 
ATOM     32  C   UNL     1      -5.117   3.339  25.454  0.00  0.00    +0.139 A 
ATOM     35  C   UNL     1      -5.025   3.007  24.704  0.00  0.00    +0.037 A 
ATOM     36  C   UNL     1      -4.271   2.916  24.383  0.00  0.00    +0.008 A 
BRANCH  32  33
ATOM     33  O   UNL     1      -5.872   3.431  25.775  0.00  0.00    -0.471 OA
ATOM     34  C   UNL     1      -6.258   2.784  26.113  0.00  0.00    +0.252 C 
ENDBRANCH  32  33
ENDBRANCH  27  29
BRANCH  15  17
ATOM     17  C   UNL     1      -1.345   2.879  23.850  0.00  0.00    +0.262 C 
ATOM     18  O   UNL     1      -1.576   3.235  23.143  0.00  0.00    -0.271 OA
ATOM     19  N   UNL     1      -0.703   3.180  24.274  0.00  0.00    -0.196 NA
BRANCH  19  20
ATOM     20  C   UNL     1      -0.472   2.824  24.980  0.00  0.00    +0.173 C 
ATOM     21  C   UNL     1      -0.958   2.875  25.646  0.00  0.00    +0.033 C 
ATOM     22  C   UNL     1      -0.727   2.519  26.354  0.00  0.00    +0.026 C 
ATOM     23  C   UNL     1      -0.011   2.112  26.396  0.00  0.00    +0.115 C 
ATOM     24  N   UNL     1       0.475   2.061  25.730  0.00  0.00    -0.204 NA
ATOM     25  C   UNL     1       0.244   2.417  25.023  0.00  0.00    +0.261 C 
ATOM     26  O   UNL     1       0.730   2.366  24.358  0.00  0.00    -0.271 OA
ENDBRANCH  19  20
ENDBRANCH  15  17
TORSDOF 6
ENDMDL
MODEL 3
REMARK VINA RESULT:     -10.3      1.382      4.380
REMARK  Name = 
REMARK  6 active torsions:
REMARK  status: ('A' for Active; 'I' for Inactive)
REMARK    1  A    between atoms: O_2  and  C_3
REMARK    2  A    between atoms: C_6  and  C_9
REMARK    3  A    between atoms: C_15  and  C_17
REMARK    4  A    between atoms: N_19  and  C_20
REMARK    5  A    between atoms: C_27  and  C_29
REMARK    6  A    between atoms: C_32  and  O_33
REMARK                            x       y       z     vdW  Elec       q    Type
REMARK                         _______ _______ _______ _____ _____    ______ ____
ROOT
ATOM      9  C   UNL     1      -4.083   0.665  25.225  0.00  0.00    +0.249 C 
ATOM     10  O   UNL     1      -4.801   0.944  25.522  0.00  0.00    -0.270 OA
ATOM     11  N   UNL     1      -3.426   1.163  25.203  0.00  0.00    -0.272 N 
ATOM     12  C   UNL     1      -2.708   0.884  24.906  0.00  0.00    +0.115 C 
ATOM     13  C   UNL     1      -2.050   1.382  24.883  0.00  0.00    +0.116 C 
ATOM     14  N   UNL     1      -2.110   2.158  25.158  0.00  0.00    -0.266 N 
ATOM     15  C   UNL     1      -2.827   2.436  25.454  0.00  0.00    +0.174 C 
ATOM     16  C   UNL     1      -3.486   1.939  25.477  0.00  0.00    +0.123 C 
ATOM     27  C   UNL     1      -1.452   2.655  25.135  0.00  0.00    +0.249 C 
ATOM     28  O   UNL     1      -1.511   3.431  25.409  0.00  0.00    -0.270 OA
ENDROOT
BRANCH   9   6
ATOM      3  C   UNL     1      -3.904  -1.661  24.403  0.00  0.00    +0.139 A 
ATOM      4  C   UNL     1      -4.158  -1.063  23.894  0.00  0.00    +0.037 A 
ATOM      5  C   UNL     1      -4.218  -0.287  24.169  0.00  0.00    +0.008 A 
ATOM      6  C   UNL     1      -4.023  -0.110  24.951  0.00  0.00    +0.054 A 
ATOM      7  C   UNL     1      -3.769  -0.708  25.458  0.00  0.00    +0.008 A 
ATOM      8  C   UNL     1      -3.709  -1.484  25.184  0.00  0.00    +0.037 A 
BRANCH   3   2
ATOM      1  C   UNL     1      -3.346  -2.973  24.510  0.00  0.00    +0.252 C 
ATOM      2  O   UNL     1      -3.844  -2.438  24.128  0.00  0.00    -0.471 OA
ENDBRANCH   3   2
ENDBRANCH   9   6
BRANCH  27  29
ATOM     29  C   UNL     1      -0.734   2.377  24.838  0.00  0.00    +0.054 A 
ATOM     30  C   UNL     1      -0.530   2.520  24.053  0.00  0.00    +0.008 A 
ATOM     31  C   UNL     1       0.188   2.242  23.755  0.00  0.00    +0.037 A 
ATOM     32  C   UNL     1       0.701   1.820  24.245  0.00  0.00    +0.139 A 
ATOM     35  C   UNL     1       0.496   1.676  25.032  0.00  0.00    +0.037 A 
ATOM     36  C   UNL     1      -0.222   1.955  25.328  0.00  0.00    +0.008 A 
BRANCH  32  33
ATOM     33  O   UNL     1       1.420   1.541  23.948  0.00  0.00    -0.471 OA
ATOM     34  C   UNL     1       1.436   0.863  23.479  0.00  0.00    +0.252 C 
ENDBRANCH  32  33
ENDBRANCH  27  29
BRANCH  15  17
ATOM     17  C   UNL     1      -2.887   3.213  25.729  0.00  0.00    +0.262 C 
ATOM     18  O   UNL     1      -2.524   3.429  26.436  0.00  0.00    -0.271 OA
ATOM     19  N   UNL     1      -3.311   3.772  25.294  0.00  0.00    -0.196 NA
BRANCH  19  20
ATOM     20  C   UNL     1      -3.674   3.556  24.586  0.00  0.00    +0.173 C 
ATOM     21  C   UNL     1      -3.214   3.345  23.933  0.00  0.00    +0.033 C 
ATOM     22  C   UNL     1      -3.578   3.129  23.225  0.00  0.00    +0.026 C 
ATOM     23  C   UNL     1      -4.400   3.123  23.168  0.00  0.00    +0.115 C 
ATOM     24  N   UNL     1      -4.860   3.334  23.821  0.00  0.00    -0.204 NA
ATOM     25  C   UNL     1      -4.497   3.550  24.529  0.00  0.00    +0.261 C 
ATOM     26  O   UNL     1      -4.957   3.760  25.181  0.00  0.00    -0.271 OA
ENDBRANCH  19  20
ENDBRANCH  15  17
TORSDOF 6
ENDMDL
MODEL 4
REMARK VINA RESULT:     -10.2      1.547      4.729
REMARK  Name = 
REMARK  6 active torsions:
REMARK  status: ('A' for Active; 'I' for Inactive)
REMARK    1  A    between atoms: O_2  and  C_3
REMARK    2  A    between atoms: C_6  and  C_9
REMARK    3  A    between atoms: C_15  and  C_17
REMARK    4  A    between atoms: N_19  and  C_20
REMARK    5  A    between atoms: C_27  and  C_29
REMARK    6  A    between atoms: C_32  and  O_33
REMARK                            x       y       z     vdW  Elec       q    Type
REMARK                         _______ _______ _______ _____ _____    ______ ____
ROOT
ATOM      9  C   UNL     1      -4.317   0.168  24.338  0.00  0.00    +0.249 C 
ATOM     10  O   UNL     1      -5.066   0.207  23.991  0.00  0.00    -0.270 OA
ATOM     11  N   UNL     1      -3.861   0.851  24.412  0.00  0.00    -0.272 N 
ATOM     12  C   UNL     1      -3.113   0.812  24.759  0.00  0.00    +0.115 C 
ATOM     13  C   UNL     1      -2.657   1.495  24.833  0.00  0.00    +0.116 C 
ATOM     14  N   UNL     1      -2.949   2.218  24.562  0.00  0.00    -0.266 N 
ATOM     15  C   UNL     1      -3.696   2.257  24.217  0.00  0.00    +0.174 C 
ATOM     16  C   UNL     1      -4.153   1.574  24.141  0.00  0.00    +0.123 C 
ATOM     27  C   UNL     1      -2.492   2.901  24.638  0.00  0.00    +0.249 C 
ATOM     28  O   UNL     1      -2.784   3.624  24.366  0.00  0.00    -0.270 OA
ENDROOT
BRANCH   9   6
ATOM      3  C   UNL     1      -3.442  -1.999  25.150  0.00  0.00    +0.139 A 
ATOM      4  C   UNL     1      -3.492  -1.853  24.340  0.00  0.00    +0.037 A 
ATOM      5  C   UNL     1      -3.783  -1.130  24.069  0.00  0.00    +0.008 A 
ATOM      6  C   UNL     1      -4.026  -0.554  24.608  0.00  0.00    +0.054 A 
ATOM      7  C   UNL     1      -3.976  -0.702  25.418  0.00  0.00    +0.008 A 
ATOM      8  C   UNL     1      -3.684  -1.424  25.689  0.00  0.00    +0.037 A 
BRANCH   3   2
ATOM      1  C   UNL     1      -3.184  -3.389  24.937  0.00  0.00    +0.252 C 
ATOM      2  O   UNL     1      -3.150  -2.723  25.422  0.00  0.00    -0.471 OA
ENDBRANCH   3   2
ENDBRANCH   9   6
BRANCH  27  29
ATOM     29  C   UNL     1      -1.745   2.862  24.983  0.00  0.00    +0.054 A 
ATOM     30  C   UNL     1      -1.098   2.608  24.540  0.00  0.00    +0.008 A 
ATOM     31  C   UNL     1      -0.350   2.568  24.886  0.00  0.00    +0.037 A 
ATOM     32  C   UNL     1      -0.249   2.784  25.676  0.00  0.00    +0.139 A 
ATOM     35  C   UNL     1      -0.897   3.039  26.120  0.00  0.00    +0.037 A 
ATOM     36  C   UNL     1      -1.644   3.077  25.773  0.00  0.00    +0.008 A 
BRANCH  32  33
ATOM     33  O   UNL     1       0.499   2.745  26.022  0.00  0.00    -0.471 OA
ATOM     34  C   UNL     1       0.577   2.512  26.810  0.00  0.00    +0.252 C 
ENDBRANCH  32  33
ENDBRANCH  27  29
BRANCH  15  17
ATOM     17  C   UNL     1      -3.988   2.980  23.945  0.00  0.00    +0.262 C 
ATOM     18  O   UNL     1      -3.668   3.327  23.269  0.00  0.00    -0.271 OA
ATOM     19  N   UNL     1      -4.601   3.355  24.351  0.00  0.00    -0.196 NA
BRANCH  19  20
ATOM     20  C   UNL     1      -4.922   3.009  25.027  0.00  0.00    +0.173 C 
ATOM     21  C   UNL     1      -4.486   2.990  25.728  0.00  0.00    +0.033 C 
ATOM     22  C   UNL     1      -4.807   2.643  26.404  0.00  0.00    +0.026 C 
ATOM     23  C   UNL     1      -5.563   2.316  26.380  0.00  0.00    +0.115 C 
ATOM     24  N   UNL     1      -5.999   2.334  25.679  0.00  0.00    -0.204 NA
ATOM     25  C   UNL     1      -5.679   2.681  25.004  0.00  0.00    +0.261 C 
ATOM     26  O   UNL     1      -6.114   2.700  24.303  0.00  0.00    -0.271 OA
ENDBRANCH  19  20
ENDBRANCH  15  17
TORSDOF 6
ENDMDL
MODEL 5
REMARK VINA RESULT:     -10.1      1.450      3.894
REMARK  Name = 
REMARK  6 active torsions:
REMARK  status: ('A' for Active; 'I' for Inactive)
REMARK    1  A    between atoms: O_2  and  C_3
REMARK    2  A    between atoms: C_6  and  C_9
REMARK    3  A    between atoms: C_15  and  C_17
REMARK    4  A    between atoms: N_19  and  C_20
REMARK    5  A    between atoms: C_27  and  C_29
REMARK    6  A    between atoms: C_32  and  O_33
REMARK                            x       y       z     vdW  Elec       q    Type
REMARK                         _______ _______ _______ _____ _____    ______ ____
ROOT
ATOM      9  C   UNL     1      -1.812   2.695  25.200  0.00  0.00    +0.249 C 
ATOM     10  O   UNL     1      -1.954   3.474  25.435  0.00  0.00    -0.270 OA
ATOM     11  N   UNL     1      -2.437   2.158  25.158  0.00  0.00    -0.272 N 
ATOM     12  C   UNL     1      -2.296   1.379  24.923  0.00  0.00    +0.115 C 
ATOM     13  C   UNL     1      -2.920   0.842  24.881  0.00  0.00    +0.116 C 
ATOM     14  N   UNL     1      -3.686   1.083  25.073  0.00  0.00    -0.266 N 
ATOM     15  C   UNL     1      -3.826   1.860  25.307  0.00  0.00    +0.174 C 
ATOM     16  C   UNL     1      -3.202   2.399  25.350  0.00  0.00    +0.123 C 
ATOM     27  C   UNL     1      -4.310   0.545  25.030  0.00  0.00    +0.249 C 
ATOM     28  O   UNL     1      -5.076   0.786  25.223  0.00  0.00    -0.270 OA
ENDROOT
BRANCH   9   6
ATOM      3  C   UNL     1       0.483   1.973  24.624  0.00  0.00    +0.139 A 
ATOM      4  C   UNL     1      -0.011   2.283  24.040  0.00  0.00    +0.037 A 
ATOM      5  C   UNL     1      -0.776   2.523  24.232  0.00  0.00    +0.008 A 
ATOM      6  C   UNL     1      -1.048   2.454  25.009  0.00  0.00    +0.054 A 
ATOM      7  C   UNL     1      -0.554   2.145  25.592  0.00  0.00    +0.008 A 
ATOM      8  C   UNL     1       0.212   1.904  25.400  0.00  0.00    +0.037 A 
BRANCH   3   2
ATOM      1  C   UNL     1       1.378   1.259  23.770  0.00  0.00    +0.252 C 
ATOM      2  O   UNL     1       1.249   1.732  24.432  0.00  0.00    -0.471 OA
ENDBRANCH   3   2
ENDBRANCH   9   6
BRANCH  27  29
ATOM     29  C   UNL     1      -4.169  -0.233  24.796  0.00  0.00    +0.054 A 
ATOM     30  C   UNL     1      -3.887  -0.783  25.340  0.00  0.00    +0.008 A 
ATOM     31  C   UNL     1      -3.746  -1.562  25.106  0.00  0.00    +0.037 A 
ATOM     32  C   UNL     1      -3.888  -1.790  24.326  0.00  0.00    +0.139 A 
ATOM     35  C   UNL     1      -4.171  -1.239  23.780  0.00  0.00    +0.037 A 
ATOM     36  C   UNL     1      -4.312  -0.461  24.016  0.00  0.00    +0.008 A 
BRANCH  32  33
ATOM     33  O   UNL     1      -3.747  -2.568  24.091  0.00  0.00    -0.471 OA
ATOM     34  C   UNL     1      -3.248  -3.050  24.538  0.00  0.00    +0.252 C 
ENDBRANCH  32  33
ENDBRANCH  27  29
BRANCH  15  17
ATOM     17  C   UNL     1      -4.593   2.101  25.500  0.00  0.00    +0.262 C 
ATOM     18  O   UNL     1      -4.960   1.806  26.176  0.00  0.00    -0.271 OA
ATOM     19  N   UNL     1      -4.990   2.637  25.014  0.00  0.00    -0.196 NA
BRANCH  19  20
ATOM     20  C   UNL     1      -4.623   2.932  24.338  0.00  0.00    +0.173 C 
ATOM     21  C   UNL     1      -4.446   2.426  23.710  0.00  0.00    +0.033 C 
ATOM     22  C   UNL     1      -4.079   2.722  23.033  0.00  0.00    +0.026 C 
ATOM     23  C   UNL     1      -3.888   3.522  22.982  0.00  0.00    +0.115 C 
ATOM     24  N   UNL     1      -4.065   4.029  23.610  0.00  0.00    -0.204 NA
ATOM     25  C   UNL     1      -4.432   3.734  24.287  0.00  0.00    +0.261 C 
ATOM     26  O   UNL     1      -4.609   4.240  24.914  0.00  0.00    -0.271 OA
ENDBRANCH  19  20
ENDBRANCH  15  17
TORSDOF 6
ENDMDL
MODEL 6
REMARK VINA RESULT:      -9.9      1.444      4.501
REMARK  Name = 
REMARK  6 active torsions:
REMARK  status: ('A' for Active; 'I' for Inactive)
REMARK    1  A    between atoms: O_2  and  C_3
REMARK    2  A    between atoms: C_6  and  C_9
REMARK    3  A    between atoms: C_15  and  C_17
REMARK    4  A    between atoms: N_19  and  C_20
REMARK    5  A    between atoms: C_27  and  C_29
REMARK    6  A    between atoms: C_32  and  O_33
REMARK                            x       y       z     vdW  Elec       q    Type
REMARK                         _______ _______ _______ _____ _____    ______ ____
ROOT
ATOM      9  C   UNL     1      -1.245   0.399  24.554  0.00  0.00    +0.249 C 
ATOM     10  O   UNL     1      -0.889  -0.270  24.226  0.00  0.00    -0.270 OA
ATOM     11  N   UNL     1      -2.065   0.486  24.523  0.00  0.00    -0.272 N 
ATOM     12  C   UNL     1      -2.421   1.154  24.852  0.00  0.00    +0.115 C 
ATOM     13  C   UNL     1      -3.240   1.241  24.820  0.00  0.00    +0.116 C 
ATOM     14  N   UNL     1      -3.704   0.661  24.461  0.00  0.00    -0.266 N 
ATOM     15  C   UNL     1      -3.348  -0.006  24.134  0.00  0.00    +0.174 C 
ATOM     16  C   UNL     1      -2.528  -0.095  24.164  0.00  0.00    +0.123 C 
ATOM     27  C   UNL     1      -4.524   0.750  24.431  0.00  0.00    +0.249 C 
ATOM     28  O   UNL     1      -4.988   0.169  24.071  0.00  0.00    -0.270 OA
ENDROOT
BRANCH   9   6
ATOM      3  C   UNL     1       0.146   2.139  25.631  0.00  0.00    +0.139 A 
ATOM      4  C   UNL     1       0.084   2.111  24.808  0.00  0.00    +0.037 A 
ATOM      5  C   UNL     1      -0.380   1.531  24.449  0.00  0.00    +0.008 A 
ATOM      6  C   UNL     1      -0.782   0.978  24.913  0.00  0.00    +0.054 A 
ATOM      7  C   UNL     1      -0.719   1.007  25.735  0.00  0.00    +0.008 A 
ATOM      8  C   UNL     1      -0.256   1.587  26.094  0.00  0.00    +0.037 A 
BRANCH   3   2
ATOM      1  C   UNL     1       0.563   2.839  26.805  0.00  0.00    +0.252 C 
ATOM      2  O   UNL     1       0.610   2.720  25.990  0.00  0.00    -0.471 OA
ENDBRANCH   3   2
ENDBRANCH   9   6
BRANCH  27  29
ATOM     29  C   UNL     1      -4.880   1.417  24.759  0.00  0.00    +0.054 A 
ATOM     30  C   UNL     1      -4.790   2.152  24.397  0.00  0.00    +0.008 A 
ATOM     31  C   UNL     1      -5.146   2.820  24.725  0.00  0.00    +0.037 A 
ATOM     32  C   UNL     1      -5.592   2.753  25.415  0.00  0.00    +0.139 A 
ATOM     35  C   UNL     1      -5.682   2.016  25.778  0.00  0.00    +0.037 A 
ATOM     36  C   UNL     1      -5.326   1.349  25.449  0.00  0.00    +0.008 A 
BRANCH  32  33
ATOM     33  O   UNL     1      -5.949   3.421  25.744  0.00  0.00    -0.471 OA
ATOM     34  C   UNL     1      -5.547   4.141  25.751  0.00  0.00    +0.252 C 
ENDBRANCH  32  33
ENDBRANCH  27  29
BRANCH  15  17
ATOM     17  C   UNL     1      -3.813  -0.587  23.774  0.00  0.00    +0.262 C 
ATOM     18  O   UNL     1      -4.171  -0.437  23.047  0.00  0.00    -0.271 OA
ATOM     19  N   UNL     1      -3.917  -1.318  24.143  0.00  0.00    -0.196 NA
BRANCH  19  20
ATOM     20  C   UNL     1      -3.558  -1.469  24.870  0.00  0.00    +0.173 C 
ATOM     21  C   UNL     1      -3.788  -1.044  25.540  0.00  0.00    +0.033 C 
ATOM     22  C   UNL     1      -3.429  -1.196  26.267  0.00  0.00    +0.026 C 
ATOM     23  C   UNL     1      -2.840  -1.769  26.325  0.00  0.00    +0.115 C 
ATOM     24  N   UNL     1      -2.609  -2.194  25.655  0.00  0.00    -0.204 NA
ATOM     25  C   UNL     1      -2.968  -2.043  24.928  0.00  0.00    +0.261 C 
ATOM     26  O   UNL     1      -2.738  -2.467  24.259  0.00  0.00    -0.271 OA
ENDBRANCH  19  20
ENDBRANCH  15  17
TORSDOF 6
ENDMDL
MODEL 7
REMARK VINA RESULT:      -9.7      1.593      3.740
REMARK  Name = 
REMARK  6 active torsions:
REMARK  status: ('A' for Active; 'I' for Inactive)
REMARK    1  A    between atoms: O_2  and  C_3
REMARK    2  A    between atoms: C_6  and  C_9
REMARK    3  A    between atoms: C_15  and  C_17
REMARK    4  A    between atoms: N_19  and  C_20
REMARK    5  A    between atoms: C_27  and  C_29
REMARK    6  A    between atoms: C_32  and  O_33
REMARK                            x       y       z     vdW  Elec       q    Type
REMARK                         _______ _______ _______ _____ _____    ______ ____
ROOT
ATOM      9  C   UNL     1      -3.538   0.312  24.275  0.00  0.00    +0.249 C 
ATOM     10  O   UNL     1      -3.572  -0.473  24.021  0.00  0.00    -0.270 OA
ATOM     11  N   UNL     1      -2.821   0.720  24.255  0.00  0.00    -0.272 N 
ATOM     12  C   UNL     1      -2.787   1.505  24.509  0.00  0.00    +0.115 C 
ATOM     13  C   UNL     1      -2.070   1.913  24.490  0.00  0.00    +0.116 C 
ATOM     14  N   UNL     1      -1.388   1.538  24.217  0.00  0.00    -0.266 N 
ATOM     15  C   UNL     1      -1.423   0.754  23.963  0.00  0.00    +0.174 C 
ATOM     16  C   UNL     1      -2.139   0.345  23.982  0.00  0.00    +0.123 C 
ATOM     27  C   UNL     1      -0.672   1.947  24.198  0.00  0.00    +0.249 C 
ATOM     28  O   UNL     1       0.011   1.571  23.925  0.00  0.00    -0.270 OA
ENDROOT
BRANCH   9   6
ATOM      3  C   UNL     1      -5.583   1.438  25.094  0.00  0.00    +0.139 A 
ATOM      4  C   UNL     1      -5.235   1.680  24.386  0.00  0.00    +0.037 A 
ATOM      5  C   UNL     1      -4.553   1.305  24.112  0.00  0.00    +0.008 A 
ATOM      6  C   UNL     1      -4.219   0.687  24.548  0.00  0.00    +0.054 A 
ATOM      7  C   UNL     1      -4.568   0.447  25.255  0.00  0.00    +0.008 A 
ATOM      8  C   UNL     1      -5.250   0.822  25.528  0.00  0.00    +0.037 A 
BRANCH   3   2
ATOM      1  C   UNL     1      -6.204   2.479  25.850  0.00  0.00    +0.252 C 
ATOM      2  O   UNL     1      -6.265   1.814  25.367  0.00  0.00    -0.471 OA
ENDBRANCH   3   2
ENDBRANCH   9   6
BRANCH  27  29
ATOM     29  C   UNL     1      -0.637   2.730  24.452  0.00  0.00    +0.054 A 
ATOM     30  C   UNL     1      -0.534   2.901  25.251  0.00  0.00    +0.008 A 
ATOM     31  C   UNL     1      -0.499   3.685  25.506  0.00  0.00    +0.037 A 
ATOM     32  C   UNL     1      -0.568   4.299  24.959  0.00  0.00    +0.139 A 
ATOM     35  C   UNL     1      -0.672   4.129  24.158  0.00  0.00    +0.037 A 
ATOM     36  C   UNL     1      -0.706   3.344  23.905  0.00  0.00    +0.008 A 
BRANCH  32  33
ATOM     33  O   UNL     1      -0.533   5.084  25.212  0.00  0.00    -0.471 OA
ATOM     34  C   UNL     1      -1.151   5.601  25.037  0.00  0.00    +0.252 C 
ENDBRANCH  32  33
ENDBRANCH  27  29
BRANCH  15  17
ATOM     17  C   UNL     1      -0.740   0.378  23.690  0.00  0.00    +0.262 C 
ATOM     18  O   UNL     1      -0.403   0.606  22.973  0.00  0.00    -0.271 OA
ATOM     19  N   UNL     1      -0.396  -0.226  24.135  0.00  0.00    -0.196 NA
BRANCH  19  20
ATOM     20  C   UNL     1      -0.733  -0.454  24.852  0.00  0.00    +0.173 C 
ATOM     21  C   UNL     1      -0.754   0.076  25.485  0.00  0.00    +0.033 C 
ATOM     22  C   UNL     1      -1.091  -0.153  26.203  0.00  0.00    +0.026 C 
ATOM     23  C   UNL     1      -1.407  -0.909  26.288  0.00  0.00    +0.115 C 
ATOM     24  N   UNL     1      -1.386  -1.439  25.655  0.00  0.00    -0.204 NA
ATOM     25  C   UNL     1      -1.050  -1.211  24.938  0.00  0.00    +0.261 C 
ATOM     26  O   UNL     1      -1.029  -1.740  24.305  0.00  0.00    -0.271 OA
ENDBRANCH  19  20
ENDBRANCH  15  17
TORSDOF 6
ENDMDL
