MODEL 1
REMARK VINA RESULT:     -12.8      0.000      0.000
REMARK  Name = 
REMARK  5 active torsions:
REMARK  status: ('A' for Active; 'I' for Inactive)
REMARK    1  A    between atoms: C_5  and  C_6
REMARK    2  A    between atoms: C_6  and  C_7
REMARK    3  A    between atoms: C_10  and  C_12
REMARK    4  A    between atoms: C_19  and  C_20
REMARK    5  A    between atoms: C_20  and  N_21
REMARK                            x       y       z     vdW  Elec       q    Type
REMARK                         _______ _______ _______ _____ _____    ______ ____
ROOT
ATOM      1  O   UNL     1      -2.818   4.328  25.989  0.00  0.00    -0.220 OA
ATOM      2  C   UNL     1      -3.239   3.738  25.596  0.00  0.00    +0.181 C 
ATOM      3  C   UNL     1      -4.059   3.693  25.677  0.00  0.00    +0.038 C 
ATOM      4  C   UNL     1      -4.480   3.102  25.283  0.00  0.00    +0.033 C 
ATOM      5  C   UNL     1      -4.082   2.557  24.811  0.00  0.00    +0.121 C 
ATOM     18  O   UNL     1      -3.262   2.601  24.730  0.00  0.00    -0.354 OA
ATOM     19  C   UNL     1      -2.841   3.191  25.123  0.00  0.00    +0.167 C 
ENDROOT
BRANCH   5   6
ATOM      6  C   UNL     1      -4.503   1.966  24.417  0.00  0.00    +0.079 C 
BRANCH   6   7
ATOM      7  C   UNL     1      -4.509   1.196  24.714  0.00  0.00    +0.103 A 
ATOM      8  N   UNL     1      -4.857   0.951  25.422  0.00  0.00    -0.081 NA
ATOM      9  O   UNL     1      -4.731   0.140  25.500  0.00  0.00    -0.354 OA
ATOM     10  C   UNL     1      -4.306  -0.117  24.842  0.00  0.00    +0.177 A 
ATOM     11  C   UNL     1      -4.169   0.535  24.356  0.00  0.00    +0.058 A 
BRANCH  10  12
ATOM     12  C   UNL     1      -4.060  -0.891  24.695  0.00  0.00    +0.037 A 
ATOM     13  C   UNL     1      -4.365  -1.305  24.051  0.00  0.00    +0.003 A 
ATOM     14  C   UNL     1      -4.120  -2.080  23.904  0.00  0.00    +0.000 A 
ATOM     15  C   UNL     1      -3.569  -2.439  24.401  0.00  0.00    +0.000 A 
ATOM     16  C   UNL     1      -3.263  -2.024  25.046  0.00  0.00    +0.000 A 
ATOM     17  C   UNL     1      -3.509  -1.250  25.193  0.00  0.00    +0.003 A 
ENDBRANCH  10  12
ENDBRANCH   6   7
ENDBRANCH   5   6
BRANCH  19  20
ATOM     20  C   UNL     1      -2.021   3.236  25.042  0.00  0.00    +0.149 C 
BRANCH  20  21
ATOM     21  N   UNL     1      -1.598   2.588  24.753  0.00  0.00    -0.186 NA
ATOM     22  C   UNL     1      -0.783   2.645  24.640  0.00  0.00    +0.323 C 
ATOM     23  O   UNL     1      -0.390   3.348  24.817  0.00  0.00    -0.251 OA
ATOM     24  N   UNL     1      -0.362   1.998  24.351  0.00  0.00    -0.258 N 
ATOM     25  C   UNL     1       0.454   2.054  24.238  0.00  0.00    +0.127 C 
ATOM     26  C   UNL     1       0.876   1.406  23.949  0.00  0.00    +0.164 C 
ATOM     27  O   UNL     1       0.482   0.703  23.772  0.00  0.00    -0.350 OA
ATOM     28  C   UNL     1      -0.333   0.647  23.885  0.00  0.00    +0.164 C 
ATOM     29  C   UNL     1      -0.754   1.294  24.174  0.00  0.00    +0.127 C 
ENDBRANCH  20  21
ENDBRANCH  19  20
TORSDOF 5
ENDMDL
MODEL 2
REMARK VINA RESULT:     -12.7      1.374      3.540
REMARK  Name = 
REMARK  5 active torsions:
REMARK  status: ('A' for Active; 'I' for Inactive)
REMARK    1  A    between atoms: C_5  and  C_6
REMARK    2  A    between atoms: C_6  and  C_7
REMARK    3  A    between atoms: C_10  and  C_12
REMARK    4  A    between atoms: C_19  and  C_20
REMARK    5  A    between atoms: C_20  and  N_21
REMARK                            x       y       z     vdW  Elec       q    Type
REMARK                         _______ _______ _______ _____ _____    ______ ____
ROOT
ATOM      1  O   UNL     1      -0.600   3.264  24.337  0.00  0.00    -0.220 OA
ATOM      2  C   UNL     1      -0.711   2.518  24.670  0.00  0.00    +0.181 C 
ATOM      3  C   UNL     1      -0.126   1.941  24.592  0.00  0.00    +0.038 C 
ATOM      4  C   UNL     1      -0.237   1.193  24.925  0.00  0.00    +0.033 C 
ATOM      5  C   UNL     1      -0.932   1.024  25.335  0.00  0.00    +0.121 C 
ATOM     18  O   UNL     1      -1.517   1.601  25.413  0.00  0.00    -0.354 OA
ATOM     19  C   UNL     1      -1.406   2.348  25.080  0.00  0.00    +0.167 C 
ENDROOT
BRANCH   5   6
ATOM      6  C   UNL     1      -1.043   0.277  25.668  0.00  0.00    +0.079 C 
BRANCH   6   7
ATOM      7  C   UNL     1      -1.349  -0.338  25.210  0.00  0.00    +0.103 A 
ATOM      8  N   UNL     1      -0.922  -0.808  24.682  0.00  0.00    -0.081 NA
ATOM      9  O   UNL     1      -1.444  -1.350  24.346  0.00  0.00    -0.354 OA
ATOM     10  C   UNL     1      -2.193  -1.216  24.665  0.00  0.00    +0.177 A 
ATOM     11  C   UNL     1      -2.134  -0.590  25.199  0.00  0.00    +0.058 A 
BRANCH  10  12
ATOM     12  C   UNL     1      -2.881  -1.634  24.483  0.00  0.00    +0.037 A 
ATOM     13  C   UNL     1      -2.946  -2.430  24.688  0.00  0.00    +0.003 A 
ATOM     14  C   UNL     1      -3.634  -2.848  24.505  0.00  0.00    +0.000 A 
ATOM     15  C   UNL     1      -4.255  -2.471  24.117  0.00  0.00    +0.000 A 
ATOM     16  C   UNL     1      -4.190  -1.674  23.911  0.00  0.00    +0.000 A 
ATOM     17  C   UNL     1      -3.503  -1.255  24.094  0.00  0.00    +0.003 A 
ENDBRANCH  10  12
ENDBRANCH   6   7
ENDBRANCH   5   6
BRANCH  19  20
ATOM     20  C   UNL     1      -1.990   2.925  25.158  0.00  0.00    +0.149 C 
BRANCH  20  21
ATOM     21  N   UNL     1      -2.787   2.714  25.117  0.00  0.00    -0.186 NA
ATOM     22  C   UNL     1      -3.368   3.246  25.362  0.00  0.00    +0.323 C 
ATOM     23  O   UNL     1      -3.152   3.989  25.647  0.00  0.00    -0.251 OA
ATOM     24  N   UNL     1      -4.164   3.035  25.321  0.00  0.00    -0.258 N 
ATOM     25  C   UNL     1      -4.745   3.567  25.566  0.00  0.00    +0.127 C 
ATOM     26  C   UNL     1      -5.542   3.356  25.525  0.00  0.00    +0.164 C 
ATOM     27  O   UNL     1      -5.757   2.612  25.239  0.00  0.00    -0.350 OA
ATOM     28  C   UNL     1      -5.176   2.080  24.994  0.00  0.00    +0.164 C 
ATOM     29  C   UNL     1      -4.380   2.291  25.035  0.00  0.00    +0.127 C 
ENDBRANCH  20  21
ENDBRANCH  19  20
TORSDOF 5
ENDMDL
MODEL 3
REMARK VINA RESULT:     -12.3      1.163      1.535
REMARK  Name = 
REMARK  5 active torsions:
REMARK  status: ('A' for Active; 'I' for Inactive)
REMARK    1  A    between atoms: C_5  and  C_6
REMARK    2  A    between atoms: C_6  and  C_7
REMARK    3  A    between atoms: C_10  and  C_12
REMARK    4  A    between atoms: C_19  and  C_20
REMARK    5  A    between atoms: C_20  and  N_21
REMARK                            x       y       z     vdW  Elec       q    Type
REMARK                         _______ _______ _______ _____ _____    ______ ____
ROOT
ATOM      1  O   UNL     1      -4.772   4.037  25.843  0.00  0.00    -0.220 OA
ATOM      2  C   UNL     1      -4.806   3.300  25.477  0.00  0.00    +0.181 C 
ATOM      3  C   UNL     1      -5.516   2.879  25.463  0.00  0.00    +0.038 C 
ATOM      4  C   UNL     1      -5.550   2.140  25.096  0.00  0.00    +0.033 C 
ATOM      5  C   UNL     1      -4.875   1.823  24.744  0.00  0.00    +0.121 C 
ATOM     18  O   UNL     1      -4.166   2.244  24.758  0.00  0.00    -0.354 OA
ATOM     19  C   UNL     1      -4.131   2.982  25.124  0.00  0.00    +0.167 C 
ENDROOT
BRANCH   5   6
ATOM      6  C   UNL     1      -4.909   1.084  24.377  0.00  0.00    +0.079 C 
BRANCH   6   7
ATOM      7  C   UNL     1      -4.558   0.429  24.735  0.00  0.00    +0.103 A 
ATOM      8  N   UNL     1      -4.651   0.198  25.522  0.00  0.00    -0.081 NA
ATOM      9  O   UNL     1      -4.203  -0.483  25.642  0.00  0.00    -0.354 OA
ATOM     10  C   UNL     1      -3.832  -0.674  24.929  0.00  0.00    +0.177 A 
ATOM     11  C   UNL     1      -4.052  -0.110  24.369  0.00  0.00    +0.058 A 
BRANCH  10  12
ATOM     12  C   UNL     1      -3.330  -1.316  24.800  0.00  0.00    +0.037 A 
ATOM     13  C   UNL     1      -2.515  -1.200  24.756  0.00  0.00    +0.003 A 
ATOM     14  C   UNL     1      -2.013  -1.842  24.627  0.00  0.00    +0.000 A 
ATOM     15  C   UNL     1      -2.327  -2.600  24.542  0.00  0.00    +0.000 A 
ATOM     16  C   UNL     1      -3.143  -2.717  24.587  0.00  0.00    +0.000 A 
ATOM     17  C   UNL     1      -3.645  -2.074  24.716  0.00  0.00    +0.003 A 
ENDBRANCH  10  12
ENDBRANCH   6   7
ENDBRANCH   5   6
BRANCH  19  20
ATOM     20  C   UNL     1      -3.422   3.403  25.138  0.00  0.00    +0.149 C 
BRANCH  20  21
ATOM     21  N   UNL     1      -2.712   3.010  25.290  0.00  0.00    -0.186 NA
ATOM     22  C   UNL     1      -1.995   3.415  25.228  0.00  0.00    +0.323 C 
ATOM     23  O   UNL     1      -1.989   4.211  25.013  0.00  0.00    -0.251 OA
ATOM     24  N   UNL     1      -1.286   3.023  25.380  0.00  0.00    -0.258 N 
ATOM     25  C   UNL     1      -0.570   3.427  25.318  0.00  0.00    +0.127 C 
ATOM     26  C   UNL     1       0.140   3.034  25.471  0.00  0.00    +0.164 C 
ATOM     27  O   UNL     1       0.133   2.238  25.685  0.00  0.00    -0.350 OA
ATOM     28  C   UNL     1      -0.584   1.834  25.747  0.00  0.00    +0.164 C 
ATOM     29  C   UNL     1      -1.293   2.226  25.595  0.00  0.00    +0.127 C 
ENDBRANCH  20  21
ENDBRANCH  19  20
TORSDOF 5
ENDMDL
MODEL 4
REMARK VINA RESULT:     -12.1      1.352      3.792
REMARK  Name = 
REMARK  5 active torsions:
REMARK  status: ('A' for Active; 'I' for Inactive)
REMARK    1  A    between atoms: C_5  and  C_6
REMARK    2  A    between atoms: C_6  and  C_7
REMARK    3  A    between atoms: C_10  and  C_12
REMARK    4  A    between atoms: C_19  and  C_20
REMARK    5  A    between atoms: C_20  and  N_21
REMARK                            x       y       z     vdW  Elec       q    Type
REMARK                         _______ _______ _______ _____ _____    ______ ____
ROOT
ATOM      1  O   UNL     1      -1.397  -2.628  24.847  0.00  0.00    -0.220 OA
ATOM      2  C   UNL     1      -2.071  -2.185  24.675  0.00  0.00    +0.181 C 
ATOM      3  C   UNL     1      -2.819  -2.526  24.747  0.00  0.00    +0.038 C 
ATOM      4  C   UNL     1      -3.493  -2.083  24.575  0.00  0.00    +0.033 C 
ATOM      5  C   UNL     1      -3.419  -1.298  24.332  0.00  0.00    +0.121 C 
ATOM     18  O   UNL     1      -2.672  -0.956  24.260  0.00  0.00    -0.354 OA
ATOM     19  C   UNL     1      -1.998  -1.400  24.432  0.00  0.00    +0.167 C 
ENDROOT
BRANCH   5   6
ATOM      6  C   UNL     1      -4.094  -0.854  24.160  0.00  0.00    +0.079 C 
BRANCH   6   7
ATOM      7  C   UNL     1      -4.308  -0.223  24.647  0.00  0.00    +0.103 A 
ATOM      8  N   UNL     1      -4.484  -0.270  25.452  0.00  0.00    -0.081 NA
ATOM      9  O   UNL     1      -4.668   0.489  25.716  0.00  0.00    -0.354 OA
ATOM     10  C   UNL     1      -4.607   1.004  25.075  0.00  0.00    +0.177 A 
ATOM     11  C   UNL     1      -4.384   0.564  24.414  0.00  0.00    +0.058 A 
BRANCH  10  12
ATOM     12  C   UNL     1      -4.744   1.818  25.092  0.00  0.00    +0.037 A 
ATOM     13  C   UNL     1      -5.424   2.115  25.451  0.00  0.00    +0.003 A 
ATOM     14  C   UNL     1      -5.561   2.929  25.468  0.00  0.00    +0.000 A 
ATOM     15  C   UNL     1      -5.017   3.445  25.126  0.00  0.00    +0.000 A 
ATOM     16  C   UNL     1      -4.336   3.149  24.766  0.00  0.00    +0.000 A 
ATOM     17  C   UNL     1      -4.199   2.335  24.749  0.00  0.00    +0.003 A 
ENDBRANCH  10  12
ENDBRANCH   6   7
ENDBRANCH   5   6
BRANCH  19  20
ATOM     20  C   UNL     1      -1.251  -1.058  24.361  0.00  0.00    +0.149 C 
BRANCH  20  21
ATOM     21  N   UNL     1      -1.101  -0.318  24.694  0.00  0.00    -0.186 NA
ATOM     22  C   UNL     1      -0.505   0.161  24.385  0.00  0.00    +0.323 C 
ATOM     23  O   UNL     1      -0.057  -0.101  23.743  0.00  0.00    -0.251 OA
ATOM     24  N   UNL     1      -0.356   0.900  24.718  0.00  0.00    -0.258 N 
ATOM     25  C   UNL     1       0.241   1.379  24.410  0.00  0.00    +0.127 C 
ATOM     26  C   UNL     1       0.390   2.120  24.743  0.00  0.00    +0.164 C 
ATOM     27  O   UNL     1      -0.058   2.380  25.385  0.00  0.00    -0.350 OA
ATOM     28  C   UNL     1      -0.654   1.901  25.694  0.00  0.00    +0.164 C 
ATOM     29  C   UNL     1      -0.803   1.162  25.361  0.00  0.00    +0.127 C 
ENDBRANCH  20  21
ENDBRANCH  19  20
TORSDOF 5
ENDMDL
MODEL 5
REMARK VINA RESULT:     -11.8      1.488      4.339
REMARK  Name = 
REMARK  5 active torsions:
REMARK  status: ('A' for Active; 'I' for Inactive)
REMARK    1  A    between atoms: C_5  and  C_6
REMARK    2  A    between atoms: C_6  and  C_7
REMARK    3  A    between atoms: C_10  and  C_12
REMARK    4  A    between atoms: C_19  and  C_20
REMARK    5  A    between atoms: C_20  and  N_21
REMARK                            x       y       z     vdW  Elec       q    Type
REMARK                         _______ _______ _______ _____ _____    ______ ____
ROOT
ATOM      1  O   UNL     1       0.347   0.005  23.584  0.00  0.00    -0.220 OA
ATOM      2  C   UNL     1      -0.081   0.571  24.004  0.00  0.00    +0.181 C 
ATOM      3  C   UNL     1       0.102   1.371  23.923  0.00  0.00    +0.038 C 
ATOM      4  C   UNL     1      -0.327   1.937  24.344  0.00  0.00    +0.033 C 
ATOM      5  C   UNL     1      -0.939   1.702  24.845  0.00  0.00    +0.121 C 
ATOM     18  O   UNL     1      -1.122   0.902  24.926  0.00  0.00    -0.354 OA
ATOM     19  C   UNL     1      -0.693   0.337  24.505  0.00  0.00    +0.167 C 
ENDROOT
BRANCH   5   6
ATOM      6  C   UNL     1      -1.368   2.268  25.266  0.00  0.00    +0.079 C 
BRANCH   6   7
ATOM      7  C   UNL     1      -2.108   2.511  24.994  0.00  0.00    +0.103 A 
ATOM      8  N   UNL     1      -2.251   2.973  24.324  0.00  0.00    -0.081 NA
ATOM      9  O   UNL     1      -3.066   3.082  24.260  0.00  0.00    -0.354 OA
ATOM     10  C   UNL     1      -3.426   2.689  24.890  0.00  0.00    +0.177 A 
ATOM     11  C   UNL     1      -2.834   2.336  25.342  0.00  0.00    +0.058 A 
BRANCH  10  12
ATOM     12  C   UNL     1      -4.237   2.654  25.039  0.00  0.00    +0.037 A 
ATOM     13  C   UNL     1      -4.676   2.005  24.784  0.00  0.00    +0.003 A 
ATOM     14  C   UNL     1      -5.487   1.971  24.934  0.00  0.00    +0.000 A 
ATOM     15  C   UNL     1      -5.859   2.586  25.339  0.00  0.00    +0.000 A 
ATOM     16  C   UNL     1      -5.419   3.236  25.594  0.00  0.00    +0.000 A 
ATOM     17  C   UNL     1      -4.608   3.271  25.444  0.00  0.00    +0.003 A 
ENDBRANCH  10  12
ENDBRANCH   6   7
ENDBRANCH   5   6
BRANCH  19  20
ATOM     20  C   UNL     1      -0.876  -0.464  24.586  0.00  0.00    +0.149 C 
BRANCH  20  21
ATOM     21  N   UNL     1      -1.650  -0.725  24.461  0.00  0.00    -0.186 NA
ATOM     22  C   UNL     1      -1.851  -1.510  24.620  0.00  0.00    +0.323 C 
ATOM     23  O   UNL     1      -1.279  -2.032  24.903  0.00  0.00    -0.251 OA
ATOM     24  N   UNL     1      -2.623  -1.770  24.494  0.00  0.00    -0.258 N 
ATOM     25  C   UNL     1      -2.824  -2.555  24.653  0.00  0.00    +0.127 C 
ATOM     26  C   UNL     1      -3.597  -2.816  24.528  0.00  0.00    +0.164 C 
ATOM     27  O   UNL     1      -4.168  -2.293  24.244  0.00  0.00    -0.350 OA
ATOM     28  C   UNL     1      -3.967  -1.508  24.086  0.00  0.00    +0.164 C 
ATOM     29  C   UNL     1      -3.195  -1.248  24.211  0.00  0.00    +0.127 C 
ENDBRANCH  20  21
ENDBRANCH  19  20
TORSDOF 5
ENDMDL
MODEL 6
REMARK VINA RESULT:      -8.9     15.656     18.032
REMARK  Name = 
REMARK  5 active torsions:
REMARK  status: ('A' for Active; 'I' for Inactive)
REMARK    1  A    between atoms: C_5  and  C_6
REMARK    2  A    between atoms: C_6  and  C_7
REMARK    3  A    between atoms: C_10  and  C_12
REMARK    4  A    between atoms: C_19  and  C_20
REMARK    5  A    between atoms: C_20  and  N_21
REMARK                            x       y       z     vdW  Elec       q    Type
REMARK                         _______ _______ _______ _____ _____    ______ ____
ROOT
ATOM      1  O   UNL     1      11.867   6.367  22.165  0.00  0.00    -0.220 OA
ATOM      2  C   UNL     1      11.716   6.986  21.643  0.00  0.00    +0.181 C 
ATOM      3  C   UNL     1      10.945   7.134  21.389  0.00  0.00    +0.038 C 
ATOM      4  C   UNL     1      10.794   7.754  20.865  0.00  0.00    +0.033 C 
ATOM      5  C   UNL     1      11.415   8.226  20.596  0.00  0.00    +0.121 C 
ATOM     18  O   UNL     1      12.186   8.079  20.850  0.00  0.00    -0.354 OA
ATOM     19  C   UNL     1      12.336   7.459  21.373  0.00  0.00    +0.167 C 
ENDROOT
BRANCH   5   6
ATOM      6  C   UNL     1      11.264   8.846  20.073  0.00  0.00    +0.079 C 
BRANCH   6   7
ATOM      7  C   UNL     1      11.314   8.721  19.259  0.00  0.00    +0.103 A 
ATOM      8  N   UNL     1      10.744   8.353  18.789  0.00  0.00    -0.081 NA
ATOM      9  O   UNL     1      11.020   8.346  18.012  0.00  0.00    -0.354 OA
ATOM     10  C   UNL     1      11.761   8.710  18.002  0.00  0.00    +0.177 A 
ATOM     11  C   UNL     1      11.942   8.941  18.772  0.00  0.00    +0.058 A 
BRANCH  10  12
ATOM     12  C   UNL     1      12.237   8.822  17.337  0.00  0.00    +0.037 A 
ATOM     13  C   UNL     1      13.057   8.775  17.404  0.00  0.00    +0.003 A 
ATOM     14  C   UNL     1      13.533   8.887  16.739  0.00  0.00    +0.000 A 
ATOM     15  C   UNL     1      13.188   9.046  16.007  0.00  0.00    +0.000 A 
ATOM     16  C   UNL     1      12.367   9.093  15.940  0.00  0.00    +0.000 A 
ATOM     17  C   UNL     1      11.891   8.981  16.605  0.00  0.00    +0.003 A 
ENDBRANCH  10  12
ENDBRANCH   6   7
ENDBRANCH   5   6
BRANCH  19  20
ATOM     20  C   UNL     1      13.108   7.312  21.626  0.00  0.00    +0.149 C 
BRANCH  20  21
ATOM     21  N   UNL     1      13.697   7.136  21.075  0.00  0.00    -0.186 NA
ATOM     22  C   UNL     1      14.491   7.158  21.299  0.00  0.00    +0.323 C 
ATOM     23  O   UNL     1      14.695   7.354  22.074  0.00  0.00    -0.251 OA
ATOM     24  N   UNL     1      15.079   6.983  20.749  0.00  0.00    -0.258 N 
ATOM     25  C   UNL     1      15.873   7.004  20.973  0.00  0.00    +0.127 C 
ATOM     26  C   UNL     1      16.462   6.829  20.422  0.00  0.00    +0.164 C 
ATOM     27  O   UNL     1      16.257   6.632  19.648  0.00  0.00    -0.350 OA
ATOM     28  C   UNL     1      15.463   6.611  19.424  0.00  0.00    +0.164 C 
ATOM     29  C   UNL     1      14.875   6.786  19.974  0.00  0.00    +0.127 C 
ENDBRANCH  20  21
ENDBRANCH  19  20
TORSDOF 5
ENDMDL
