MODEL 1
REMARK VINA RESULT:     -10.0      0.000      0.000
REMARK  Name = 
REMARK  8 active torsions:
REMARK  status: ('A' for Active; 'I' for Inactive)
REMARK    1  A    between atoms: O_2  and  C_3
REMARK    2  A    between atoms: C_8  and  N_9
REMARK    3  A    between atoms: C_15  and  C_17
REMARK    4  A    between atoms: C_17  and  C_18
REMARK    5  A    between atoms: C_20  and  C_21
REMARK    6  A    between atoms: C_21  and  N_22
REMARK    7  A    between atoms: C_23  and  C_25
REMARK    8  A    between atoms: C_28  and  N_31
REMARK                            x       y       z     vdW  Elec       q    Type
REMARK                         _______ _______ _______ _____ _____    ______ ____
ROOT
ATOM     18  C   UNL     1      -0.192   1.510  24.637  0.00  0.00    +0.157 C 
ATOM     19  O   UNL     1      -0.835   1.997  24.812  0.00  0.00    -0.351 OA
ATOM     20  C   UNL     1      -0.635   2.768  24.598  0.00  0.00    +0.170 C 
ATOM     34  C   UNL     1       0.131   2.757  24.290  0.00  0.00    +0.213 C 
ATOM     35  O   UNL     1       0.549   3.410  24.008  0.00  0.00    -0.218 OA
ATOM     36  C   UNL     1       0.404   1.979  24.315  0.00  0.00    +0.212 C 
ATOM     37  O   UNL     1       1.144   1.717  24.061  0.00  0.00    -0.218 OA
ENDROOT
BRANCH  18  17
ATOM     17  C   UNL     1      -0.154   0.695  24.763  0.00  0.00    +0.117 C 
BRANCH  17  15
ATOM      9  N   UNL     1      -2.320  -1.344  24.755  0.00  0.00    -0.302 N 
ATOM     10  C   UNL     1      -1.860  -0.995  24.166  0.00  0.00    +0.112 C 
ATOM     11  C   UNL     1      -1.291  -0.431  24.365  0.00  0.00    +0.115 C 
ATOM     12  N   UNL     1      -1.182  -0.217  25.153  0.00  0.00    -0.276 N 
ATOM     13  C   UNL     1      -1.641  -0.566  25.744  0.00  0.00    +0.115 C 
ATOM     14  C   UNL     1      -2.210  -1.129  25.545  0.00  0.00    +0.112 C 
ATOM     15  C   UNL     1      -0.613   0.346  25.353  0.00  0.00    +0.228 C 
ATOM     16  O   UNL     1      -0.503   0.561  26.142  0.00  0.00    -0.275 OA
BRANCH   9   8
ATOM      3  C   UNL     1      -3.643  -1.666  24.323  0.00  0.00    +0.152 A 
ATOM      4  C   UNL     1      -4.212  -2.230  24.124  0.00  0.00    +0.038 A 
ATOM      5  C   UNL     1      -4.027  -3.034  24.158  0.00  0.00    +0.003 A 
ATOM      6  C   UNL     1      -3.272  -3.273  24.391  0.00  0.00    +0.001 A 
ATOM      7  C   UNL     1      -2.704  -2.710  24.590  0.00  0.00    +0.018 A 
ATOM      8  C   UNL     1      -2.889  -1.907  24.556  0.00  0.00    +0.082 A 
BRANCH   3   2
ATOM      1  C   UNL     1      -4.596  -0.624  24.104  0.00  0.00    +0.253 C 
ATOM      2  O   UNL     1      -3.828  -0.864  24.289  0.00  0.00    -0.470 OA
ENDBRANCH   3   2
ENDBRANCH   9   8
ENDBRANCH  17  15
ENDBRANCH  18  17
BRANCH  20  21
ATOM     21  C   UNL     1      -1.116   3.434  24.677  0.00  0.00    +0.148 C 
BRANCH  21  22
ATOM     22  N   UNL     1      -1.925   3.344  24.811  0.00  0.00    -0.199 NA
ATOM     23  C   UNL     1      -2.380   3.995  25.037  0.00  0.00    +0.265 C 
ATOM     24  O   UNL     1      -2.026   4.733  25.129  0.00  0.00    -0.268 OA
BRANCH  23  25
ATOM     25  C   UNL     1      -3.189   3.905  25.171  0.00  0.00    +0.055 A 
ATOM     26  C   UNL     1      -3.483   3.916  25.942  0.00  0.00    +0.006 A 
ATOM     27  C   UNL     1      -4.291   3.827  26.077  0.00  0.00    +0.015 A 
ATOM     28  C   UNL     1      -4.807   3.725  25.441  0.00  0.00    +0.048 A 
ATOM     29  C   UNL     1      -4.513   3.714  24.670  0.00  0.00    +0.015 A 
ATOM     30  C   UNL     1      -3.705   3.804  24.536  0.00  0.00    +0.006 A 
BRANCH  28  31
ATOM     31  N   UNL     1      -5.615   3.636  25.576  0.00  0.00    -0.304 N 
ATOM     32  C   UNL     1      -5.935   2.882  25.682  0.00  0.00    +0.112 C 
ATOM     33  C   UNL     1      -6.106   4.299  25.604  0.00  0.00    +0.112 C 
ENDBRANCH  28  31
ENDBRANCH  23  25
ENDBRANCH  21  22
ENDBRANCH  20  21
TORSDOF 8
ENDMDL
MODEL 2
REMARK VINA RESULT:      -9.6      1.562      4.578
REMARK  Name = 
REMARK  8 active torsions:
REMARK  status: ('A' for Active; 'I' for Inactive)
REMARK    1  A    between atoms: O_2  and  C_3
REMARK    2  A    between atoms: C_8  and  N_9
REMARK    3  A    between atoms: C_15  and  C_17
REMARK    4  A    between atoms: C_17  and  C_18
REMARK    5  A    between atoms: C_20  and  C_21
REMARK    6  A    between atoms: C_21  and  N_22
REMARK    7  A    between atoms: C_23  and  C_25
REMARK    8  A    between atoms: C_28  and  N_31
REMARK                            x       y       z     vdW  Elec       q    Type
REMARK                         _______ _______ _______ _____ _____    ______ ____
ROOT
ATOM     18  C   UNL     1      -2.442   3.425  25.080  0.00  0.00    +0.157 C 
ATOM     19  O   UNL     1      -2.810   2.687  25.038  0.00  0.00    -0.351 OA
ATOM     20  C   UNL     1      -3.620   2.801  25.138  0.00  0.00    +0.170 C 
ATOM     34  C   UNL     1      -3.754   3.609  25.241  0.00  0.00    +0.213 C 
ATOM     35  O   UNL     1      -4.488   3.967  25.359  0.00  0.00    -0.218 OA
ATOM     36  C   UNL     1      -3.026   3.994  25.205  0.00  0.00    +0.212 C 
ATOM     37  O   UNL     1      -2.903   4.807  25.281  0.00  0.00    -0.218 OA
ENDROOT
BRANCH  18  17
ATOM     17  C   UNL     1      -1.633   3.569  25.009  0.00  0.00    +0.117 C 
BRANCH  17  15
ATOM      9  N   UNL     1       0.387   1.568  24.132  0.00  0.00    -0.302 N 
ATOM     10  C   UNL     1      -0.154   2.047  23.734  0.00  0.00    +0.112 C 
ATOM     11  C   UNL     1      -0.647   2.554  24.159  0.00  0.00    +0.115 C 
ATOM     12  N   UNL     1      -0.599   2.582  24.982  0.00  0.00    -0.276 N 
ATOM     13  C   UNL     1      -0.058   2.103  25.381  0.00  0.00    +0.115 C 
ATOM     14  C   UNL     1       0.435   1.596  24.956  0.00  0.00    +0.112 C 
ATOM     15  C   UNL     1      -1.092   3.089  25.406  0.00  0.00    +0.228 C 
ATOM     16  O   UNL     1      -1.044   3.117  26.230  0.00  0.00    -0.275 OA
BRANCH   9   8
ATOM      3  C   UNL     1       0.628   0.296  23.527  0.00  0.00    +0.152 A 
ATOM      4  C   UNL     1       1.121  -0.211  23.102  0.00  0.00    +0.038 A 
ATOM      5  C   UNL     1       1.866   0.047  22.858  0.00  0.00    +0.003 A 
ATOM      6  C   UNL     1       2.118   0.811  23.039  0.00  0.00    +0.001 A 
ATOM      7  C   UNL     1       1.625   1.318  23.464  0.00  0.00    +0.018 A 
ATOM      8  C   UNL     1       0.880   1.061  23.707  0.00  0.00    +0.082 A 
BRANCH   3   2
ATOM      1  C   UNL     1      -0.321  -0.757  23.702  0.00  0.00    +0.253 C 
ATOM      2  O   UNL     1      -0.117   0.039  23.770  0.00  0.00    -0.470 OA
ENDBRANCH   3   2
ENDBRANCH   9   8
ENDBRANCH  17  15
ENDBRANCH  18  17
BRANCH  20  21
ATOM     21  C   UNL     1      -4.197   2.210  25.135  0.00  0.00    +0.148 C 
BRANCH  21  22
ATOM     22  N   UNL     1      -3.982   1.426  25.001  0.00  0.00    -0.199 NA
ATOM     23  C   UNL     1      -4.557   0.833  25.011  0.00  0.00    +0.265 C 
ATOM     24  O   UNL     1      -5.345   1.027  25.155  0.00  0.00    -0.268 OA
BRANCH  23  25
ATOM     25  C   UNL     1      -4.342   0.049  24.877  0.00  0.00    +0.055 A 
ATOM     26  C   UNL     1      -4.026  -0.403  25.492  0.00  0.00    +0.006 A 
ATOM     27  C   UNL     1      -3.811  -1.188  25.359  0.00  0.00    +0.015 A 
ATOM     28  C   UNL     1      -3.912  -1.522  24.611  0.00  0.00    +0.048 A 
ATOM     29  C   UNL     1      -4.228  -1.071  23.996  0.00  0.00    +0.015 A 
ATOM     30  C   UNL     1      -4.443  -0.286  24.130  0.00  0.00    +0.006 A 
BRANCH  28  31
ATOM     31  N   UNL     1      -3.697  -2.307  24.478  0.00  0.00    -0.304 N 
ATOM     32  C   UNL     1      -3.188  -2.690  25.002  0.00  0.00    +0.112 C 
ATOM     33  C   UNL     1      -3.991  -2.710  23.820  0.00  0.00    +0.112 C 
ENDBRANCH  28  31
ENDBRANCH  23  25
ENDBRANCH  21  22
ENDBRANCH  20  21
TORSDOF 8
ENDMDL
MODEL 3
REMARK VINA RESULT:      -9.4      0.964      1.393
REMARK  Name = 
REMARK  8 active torsions:
REMARK  status: ('A' for Active; 'I' for Inactive)
REMARK    1  A    between atoms: O_2  and  C_3
REMARK    2  A    between atoms: C_8  and  N_9
REMARK    3  A    between atoms: C_15  and  C_17
REMARK    4  A    between atoms: C_17  and  C_18
REMARK    5  A    between atoms: C_20  and  C_21
REMARK    6  A    between atoms: C_21  and  N_22
REMARK    7  A    between atoms: C_23  and  C_25
REMARK    8  A    between atoms: C_28  and  N_31
REMARK                            x       y       z     vdW  Elec       q    Type
REMARK                         _______ _______ _______ _____ _____    ______ ____
ROOT
ATOM     18  C   UNL     1      -0.460   1.968  25.350  0.00  0.00    +0.157 C 
ATOM     19  O   UNL     1      -1.234   2.193  25.172  0.00  0.00    -0.351 OA
ATOM     20  C   UNL     1      -1.297   3.007  25.292  0.00  0.00    +0.170 C 
ATOM     34  C   UNL     1      -0.562   3.285  25.544  0.00  0.00    +0.213 C 
ATOM     35  O   UNL     1      -0.376   4.068  25.727  0.00  0.00    -0.218 OA
ATOM     36  C   UNL     1      -0.045   2.643  25.580  0.00  0.00    +0.212 C 
ATOM     37  O   UNL     1       0.748   2.671  25.806  0.00  0.00    -0.218 OA
ENDROOT
BRANCH  18  17
ATOM     17  C   UNL     1      -0.156   1.203  25.306  0.00  0.00    +0.117 C 
BRANCH  17  15
ATOM      9  N   UNL     1      -1.751  -1.211  24.614  0.00  0.00    -0.302 N 
ATOM     10  C   UNL     1      -1.654  -0.767  25.302  0.00  0.00    +0.112 C 
ATOM     11  C   UNL     1      -1.155  -0.110  25.304  0.00  0.00    +0.115 C 
ATOM     12  N   UNL     1      -0.752   0.102  24.616  0.00  0.00    -0.276 N 
ATOM     13  C   UNL     1      -0.848  -0.341  23.927  0.00  0.00    +0.115 C 
ATOM     14  C   UNL     1      -1.347  -0.998  23.926  0.00  0.00    +0.112 C 
ATOM     15  C   UNL     1      -0.253   0.759  24.618  0.00  0.00    +0.228 C 
ATOM     16  O   UNL     1       0.151   0.972  23.930  0.00  0.00    -0.275 OA
BRANCH   9   8
ATOM      3  C   UNL     1      -3.059  -1.770  24.479  0.00  0.00    +0.152 A 
ATOM      4  C   UNL     1      -3.558  -2.427  24.478  0.00  0.00    +0.038 A 
ATOM      5  C   UNL     1      -3.249  -3.181  24.610  0.00  0.00    +0.003 A 
ATOM      6  C   UNL     1      -2.441  -3.277  24.743  0.00  0.00    +0.001 A 
ATOM      7  C   UNL     1      -1.942  -2.621  24.744  0.00  0.00    +0.018 A 
ATOM      8  C   UNL     1      -2.250  -1.868  24.612  0.00  0.00    +0.082 A 
BRANCH   3   2
ATOM      1  C   UNL     1      -4.168  -0.924  24.170  0.00  0.00    +0.253 C 
ATOM      2  O   UNL     1      -3.368  -1.017  24.348  0.00  0.00    -0.470 OA
ENDBRANCH   3   2
ENDBRANCH   9   8
ENDBRANCH  17  15
ENDBRANCH  18  17
BRANCH  20  21
ATOM     21  C   UNL     1      -1.975   3.463  25.179  0.00  0.00    +0.148 C 
BRANCH  21  22
ATOM     22  N   UNL     1      -2.720   3.125  25.280  0.00  0.00    -0.199 NA
ATOM     23  C   UNL     1      -3.389   3.502  24.976  0.00  0.00    +0.265 C 
ATOM     24  O   UNL     1      -3.311   4.216  24.570  0.00  0.00    -0.268 OA
BRANCH  23  25
ATOM     25  C   UNL     1      -4.134   3.164  25.077  0.00  0.00    +0.055 A 
ATOM     26  C   UNL     1      -4.407   2.599  24.540  0.00  0.00    +0.006 A 
ATOM     27  C   UNL     1      -5.152   2.261  24.640  0.00  0.00    +0.015 A 
ATOM     28  C   UNL     1      -5.626   2.486  25.278  0.00  0.00    +0.048 A 
ATOM     29  C   UNL     1      -5.353   3.051  25.815  0.00  0.00    +0.015 A 
ATOM     30  C   UNL     1      -4.607   3.389  25.713  0.00  0.00    +0.006 A 
BRANCH  28  31
ATOM     31  N   UNL     1      -6.371   2.148  25.378  0.00  0.00    -0.304 N 
ATOM     32  C   UNL     1      -6.845   1.992  24.721  0.00  0.00    +0.112 C 
ATOM     33  C   UNL     1      -6.643   1.965  26.136  0.00  0.00    +0.112 C 
ENDBRANCH  28  31
ENDBRANCH  23  25
ENDBRANCH  21  22
ENDBRANCH  20  21
TORSDOF 8
ENDMDL
MODEL 4
REMARK VINA RESULT:      -9.4      1.046      4.825
REMARK  Name = 
REMARK  8 active torsions:
REMARK  status: ('A' for Active; 'I' for Inactive)
REMARK    1  A    between atoms: O_2  and  C_3
REMARK    2  A    between atoms: C_8  and  N_9
REMARK    3  A    between atoms: C_15  and  C_17
REMARK    4  A    between atoms: C_17  and  C_18
REMARK    5  A    between atoms: C_20  and  C_21
REMARK    6  A    between atoms: C_21  and  N_22
REMARK    7  A    between atoms: C_23  and  C_25
REMARK    8  A    between atoms: C_28  and  N_31
REMARK                            x       y       z     vdW  Elec       q    Type
REMARK                         _______ _______ _______ _____ _____    ______ ____
ROOT
ATOM     18  C   UNL     1      -0.450   2.387  24.489  0.00  0.00    +0.157 C 
ATOM     19  O   UNL     1      -0.673   1.620  24.698  0.00  0.00    -0.351 OA
ATOM     20  C   UNL     1      -0.071   1.108  24.464  0.00  0.00    +0.170 C 
ATOM     34  C   UNL     1       0.523   1.557  24.109  0.00  0.00    +0.213 C 
ATOM     35  O   UNL     1       1.228   1.266  23.794  0.00  0.00    -0.218 OA
ATOM     36  C   UNL     1       0.289   2.347  24.124  0.00  0.00    +0.212 C 
ATOM     37  O   UNL     1       0.718   2.987  23.827  0.00  0.00    -0.218 OA
ENDROOT
BRANCH  18  17
ATOM     17  C   UNL     1      -0.890   3.073  24.620  0.00  0.00    +0.117 C 
BRANCH  17  15
ATOM      9  N   UNL     1      -3.739   3.379  25.420  0.00  0.00    -0.302 N 
ATOM     10  C   UNL     1      -3.356   3.267  24.698  0.00  0.00    +0.112 C 
ATOM     11  C   UNL     1      -2.534   3.202  24.672  0.00  0.00    +0.115 C 
ATOM     12  N   UNL     1      -2.095   3.250  25.368  0.00  0.00    -0.276 N 
ATOM     13  C   UNL     1      -2.477   3.363  26.091  0.00  0.00    +0.115 C 
ATOM     14  C   UNL     1      -3.299   3.428  26.117  0.00  0.00    +0.112 C 
ATOM     15  C   UNL     1      -1.273   3.185  25.342  0.00  0.00    +0.228 C 
ATOM     16  O   UNL     1      -0.833   3.234  26.039  0.00  0.00    -0.275 OA
BRANCH   9   8
ATOM      3  C   UNL     1      -5.029   2.765  25.423  0.00  0.00    +0.152 A 
ATOM      4  C   UNL     1      -5.851   2.829  25.449  0.00  0.00    +0.038 A 
ATOM      5  C   UNL     1      -6.205   3.574  25.497  0.00  0.00    +0.003 A 
ATOM      6  C   UNL     1      -5.737   4.252  25.520  0.00  0.00    +0.001 A 
ATOM      7  C   UNL     1      -4.915   4.187  25.494  0.00  0.00    +0.018 A 
ATOM      8  C   UNL     1      -4.561   3.444  25.446  0.00  0.00    +0.082 A 
BRANCH   3   2
ATOM      1  C   UNL     1      -5.143   1.343  25.328  0.00  0.00    +0.253 C 
ATOM      2  O   UNL     1      -4.675   2.022  25.374  0.00  0.00    -0.470 OA
ENDBRANCH   3   2
ENDBRANCH   9   8
ENDBRANCH  17  15
ENDBRANCH  18  17
BRANCH  20  21
ATOM     21  C   UNL     1      -0.064   0.289  24.566  0.00  0.00    +0.148 C 
BRANCH  21  22
ATOM     22  N   UNL     1      -0.761  -0.143  24.480  0.00  0.00    -0.199 NA
ATOM     23  C   UNL     1      -0.812  -0.909  24.784  0.00  0.00    +0.265 C 
ATOM     24  O   UNL     1      -0.166  -1.242  25.172  0.00  0.00    -0.268 OA
BRANCH  23  25
ATOM     25  C   UNL     1      -1.509  -1.341  24.698  0.00  0.00    +0.055 A 
ATOM     26  C   UNL     1      -1.497  -2.073  24.317  0.00  0.00    +0.006 A 
ATOM     27  C   UNL     1      -2.193  -2.505  24.231  0.00  0.00    +0.015 A 
ATOM     28  C   UNL     1      -2.904  -2.206  24.525  0.00  0.00    +0.048 A 
ATOM     29  C   UNL     1      -2.917  -1.474  24.906  0.00  0.00    +0.015 A 
ATOM     30  C   UNL     1      -2.219  -1.042  24.992  0.00  0.00    +0.006 A 
BRANCH  28  31
ATOM     31  N   UNL     1      -3.601  -2.638  24.439  0.00  0.00    -0.304 N 
ATOM     32  C   UNL     1      -3.683  -3.368  24.816  0.00  0.00    +0.112 C 
ATOM     33  C   UNL     1      -4.216  -2.342  23.976  0.00  0.00    +0.112 C 
ENDBRANCH  28  31
ENDBRANCH  23  25
ENDBRANCH  21  22
ENDBRANCH  20  21
TORSDOF 8
ENDMDL
MODEL 5
REMARK VINA RESULT:      -8.8      2.956      6.407
REMARK  Name = 
REMARK  8 active torsions:
REMARK  status: ('A' for Active; 'I' for Inactive)
REMARK    1  A    between atoms: O_2  and  C_3
REMARK    2  A    between atoms: C_8  and  N_9
REMARK    3  A    between atoms: C_15  and  C_17
REMARK    4  A    between atoms: C_17  and  C_18
REMARK    5  A    between atoms: C_20  and  C_21
REMARK    6  A    between atoms: C_21  and  N_22
REMARK    7  A    between atoms: C_23  and  C_25
REMARK    8  A    between atoms: C_28  and  N_31
REMARK                            x       y       z     vdW  Elec       q    Type
REMARK                         _______ _______ _______ _____ _____    ______ ____
ROOT
ATOM     18  C   UNL     1      -0.626   0.652  24.067  0.00  0.00    +0.157 C 
ATOM     19  O   UNL     1      -0.053   0.765  23.484  0.00  0.00    -0.351 OA
ATOM     20  C   UNL     1       0.339   0.049  23.370  0.00  0.00    +0.170 C 
ATOM     34  C   UNL     1       0.008  -0.507  23.882  0.00  0.00    +0.213 C 
ATOM     35  O   UNL     1       0.235  -1.298  23.951  0.00  0.00    -0.218 OA
ATOM     36  C   UNL     1      -0.588  -0.135  24.313  0.00  0.00    +0.212 C 
ATOM     37  O   UNL     1      -1.063  -0.487  24.888  0.00  0.00    -0.218 OA
ENDROOT
BRANCH  18  17
ATOM     17  C   UNL     1      -1.146   1.225  24.354  0.00  0.00    +0.117 C 
BRANCH  17  15
ATOM      9  N   UNL     1      -3.700   2.700  24.743  0.00  0.00    -0.302 N 
ATOM     10  C   UNL     1      -3.168   2.332  25.255  0.00  0.00    +0.112 C 
ATOM     11  C   UNL     1      -2.494   1.963  24.954  0.00  0.00    +0.115 C 
ATOM     12  N   UNL     1      -2.352   1.962  24.142  0.00  0.00    -0.276 N 
ATOM     13  C   UNL     1      -2.884   2.329  23.629  0.00  0.00    +0.115 C 
ATOM     14  C   UNL     1      -3.557   2.698  23.930  0.00  0.00    +0.112 C 
ATOM     15  C   UNL     1      -1.678   1.592  23.842  0.00  0.00    +0.228 C 
ATOM     16  O   UNL     1      -1.536   1.591  23.029  0.00  0.00    -0.275 OA
BRANCH   9   8
ATOM      3  C   UNL     1      -5.066   2.634  25.157  0.00  0.00    +0.152 A 
ATOM      4  C   UNL     1      -5.740   3.004  25.457  0.00  0.00    +0.038 A 
ATOM      5  C   UNL     1      -5.721   3.808  25.644  0.00  0.00    +0.003 A 
ATOM      6  C   UNL     1      -5.029   4.241  25.530  0.00  0.00    +0.001 A 
ATOM      7  C   UNL     1      -4.355   3.872  25.230  0.00  0.00    +0.018 A 
ATOM      8  C   UNL     1      -4.374   3.069  25.043  0.00  0.00    +0.082 A 
BRANCH   3   2
ATOM      1  C   UNL     1      -5.771   1.393  25.099  0.00  0.00    +0.253 C 
ATOM      2  O   UNL     1      -5.084   1.832  24.970  0.00  0.00    -0.470 OA
ENDBRANCH   3   2
ENDBRANCH   9   8
ENDBRANCH  17  15
ENDBRANCH  18  17
BRANCH  20  21
ATOM     21  C   UNL     1       0.954  -0.088  22.837  0.00  0.00    +0.148 C 
BRANCH  21  22
ATOM     22  N   UNL     1       1.738  -0.028  23.088  0.00  0.00    -0.199 NA
ATOM     23  C   UNL     1       2.348  -0.012  22.533  0.00  0.00    +0.265 C 
ATOM     24  O   UNL     1       2.175  -0.056  21.728  0.00  0.00    -0.268 OA
BRANCH  23  25
ATOM     25  C   UNL     1       3.132   0.049  22.784  0.00  0.00    +0.055 A 
ATOM     26  C   UNL     1       3.540   0.760  22.692  0.00  0.00    +0.006 A 
ATOM     27  C   UNL     1       4.323   0.821  22.942  0.00  0.00    +0.015 A 
ATOM     28  C   UNL     1       4.699   0.171  23.285  0.00  0.00    +0.048 A 
ATOM     29  C   UNL     1       4.291  -0.540  23.377  0.00  0.00    +0.015 A 
ATOM     30  C   UNL     1       3.507  -0.601  23.126  0.00  0.00    +0.006 A 
BRANCH  28  31
ATOM     31  N   UNL     1       5.482   0.232  23.535  0.00  0.00    -0.304 N 
ATOM     32  C   UNL     1       5.665   0.653  24.221  0.00  0.00    +0.112 C 
ATOM     33  C   UNL     1       6.084  -0.128  23.100  0.00  0.00    +0.112 C 
ENDBRANCH  28  31
ENDBRANCH  23  25
ENDBRANCH  21  22
ENDBRANCH  20  21
TORSDOF 8
ENDMDL
MODEL 6
REMARK VINA RESULT:      -8.8      1.669      6.151
REMARK  Name = 
REMARK  8 active torsions:
REMARK  status: ('A' for Active; 'I' for Inactive)
REMARK    1  A    between atoms: O_2  and  C_3
REMARK    2  A    between atoms: C_8  and  N_9
REMARK    3  A    between atoms: C_15  and  C_17
REMARK    4  A    between atoms: C_17  and  C_18
REMARK    5  A    between atoms: C_20  and  C_21
REMARK    6  A    between atoms: C_21  and  N_22
REMARK    7  A    between atoms: C_23  and  C_25
REMARK    8  A    between atoms: C_28  and  N_31
REMARK                            x       y       z     vdW  Elec       q    Type
REMARK                         _______ _______ _______ _____ _____    ______ ____
ROOT
ATOM     18  C   UNL     1      -5.256   2.161  25.102  0.00  0.00    +0.157 C 
ATOM     19  O   UNL     1      -4.732   1.557  25.307  0.00  0.00    -0.351 OA
ATOM     20  C   UNL     1      -5.111   0.836  25.180  0.00  0.00    +0.170 C 
ATOM     34  C   UNL     1      -5.869   0.994  24.895  0.00  0.00    +0.213 C 
ATOM     35  O   UNL     1      -6.439   0.431  24.694  0.00  0.00    -0.218 OA
ATOM     36  C   UNL     1      -5.959   1.812  24.848  0.00  0.00    +0.212 C 
ATOM     37  O   UNL     1      -6.633   2.213  24.590  0.00  0.00    -0.218 OA
ENDROOT
BRANCH  18  17
ATOM     17  C   UNL     1      -5.103   2.970  25.144  0.00  0.00    +0.117 C 
BRANCH  17  15
ATOM      9  N   UNL     1      -2.426   4.263  25.252  0.00  0.00    -0.302 N 
ATOM     10  C   UNL     1      -2.892   3.961  24.641  0.00  0.00    +0.112 C 
ATOM     11  C   UNL     1      -3.629   3.631  24.809  0.00  0.00    +0.115 C 
ATOM     12  N   UNL     1      -3.900   3.602  25.587  0.00  0.00    -0.276 N 
ATOM     13  C   UNL     1      -3.435   3.903  26.198  0.00  0.00    +0.115 C 
ATOM     14  C   UNL     1      -2.697   4.233  26.031  0.00  0.00    +0.112 C 
ATOM     15  C   UNL     1      -4.637   3.272  25.755  0.00  0.00    +0.228 C 
ATOM     16  O   UNL     1      -4.909   3.242  26.534  0.00  0.00    -0.275 OA
BRANCH   9   8
ATOM      3  C   UNL     1      -1.024   4.107  25.021  0.00  0.00    +0.152 A 
ATOM      4  C   UNL     1      -0.287   4.438  24.853  0.00  0.00    +0.038 A 
ATOM      5  C   UNL     1      -0.214   5.254  24.749  0.00  0.00    +0.003 A 
ATOM      6  C   UNL     1      -0.879   5.738  24.812  0.00  0.00    +0.001 A 
ATOM      7  C   UNL     1      -1.616   5.407  24.980  0.00  0.00    +0.018 A 
ATOM      8  C   UNL     1      -1.688   4.593  25.084  0.00  0.00    +0.082 A 
BRANCH   3   2
ATOM      1  C   UNL     1      -0.428   2.811  25.091  0.00  0.00    +0.253 C 
ATOM      2  O   UNL     1      -1.096   3.293  25.125  0.00  0.00    -0.470 OA
ENDBRANCH   3   2
ENDBRANCH   9   8
ENDBRANCH  17  15
ENDBRANCH  18  17
BRANCH  20  21
ATOM     21  C   UNL     1      -4.789   0.088  25.312  0.00  0.00    +0.148 C 
BRANCH  21  22
ATOM     22  N   UNL     1      -3.992  -0.051  25.155  0.00  0.00    -0.199 NA
ATOM     23  C   UNL     1      -3.634  -0.746  25.421  0.00  0.00    +0.265 C 
ATOM     24  O   UNL     1      -4.073  -1.300  25.845  0.00  0.00    -0.268 OA
BRANCH  23  25
ATOM     25  C   UNL     1      -2.836  -0.885  25.263  0.00  0.00    +0.055 A 
ATOM     26  C   UNL     1      -2.620  -1.420  24.673  0.00  0.00    +0.006 A 
ATOM     27  C   UNL     1      -1.824  -1.559  24.514  0.00  0.00    +0.015 A 
ATOM     28  C   UNL     1      -1.241  -1.165  24.946  0.00  0.00    +0.048 A 
ATOM     29  C   UNL     1      -1.457  -0.630  25.537  0.00  0.00    +0.015 A 
ATOM     30  C   UNL     1      -2.254  -0.491  25.695  0.00  0.00    +0.006 A 
BRANCH  28  31
ATOM     31  N   UNL     1      -0.444  -1.305  24.788  0.00  0.00    -0.304 N 
ATOM     32  C   UNL     1      -0.048  -1.917  25.174  0.00  0.00    +0.112 C 
ATOM     33  C   UNL     1      -0.042  -0.832  24.243  0.00  0.00    +0.112 C 
ENDBRANCH  28  31
ENDBRANCH  23  25
ENDBRANCH  21  22
ENDBRANCH  20  21
TORSDOF 8
ENDMDL
MODEL 7
REMARK VINA RESULT:      -8.7      1.466      4.073
REMARK  Name = 
REMARK  8 active torsions:
REMARK  status: ('A' for Active; 'I' for Inactive)
REMARK    1  A    between atoms: O_2  and  C_3
REMARK    2  A    between atoms: C_8  and  N_9
REMARK    3  A    between atoms: C_15  and  C_17
REMARK    4  A    between atoms: C_17  and  C_18
REMARK    5  A    between atoms: C_20  and  C_21
REMARK    6  A    between atoms: C_21  and  N_22
REMARK    7  A    between atoms: C_23  and  C_25
REMARK    8  A    between atoms: C_28  and  N_31
REMARK                            x       y       z     vdW  Elec       q    Type
REMARK                         _______ _______ _______ _____ _____    ______ ____
ROOT
ATOM     18  C   UNL     1      -1.919  -1.195  24.907  0.00  0.00    +0.157 C 
ATOM     19  O   UNL     1      -1.622  -0.434  24.788  0.00  0.00    -0.351 OA
ATOM     20  C   UNL     1      -0.804  -0.491  24.700  0.00  0.00    +0.170 C 
ATOM     34  C   UNL     1      -0.595  -1.286  24.764  0.00  0.00    +0.213 C 
ATOM     35  O   UNL     1       0.169  -1.593  24.711  0.00  0.00    -0.218 OA
ATOM     36  C   UNL     1      -1.284  -1.721  24.892  0.00  0.00    +0.212 C 
ATOM     37  O   UNL     1      -1.330  -2.540  24.989  0.00  0.00    -0.218 OA
ENDROOT
BRANCH  18  17
ATOM     17  C   UNL     1      -2.711  -1.395  25.020  0.00  0.00    +0.117 C 
BRANCH  17  15
ATOM      9  N   UNL     1      -4.749   0.772  25.056  0.00  0.00    -0.302 N 
ATOM     10  C   UNL     1      -4.178   0.515  25.593  0.00  0.00    +0.112 C 
ATOM     11  C   UNL     1      -3.689  -0.121  25.402  0.00  0.00    +0.115 C 
ATOM     12  N   UNL     1      -3.772  -0.501  24.675  0.00  0.00    -0.276 N 
ATOM     13  C   UNL     1      -4.343  -0.244  24.137  0.00  0.00    +0.115 C 
ATOM     14  C   UNL     1      -4.832   0.392  24.328  0.00  0.00    +0.112 C 
ATOM     15  C   UNL     1      -3.283  -1.137  24.484  0.00  0.00    +0.228 C 
ATOM     16  O   UNL     1      -3.365  -1.517  23.755  0.00  0.00    -0.275 OA
BRANCH   9   8
ATOM      3  C   UNL     1      -5.067   2.162  24.956  0.00  0.00    +0.152 A 
ATOM      4  C   UNL     1      -5.555   2.798  25.147  0.00  0.00    +0.038 A 
ATOM      5  C   UNL     1      -6.216   2.682  25.629  0.00  0.00    +0.003 A 
ATOM      6  C   UNL     1      -6.386   1.929  25.919  0.00  0.00    +0.001 A 
ATOM      7  C   UNL     1      -5.897   1.292  25.728  0.00  0.00    +0.018 A 
ATOM      8  C   UNL     1      -5.238   1.409  25.247  0.00  0.00    +0.082 A 
BRANCH   3   2
ATOM      1  C   UNL     1      -4.277   3.013  24.123  0.00  0.00    +0.253 C 
ATOM      2  O   UNL     1      -4.407   2.278  24.475  0.00  0.00    -0.470 OA
ENDBRANCH   3   2
ENDBRANCH   9   8
ENDBRANCH  17  15
ENDBRANCH  18  17
BRANCH  20  21
ATOM     21  C   UNL     1      -0.286   0.138  24.570  0.00  0.00    +0.148 C 
BRANCH  21  22
ATOM     22  N   UNL     1      -0.539   0.913  24.694  0.00  0.00    -0.199 NA
ATOM     23  C   UNL     1      -0.025   1.543  24.548  0.00  0.00    +0.265 C 
ATOM     24  O   UNL     1       0.741   1.397  24.279  0.00  0.00    -0.268 OA
BRANCH  23  25
ATOM     25  C   UNL     1      -0.278   2.318  24.672  0.00  0.00    +0.055 A 
ATOM     26  C   UNL     1      -0.474   2.795  24.028  0.00  0.00    +0.006 A 
ATOM     27  C   UNL     1      -0.727   3.570  24.151  0.00  0.00    +0.015 A 
ATOM     28  C   UNL     1      -0.784   3.869  24.919  0.00  0.00    +0.048 A 
ATOM     29  C   UNL     1      -0.588   3.391  25.563  0.00  0.00    +0.015 A 
ATOM     30  C   UNL     1      -0.335   2.616  25.439  0.00  0.00    +0.006 A 
BRANCH  28  31
ATOM     31  N   UNL     1      -1.037   4.644  25.042  0.00  0.00    -0.304 N 
ATOM     32  C   UNL     1      -0.599   5.275  24.739  0.00  0.00    +0.112 C 
ATOM     33  C   UNL     1      -1.730   4.790  25.467  0.00  0.00    +0.112 C 
ENDBRANCH  28  31
ENDBRANCH  23  25
ENDBRANCH  21  22
ENDBRANCH  20  21
TORSDOF 8
ENDMDL
MODEL 8
REMARK VINA RESULT:      -8.6      1.750      3.979
REMARK  Name = 
REMARK  8 active torsions:
REMARK  status: ('A' for Active; 'I' for Inactive)
REMARK    1  A    between atoms: O_2  and  C_3
REMARK    2  A    between atoms: C_8  and  N_9
REMARK    3  A    between atoms: C_15  and  C_17
REMARK    4  A    between atoms: C_17  and  C_18
REMARK    5  A    between atoms: C_20  and  C_21
REMARK    6  A    between atoms: C_21  and  N_22
REMARK    7  A    between atoms: C_23  and  C_25
REMARK    8  A    between atoms: C_28  and  N_31
REMARK                            x       y       z     vdW  Elec       q    Type
REMARK                         _______ _______ _______ _____ _____    ______ ____
ROOT
ATOM     18  C   UNL     1      -5.313   1.778  25.465  0.00  0.00    +0.157 C 
ATOM     19  O   UNL     1      -4.667   2.279  25.579  0.00  0.00    -0.351 OA
ATOM     20  C   UNL     1      -4.954   3.011  25.829  0.00  0.00    +0.170 C 
ATOM     34  C   UNL     1      -5.776   2.962  25.869  0.00  0.00    +0.213 C 
ATOM     35  O   UNL     1      -6.288   3.570  26.094  0.00  0.00    -0.218 OA
ATOM     36  C   UNL     1      -5.998   2.201  25.644  0.00  0.00    +0.212 C 
ATOM     37  O   UNL     1      -6.770   1.912  25.604  0.00  0.00    -0.218 OA
ENDROOT
BRANCH  18  17
ATOM     17  C   UNL     1      -5.279   0.993  25.215  0.00  0.00    +0.117 C 
BRANCH  17  15
ATOM      9  N   UNL     1      -3.291  -1.131  24.590  0.00  0.00    -0.302 N 
ATOM     10  C   UNL     1      -3.721  -0.930  25.264  0.00  0.00    +0.112 C 
ATOM     11  C   UNL     1      -4.240  -0.289  25.248  0.00  0.00    +0.115 C 
ATOM     12  N   UNL     1      -4.329   0.151  24.557  0.00  0.00    -0.276 N 
ATOM     13  C   UNL     1      -3.899  -0.048  23.881  0.00  0.00    +0.115 C 
ATOM     14  C   UNL     1      -3.380  -0.689  23.898  0.00  0.00    +0.112 C 
ATOM     15  C   UNL     1      -4.848   0.792  24.540  0.00  0.00    +0.228 C 
ATOM     16  O   UNL     1      -4.938   1.234  23.848  0.00  0.00    -0.275 OA
BRANCH   9   8
ATOM      3  C   UNL     1      -1.970  -1.649  24.756  0.00  0.00    +0.152 A 
ATOM      4  C   UNL     1      -1.451  -2.290  24.772  0.00  0.00    +0.038 A 
ATOM      5  C   UNL     1      -1.734  -3.054  24.639  0.00  0.00    +0.003 A 
ATOM      6  C   UNL     1      -2.536  -3.176  24.490  0.00  0.00    +0.001 A 
ATOM      7  C   UNL     1      -3.055  -2.535  24.474  0.00  0.00    +0.018 A 
ATOM      8  C   UNL     1      -2.772  -1.772  24.606  0.00  0.00    +0.082 A 
BRANCH   3   2
ATOM      1  C   UNL     1      -0.887  -0.764  25.049  0.00  0.00    +0.253 C 
ATOM      2  O   UNL     1      -1.687  -0.886  24.888  0.00  0.00    -0.470 OA
ENDBRANCH   3   2
ENDBRANCH   9   8
ENDBRANCH  17  15
ENDBRANCH  18  17
BRANCH  20  21
ATOM     21  C   UNL     1      -4.498   3.675  26.008  0.00  0.00    +0.148 C 
BRANCH  21  22
ATOM     22  N   UNL     1      -3.770   3.788  25.637  0.00  0.00    -0.199 NA
ATOM     23  C   UNL     1      -3.153   4.155  26.043  0.00  0.00    +0.265 C 
ATOM     24  O   UNL     1      -3.264   4.409  26.820  0.00  0.00    -0.268 OA
BRANCH  23  25
ATOM     25  C   UNL     1      -2.425   4.267  25.673  0.00  0.00    +0.055 A 
ATOM     26  C   UNL     1      -1.873   3.654  25.653  0.00  0.00    +0.006 A 
ATOM     27  C   UNL     1      -1.145   3.765  25.283  0.00  0.00    +0.015 A 
ATOM     28  C   UNL     1      -0.967   4.490  24.931  0.00  0.00    +0.048 A 
ATOM     29  C   UNL     1      -1.519   5.104  24.950  0.00  0.00    +0.015 A 
ATOM     30  C   UNL     1      -2.247   4.992  25.321  0.00  0.00    +0.006 A 
BRANCH  28  31
ATOM     31  N   UNL     1      -0.240   4.602  24.560  0.00  0.00    -0.304 N 
ATOM     32  C   UNL     1       0.174   3.954  24.259  0.00  0.00    +0.112 C 
ATOM     33  C   UNL     1       0.076   5.361  24.490  0.00  0.00    +0.112 C 
ENDBRANCH  28  31
ENDBRANCH  23  25
ENDBRANCH  21  22
ENDBRANCH  20  21
TORSDOF 8
ENDMDL
MODEL 9
REMARK VINA RESULT:      -6.2     14.579     17.408
REMARK  Name = 
REMARK  8 active torsions:
REMARK  status: ('A' for Active; 'I' for Inactive)
REMARK    1  A    between atoms: O_2  and  C_3
REMARK    2  A    between atoms: C_8  and  N_9
REMARK    3  A    between atoms: C_15  and  C_17
REMARK    4  A    between atoms: C_17  and  C_18
REMARK    5  A    between atoms: C_20  and  C_21
REMARK    6  A    between atoms: C_21  and  N_22
REMARK    7  A    between atoms: C_23  and  C_25
REMARK    8  A    between atoms: C_28  and  N_31
REMARK                            x       y       z     vdW  Elec       q    Type
REMARK                         _______ _______ _______ _____ _____    ______ ____
ROOT
ATOM     18  C   UNL     1      -8.382 -10.189  12.219  0.00  0.00    +0.157 C 
ATOM     19  O   UNL     1      -8.375 -10.011  13.025  0.00  0.00    -0.351 OA
ATOM     20  C   UNL     1      -9.122 -10.184  13.330  0.00  0.00    +0.170 C 
ATOM     34  C   UNL     1      -9.590 -10.468  12.713  0.00  0.00    +0.213 C 
ATOM     35  O   UNL     1     -10.378 -10.707  12.773  0.00  0.00    -0.218 OA
ATOM     36  C   UNL     1      -9.133 -10.471  12.027  0.00  0.00    +0.212 C 
ATOM     37  O   UNL     1      -9.383 -10.714  11.279  0.00  0.00    -0.218 OA
ENDROOT
BRANCH  18  17
ATOM     17  C   UNL     1      -7.749 -10.100  11.698  0.00  0.00    +0.117 C 
BRANCH  17  15
ATOM      9  N   UNL     1      -4.844  -9.617  11.277  0.00  0.00    -0.302 N 
ATOM     10  C   UNL     1      -5.326 -10.285  11.232  0.00  0.00    +0.112 C 
ATOM     11  C   UNL     1      -6.134 -10.223  11.387  0.00  0.00    +0.115 C 
ATOM     12  N   UNL     1      -6.460  -9.494  11.587  0.00  0.00    -0.276 N 
ATOM     13  C   UNL     1      -5.980  -8.824  11.632  0.00  0.00    +0.115 C 
ATOM     14  C   UNL     1      -5.172  -8.886  11.477  0.00  0.00    +0.112 C 
ATOM     15  C   UNL     1      -7.268  -9.432  11.742  0.00  0.00    +0.228 C 
ATOM     16  O   UNL     1      -7.596  -8.701  11.943  0.00  0.00    -0.275 OA
BRANCH   9   8
ATOM      3  C   UNL     1      -3.737  -9.430  10.394  0.00  0.00    +0.152 A 
ATOM      4  C   UNL     1      -2.929  -9.491  10.239  0.00  0.00    +0.038 A 
ATOM      5  C   UNL     1      -2.421  -9.802  10.811  0.00  0.00    +0.003 A 
ATOM      6  C   UNL     1      -2.722 -10.050  11.538  0.00  0.00    +0.001 A 
ATOM      7  C   UNL     1      -3.530  -9.988  11.693  0.00  0.00    +0.018 A 
ATOM      8  C   UNL     1      -4.037  -9.678  11.122  0.00  0.00    +0.082 A 
BRANCH   3   2
ATOM      1  C   UNL     1      -3.954  -8.926   9.075  0.00  0.00    +0.253 C 
ATOM      2  O   UNL     1      -4.244  -9.120   9.822  0.00  0.00    -0.470 OA
ENDBRANCH   3   2
ENDBRANCH   9   8
ENDBRANCH  17  15
ENDBRANCH  18  17
BRANCH  20  21
ATOM     21  C   UNL     1      -9.359 -10.089  14.115  0.00  0.00    +0.148 C 
BRANCH  21  22
ATOM     22  N   UNL     1      -8.803 -10.138  14.722  0.00  0.00    -0.199 NA
ATOM     23  C   UNL     1      -9.027  -9.978  15.501  0.00  0.00    +0.265 C 
ATOM     24  O   UNL     1      -9.806  -9.769  15.670  0.00  0.00    -0.268 OA
BRANCH  23  25
ATOM     25  C   UNL     1      -8.471 -10.028  16.108  0.00  0.00    +0.055 A 
ATOM     26  C   UNL     1      -8.007  -9.371  16.297  0.00  0.00    +0.006 A 
ATOM     27  C   UNL     1      -7.452  -9.420  16.903  0.00  0.00    +0.015 A 
ATOM     28  C   UNL     1      -7.358 -10.125  17.323  0.00  0.00    +0.048 A 
ATOM     29  C   UNL     1      -7.822 -10.781  17.134  0.00  0.00    +0.015 A 
ATOM     30  C   UNL     1      -8.378 -10.732  16.527  0.00  0.00    +0.006 A 
BRANCH  28  31
ATOM     31  N   UNL     1      -6.803 -10.174  17.929  0.00  0.00    -0.304 N 
ATOM     32  C   UNL     1      -7.049 -10.160  18.717  0.00  0.00    +0.112 C 
ATOM     33  C   UNL     1      -5.999 -10.236  17.750  0.00  0.00    +0.112 C 
ENDBRANCH  28  31
ENDBRANCH  23  25
ENDBRANCH  21  22
ENDBRANCH  20  21
TORSDOF 8
ENDMDL
