MODEL 1
REMARK VINA RESULT:     -11.2      0.000      0.000
REMARK  Name = 
REMARK  7 active torsions:
REMARK  status: ('A' for Active; 'I' for Inactive)
REMARK    1  A    between atoms: S_2  and  N_4
REMARK    2  A    between atoms: S_2  and  C_31
REMARK    3  A    between atoms: N_4  and  C_5
REMARK    4  A    between atoms: C_9  and  N_13
REMARK    5  A    between atoms: C_17  and  O_18
REMARK    6  A    between atoms: O_18  and  C_19
REMARK    7  A    between atoms: C_23  and  N_25
REMARK                            x       y       z     vdW  Elec       q    Type
REMARK                         _______ _______ _______ _____ _____    ______ ____
ROOT
ATOM     13  N   UNL     1      -0.017   1.961  25.519  0.00  0.00    -0.180 N 
ATOM     14  N   UNL     1       0.453   1.957  26.198  0.00  0.00    -0.040 NA
ATOM     15  N   UNL     1       0.460   2.722  26.507  0.00  0.00    -0.020 NA
ATOM     16  N   UNL     1      -0.005   3.198  26.020  0.00  0.00    -0.071 NA
ATOM     17  C   UNL     1      -0.300   2.727  25.410  0.00  0.00    +0.343 A 
ENDROOT
BRANCH  13   9
ATOM      5  C   UNL     1      -1.096  -0.517  24.800  0.00  0.00    +0.157 C 
ATOM      6  C   UNL     1      -1.361  -0.412  25.574  0.00  0.00    +0.164 C 
ATOM      7  O   UNL     1      -1.073   0.311  25.847  0.00  0.00    -0.350 OA
ATOM      8  C   UNL     1      -0.629   0.653  25.242  0.00  0.00    +0.169 C 
ATOM      9  C   UNL     1      -0.177   1.311  25.035  0.00  0.00    +0.170 C 
ATOM     10  C   UNL     1       0.089   1.207  24.262  0.00  0.00    +0.169 C 
ATOM     11  O   UNL     1      -0.200   0.484  23.989  0.00  0.00    -0.350 OA
ATOM     12  C   UNL     1      -0.644   0.141  24.595  0.00  0.00    +0.164 C 
BRANCH   5   4
ATOM      4  N   UNL     1      -1.255  -1.166  24.317  0.00  0.00    -0.074 NA
BRANCH   4   2
ATOM      1  O   UNL     1      -2.318  -0.978  23.872  0.00  0.00    -0.151 OA
ATOM      2  S   UNL     1      -1.985  -1.549  24.366  0.00  0.00    +0.083 S 
ATOM      3  O   UNL     1      -1.652  -2.120  24.860  0.00  0.00    -0.151 OA
BRANCH   2  31
ATOM     31  C   UNL     1      -2.714  -1.931  24.415  0.00  0.00    +0.153 A 
ATOM     32  C   UNL     1      -3.443  -1.616  24.189  0.00  0.00    +0.027 A 
ATOM     33  C   UNL     1      -4.022  -2.185  24.333  0.00  0.00    +0.009 A 
ATOM     34  C   UNL     1      -3.653  -2.851  24.648  0.00  0.00    +0.037 A 
ATOM     35  S   UNL     1      -2.844  -2.694  24.699  0.00  0.00    -0.067 S 
ENDBRANCH   2  31
ENDBRANCH   4   2
ENDBRANCH   5   4
ENDBRANCH  13   9
BRANCH  17  18
ATOM     18  O   UNL     1      -0.792   2.981  24.797  0.00  0.00    -0.421 OA
BRANCH  18  19
ATOM     19  C   UNL     1      -1.339   3.584  24.930  0.00  0.00    +0.150 A 
ATOM     20  C   UNL     1      -1.084   4.365  24.994  0.00  0.00    +0.038 A 
ATOM     21  C   UNL     1      -1.631   4.968  25.126  0.00  0.00    +0.004 A 
ATOM     22  C   UNL     1      -2.434   4.790  25.195  0.00  0.00    +0.015 A 
ATOM     23  C   UNL     1      -2.689   4.007  25.131  0.00  0.00    +0.051 A 
ATOM     24  C   UNL     1      -2.141   3.405  24.998  0.00  0.00    +0.052 A 
BRANCH  23  25
ATOM     25  N   UNL     1      -3.491   3.828  25.199  0.00  0.00    -0.303 N 
ATOM     26  C   UNL     1      -3.849   3.815  25.943  0.00  0.00    +0.123 C 
ATOM     27  C   UNL     1      -4.651   3.636  26.012  0.00  0.00    +0.164 C 
ATOM     28  O   UNL     1      -5.095   3.469  25.338  0.00  0.00    -0.350 OA
ATOM     29  C   UNL     1      -4.738   3.482  24.594  0.00  0.00    +0.164 C 
ATOM     30  C   UNL     1      -3.936   3.662  24.525  0.00  0.00    +0.123 C 
ENDBRANCH  23  25
ENDBRANCH  18  19
ENDBRANCH  17  18
TORSDOF 7
ENDMDL
MODEL 2
REMARK VINA RESULT:     -11.1      1.544      3.528
REMARK  Name = 
REMARK  7 active torsions:
REMARK  status: ('A' for Active; 'I' for Inactive)
REMARK    1  A    between atoms: S_2  and  N_4
REMARK    2  A    between atoms: S_2  and  C_31
REMARK    3  A    between atoms: N_4  and  C_5
REMARK    4  A    between atoms: C_9  and  N_13
REMARK    5  A    between atoms: C_17  and  O_18
REMARK    6  A    between atoms: O_18  and  C_19
REMARK    7  A    between atoms: C_23  and  N_25
REMARK                            x       y       z     vdW  Elec       q    Type
REMARK                         _______ _______ _______ _____ _____    ______ ____
ROOT
ATOM     13  N   UNL     1      -4.278   2.927  24.217  0.00  0.00    -0.180 N 
ATOM     14  N   UNL     1      -4.573   3.173  23.486  0.00  0.00    -0.040 NA
ATOM     15  N   UNL     1      -4.258   3.917  23.323  0.00  0.00    -0.020 NA
ATOM     16  N   UNL     1      -3.770   4.132  23.952  0.00  0.00    -0.071 NA
ATOM     17  C   UNL     1      -3.783   3.519  24.504  0.00  0.00    +0.343 A 
ENDROOT
BRANCH  13   9
ATOM      5  C   UNL     1      -4.205   0.169  24.676  0.00  0.00    +0.157 C 
ATOM      6  C   UNL     1      -3.728   0.263  24.010  0.00  0.00    +0.164 C 
ATOM      7  O   UNL     1      -3.709   1.066  23.821  0.00  0.00    -0.350 OA
ATOM      8  C   UNL     1      -4.174   1.468  24.370  0.00  0.00    +0.169 C 
ATOM      9  C   UNL     1      -4.450   2.213  24.594  0.00  0.00    +0.170 C 
ATOM     10  C   UNL     1      -4.927   2.119  25.260  0.00  0.00    +0.169 C 
ATOM     11  O   UNL     1      -4.946   1.316  25.448  0.00  0.00    -0.350 OA
ATOM     12  C   UNL     1      -4.481   0.914  24.898  0.00  0.00    +0.164 C 
BRANCH   5   4
ATOM      4  N   UNL     1      -4.377  -0.544  25.053  0.00  0.00    -0.074 NA
BRANCH   4   2
ATOM      1  O   UNL     1      -4.441  -1.375  24.235  0.00  0.00    -0.151 OA
ATOM      2  S   UNL     1      -3.941  -1.222  24.873  0.00  0.00    +0.083 S 
ATOM      3  O   UNL     1      -3.440  -1.069  25.511  0.00  0.00    -0.151 OA
BRANCH   2  31
ATOM     31  C   UNL     1      -3.505  -1.899  24.693  0.00  0.00    +0.153 A 
ATOM     32  C   UNL     1      -3.790  -2.570  24.306  0.00  0.00    +0.027 A 
ATOM     33  C   UNL     1      -3.170  -3.109  24.242  0.00  0.00    +0.009 A 
ATOM     34  C   UNL     1      -2.502  -2.773  24.589  0.00  0.00    +0.037 A 
ATOM     35  S   UNL     1      -2.709  -2.024  24.868  0.00  0.00    -0.067 S 
ENDBRANCH   2  31
ENDBRANCH   4   2
ENDBRANCH   5   4
ENDBRANCH  13   9
BRANCH  17  18
ATOM     18  O   UNL     1      -3.371   3.503  25.220  0.00  0.00    -0.421 OA
BRANCH  18  19
ATOM     19  C   UNL     1      -2.598   3.792  25.258  0.00  0.00    +0.150 A 
ATOM     20  C   UNL     1      -2.464   4.604  25.312  0.00  0.00    +0.038 A 
ATOM     21  C   UNL     1      -1.693   4.893  25.350  0.00  0.00    +0.004 A 
ATOM     22  C   UNL     1      -1.055   4.369  25.334  0.00  0.00    +0.015 A 
ATOM     23  C   UNL     1      -1.189   3.556  25.280  0.00  0.00    +0.051 A 
ATOM     24  C   UNL     1      -1.962   3.268  25.242  0.00  0.00    +0.052 A 
BRANCH  23  25
ATOM     25  N   UNL     1      -0.553   3.032  25.264  0.00  0.00    -0.303 N 
ATOM     26  C   UNL     1      -0.252   2.771  24.541  0.00  0.00    +0.123 C 
ATOM     27  C   UNL     1       0.385   2.247  24.525  0.00  0.00    +0.164 C 
ATOM     28  O   UNL     1       0.721   1.984  25.231  0.00  0.00    -0.350 OA
ATOM     29  C   UNL     1       0.420   2.246  25.954  0.00  0.00    +0.164 C 
ATOM     30  C   UNL     1      -0.217   2.770  25.970  0.00  0.00    +0.123 C 
ENDBRANCH  23  25
ENDBRANCH  18  19
ENDBRANCH  17  18
TORSDOF 7
ENDMDL
MODEL 3
REMARK VINA RESULT:     -10.5      1.967      4.872
REMARK  Name = 
REMARK  7 active torsions:
REMARK  status: ('A' for Active; 'I' for Inactive)
REMARK    1  A    between atoms: S_2  and  N_4
REMARK    2  A    between atoms: S_2  and  C_31
REMARK    3  A    between atoms: N_4  and  C_5
REMARK    4  A    between atoms: C_9  and  N_13
REMARK    5  A    between atoms: C_17  and  O_18
REMARK    6  A    between atoms: O_18  and  C_19
REMARK    7  A    between atoms: C_23  and  N_25
REMARK                            x       y       z     vdW  Elec       q    Type
REMARK                         _______ _______ _______ _____ _____    ______ ____
ROOT
ATOM     13  N   UNL     1      -0.304   0.951  24.221  0.00  0.00    -0.180 N 
ATOM     14  N   UNL     1       0.198   1.025  23.570  0.00  0.00    -0.040 NA
ATOM     15  N   UNL     1       0.467   0.272  23.369  0.00  0.00    -0.020 NA
ATOM     16  N   UNL     1       0.132  -0.268  23.894  0.00  0.00    -0.071 NA
ATOM     17  C   UNL     1      -0.345   0.152  24.421  0.00  0.00    +0.343 A 
ENDROOT
BRANCH  13   9
ATOM      5  C   UNL     1      -2.255   2.914  24.616  0.00  0.00    +0.157 C 
ATOM      6  C   UNL     1      -2.472   2.574  23.897  0.00  0.00    +0.164 C 
ATOM      7  O   UNL     1      -1.928   1.979  23.722  0.00  0.00    -0.350 OA
ATOM      8  C   UNL     1      -1.375   1.952  24.333  0.00  0.00    +0.169 C 
ATOM      9  C   UNL     1      -0.697   1.568  24.603  0.00  0.00    +0.170 C 
ATOM     10  C   UNL     1      -0.480   1.908  25.323  0.00  0.00    +0.169 C 
ATOM     11  O   UNL     1      -1.024   2.502  25.497  0.00  0.00    -0.350 OA
ATOM     12  C   UNL     1      -1.577   2.530  24.886  0.00  0.00    +0.164 C 
BRANCH   5   4
ATOM      4  N   UNL     1      -2.648   3.531  24.999  0.00  0.00    -0.074 NA
BRANCH   4   2
ATOM      1  O   UNL     1      -3.301   3.240  25.921  0.00  0.00    -0.151 OA
ATOM      2  S   UNL     1      -3.458   3.477  25.146  0.00  0.00    +0.083 S 
ATOM      3  O   UNL     1      -3.616   3.714  24.372  0.00  0.00    -0.151 OA
BRANCH   2  31
ATOM     31  C   UNL     1      -4.267   3.422  25.295  0.00  0.00    +0.153 A 
ATOM     32  C   UNL     1      -4.695   2.724  25.401  0.00  0.00    +0.027 A 
ATOM     33  C   UNL     1      -5.483   2.926  25.535  0.00  0.00    +0.009 A 
ATOM     34  C   UNL     1      -5.544   3.748  25.512  0.00  0.00    +0.037 A 
ATOM     35  S   UNL     1      -4.792   4.055  25.363  0.00  0.00    -0.067 S 
ENDBRANCH   2  31
ENDBRANCH   4   2
ENDBRANCH   5   4
ENDBRANCH  13   9
BRANCH  17  18
ATOM     18  O   UNL     1      -0.786  -0.171  25.039  0.00  0.00    -0.421 OA
BRANCH  18  19
ATOM     19  C   UNL     1      -1.101  -0.931  24.969  0.00  0.00    +0.150 A 
ATOM     20  C   UNL     1      -0.634  -1.588  25.144  0.00  0.00    +0.038 A 
ATOM     21  C   UNL     1      -0.948  -2.348  25.074  0.00  0.00    +0.004 A 
ATOM     22  C   UNL     1      -1.729  -2.450  24.828  0.00  0.00    +0.015 A 
ATOM     23  C   UNL     1      -2.196  -1.792  24.652  0.00  0.00    +0.051 A 
ATOM     24  C   UNL     1      -1.881  -1.033  24.723  0.00  0.00    +0.052 A 
BRANCH  23  25
ATOM     25  N   UNL     1      -2.977  -1.894  24.407  0.00  0.00    -0.303 N 
ATOM     26  C   UNL     1      -3.276  -2.654  24.290  0.00  0.00    +0.123 C 
ATOM     27  C   UNL     1      -4.057  -2.756  24.044  0.00  0.00    +0.164 C 
ATOM     28  O   UNL     1      -4.538  -2.099  23.915  0.00  0.00    -0.350 OA
ATOM     29  C   UNL     1      -4.238  -1.339  24.032  0.00  0.00    +0.164 C 
ATOM     30  C   UNL     1      -3.458  -1.237  24.278  0.00  0.00    +0.123 C 
ENDBRANCH  23  25
ENDBRANCH  18  19
ENDBRANCH  17  18
TORSDOF 7
ENDMDL
MODEL 4
REMARK VINA RESULT:     -10.0      1.893      4.500
REMARK  Name = 
REMARK  7 active torsions:
REMARK  status: ('A' for Active; 'I' for Inactive)
REMARK    1  A    between atoms: S_2  and  N_4
REMARK    2  A    between atoms: S_2  and  C_31
REMARK    3  A    between atoms: N_4  and  C_5
REMARK    4  A    between atoms: C_9  and  N_13
REMARK    5  A    between atoms: C_17  and  O_18
REMARK    6  A    between atoms: O_18  and  C_19
REMARK    7  A    between atoms: C_23  and  N_25
REMARK                            x       y       z     vdW  Elec       q    Type
REMARK                         _______ _______ _______ _____ _____    ______ ____
ROOT
ATOM     13  N   UNL     1      -0.918  -0.772  24.815  0.00  0.00    -0.180 N 
ATOM     14  N   UNL     1      -0.577  -1.299  25.351  0.00  0.00    -0.040 NA
ATOM     15  N   UNL     1      -1.068  -1.960  25.406  0.00  0.00    -0.020 NA
ATOM     16  N   UNL     1      -1.711  -1.841  24.904  0.00  0.00    -0.071 NA
ATOM     17  C   UNL     1      -1.618  -1.107  24.539  0.00  0.00    +0.343 A 
ENDROOT
BRANCH  13   9
ATOM      5  C   UNL     1      -0.269   1.935  25.073  0.00  0.00    +0.157 C 
ATOM      6  C   UNL     1      -0.641   1.761  25.788  0.00  0.00    +0.164 C 
ATOM      7  O   UNL     1      -0.859   0.966  25.774  0.00  0.00    -0.350 OA
ATOM      8  C   UNL     1      -0.623   0.649  25.051  0.00  0.00    +0.169 C 
ATOM      9  C   UNL     1      -0.611  -0.038  24.594  0.00  0.00    +0.170 C 
ATOM     10  C   UNL     1      -0.239   0.136  23.879  0.00  0.00    +0.169 C 
ATOM     11  O   UNL     1      -0.021   0.931  23.893  0.00  0.00    -0.350 OA
ATOM     12  C   UNL     1      -0.258   1.248  24.617  0.00  0.00    +0.164 C 
BRANCH   5   4
ATOM      4  N   UNL     1       0.038   2.669  24.852  0.00  0.00    -0.074 NA
BRANCH   4   2
ATOM      1  O   UNL     1      -0.648   3.301  24.151  0.00  0.00    -0.151 OA
ATOM      2  S   UNL     1      -0.418   3.351  24.942  0.00  0.00    +0.083 S 
ATOM      3  O   UNL     1      -0.188   3.401  25.733  0.00  0.00    -0.151 OA
BRANCH   2  31
ATOM     31  C   UNL     1      -0.874   4.033  25.031  0.00  0.00    +0.153 A 
ATOM     32  C   UNL     1      -1.624   4.074  25.373  0.00  0.00    +0.027 A 
ATOM     33  C   UNL     1      -1.873   4.859  25.347  0.00  0.00    +0.009 A 
ATOM     34  C   UNL     1      -1.279   5.305  24.989  0.00  0.00    +0.037 A 
ATOM     35  S   UNL     1      -0.660   4.794  24.794  0.00  0.00    -0.067 S 
ENDBRANCH   2  31
ENDBRANCH   4   2
ENDBRANCH   5   4
ENDBRANCH  13   9
BRANCH  17  18
ATOM     18  O   UNL     1      -2.137  -0.768  23.993  0.00  0.00    -0.421 OA
BRANCH  18  19
ATOM     19  C   UNL     1      -2.948  -0.762  24.144  0.00  0.00    +0.150 A 
ATOM     20  C   UNL     1      -3.384  -1.460  24.089  0.00  0.00    +0.038 A 
ATOM     21  C   UNL     1      -4.194  -1.453  24.239  0.00  0.00    +0.004 A 
ATOM     22  C   UNL     1      -4.570  -0.748  24.445  0.00  0.00    +0.015 A 
ATOM     23  C   UNL     1      -4.134  -0.049  24.500  0.00  0.00    +0.051 A 
ATOM     24  C   UNL     1      -3.323  -0.057  24.349  0.00  0.00    +0.052 A 
BRANCH  23  25
ATOM     25  N   UNL     1      -4.509   0.656  24.706  0.00  0.00    -0.303 N 
ATOM     26  C   UNL     1      -5.126   0.650  25.254  0.00  0.00    +0.123 C 
ATOM     27  C   UNL     1      -5.501   1.356  25.460  0.00  0.00    +0.164 C 
ATOM     28  O   UNL     1      -5.260   2.066  25.118  0.00  0.00    -0.350 OA
ATOM     29  C   UNL     1      -4.643   2.072  24.569  0.00  0.00    +0.164 C 
ATOM     30  C   UNL     1      -4.268   1.367  24.364  0.00  0.00    +0.123 C 
ENDBRANCH  23  25
ENDBRANCH  18  19
ENDBRANCH  17  18
TORSDOF 7
ENDMDL
MODEL 5
REMARK VINA RESULT:      -7.5     15.928     17.676
REMARK  Name = 
REMARK  7 active torsions:
REMARK  status: ('A' for Active; 'I' for Inactive)
REMARK    1  A    between atoms: S_2  and  N_4
REMARK    2  A    between atoms: S_2  and  C_31
REMARK    3  A    between atoms: N_4  and  C_5
REMARK    4  A    between atoms: C_9  and  N_13
REMARK    5  A    between atoms: C_17  and  O_18
REMARK    6  A    between atoms: O_18  and  C_19
REMARK    7  A    between atoms: C_23  and  N_25
REMARK                            x       y       z     vdW  Elec       q    Type
REMARK                         _______ _______ _______ _____ _____    ______ ____
ROOT
ATOM     13  N   UNL     1      14.716   7.260  18.781  0.00  0.00    -0.180 N 
ATOM     14  N   UNL     1      15.074   6.538  18.601  0.00  0.00    -0.040 NA
ATOM     15  N   UNL     1      15.173   6.500  17.784  0.00  0.00    -0.020 NA
ATOM     16  N   UNL     1      14.878   7.198  17.458  0.00  0.00    -0.071 NA
ATOM     17  C   UNL     1      14.595   7.667  18.075  0.00  0.00    +0.343 A 
ENDROOT
BRANCH  13   9
ATOM      5  C   UNL     1      13.184   7.503  21.108  0.00  0.00    +0.157 C 
ATOM      6  C   UNL     1      12.744   6.981  20.645  0.00  0.00    +0.164 C 
ATOM      7  O   UNL     1      13.149   6.867  19.935  0.00  0.00    -0.350 OA
ATOM      8  C   UNL     1      13.838   7.318  19.959  0.00  0.00    +0.169 C 
ATOM      9  C   UNL     1      14.515   7.527  19.536  0.00  0.00    +0.170 C 
ATOM     10  C   UNL     1      14.955   8.049  19.999  0.00  0.00    +0.169 C 
ATOM     11  O   UNL     1      14.550   8.163  20.708  0.00  0.00    -0.350 OA
ATOM     12  C   UNL     1      13.860   7.711  20.684  0.00  0.00    +0.164 C 
BRANCH   5   4
ATOM      4  N   UNL     1      12.982   7.770  21.862  0.00  0.00    -0.074 NA
BRANCH   4   2
ATOM      1  O   UNL     1      12.469   8.815  21.934  0.00  0.00    -0.151 OA
ATOM      2  S   UNL     1      12.216   8.034  22.016  0.00  0.00    +0.083 S 
ATOM      3  O   UNL     1      11.962   7.253  22.098  0.00  0.00    -0.151 OA
BRANCH   2  31
ATOM     31  C   UNL     1      11.450   8.299  22.169  0.00  0.00    +0.153 A 
ATOM     32  C   UNL     1      11.239   9.061  22.408  0.00  0.00    +0.027 A 
ATOM     33  C   UNL     1      10.420   9.082  22.497  0.00  0.00    +0.009 A 
ATOM     34  C   UNL     1      10.123   8.335  22.314  0.00  0.00    +0.037 A 
ATOM     35  S   UNL     1      10.760   7.850  22.111  0.00  0.00    -0.067 S 
ENDBRANCH   2  31
ENDBRANCH   4   2
ENDBRANCH   5   4
ENDBRANCH  13   9
BRANCH  17  18
ATOM     18  O   UNL     1      14.252   8.414  17.998  0.00  0.00    -0.421 OA
BRANCH  18  19
ATOM     19  C   UNL     1      13.912   8.640  17.281  0.00  0.00    +0.150 A 
ATOM     20  C   UNL     1      14.392   8.863  16.649  0.00  0.00    +0.038 A 
ATOM     21  C   UNL     1      14.052   9.088  15.932  0.00  0.00    +0.004 A 
ATOM     22  C   UNL     1      13.231   9.091  15.847  0.00  0.00    +0.015 A 
ATOM     23  C   UNL     1      12.750   8.868  16.480  0.00  0.00    +0.051 A 
ATOM     24  C   UNL     1      13.091   8.642  17.197  0.00  0.00    +0.052 A 
BRANCH  23  25
ATOM     25  N   UNL     1      11.930   8.870  16.396  0.00  0.00    -0.303 N 
ATOM     26  C   UNL     1      11.589   9.091  15.678  0.00  0.00    +0.123 C 
ATOM     27  C   UNL     1      10.769   9.094  15.594  0.00  0.00    +0.164 C 
ATOM     28  O   UNL     1      10.289   8.875  16.227  0.00  0.00    -0.350 OA
ATOM     29  C   UNL     1      10.629   8.654  16.946  0.00  0.00    +0.164 C 
ATOM     30  C   UNL     1      11.449   8.652  17.030  0.00  0.00    +0.123 C 
ENDBRANCH  23  25
ENDBRANCH  18  19
ENDBRANCH  17  18
TORSDOF 7
ENDMDL
