MODEL 1
REMARK VINA RESULT:     -10.9      0.000      0.000
REMARK  Name = 
REMARK  5 active torsions:
REMARK  status: ('A' for Active; 'I' for Inactive)
REMARK    1  A    between atoms: C_3  and  C_4
REMARK    2  A    between atoms: C_4  and  N_5
REMARK    3  A    between atoms: C_6  and  C_8
REMARK    4  A    between atoms: C_16  and  N_17
REMARK    5  A    between atoms: N_17  and  C_18
REMARK                            x       y       z     vdW  Elec       q    Type
REMARK                         _______ _______ _______ _____ _____    ______ ____
ROOT
ATOM      1  O   UNL     1      -4.908   1.168  25.413  0.00  0.00    -0.219 OA
ATOM      2  C   UNL     1      -4.262   1.024  24.919  0.00  0.00    +0.199 C 
ATOM      3  C   UNL     1      -3.672   1.565  24.722  0.00  0.00    +0.169 C 
ATOM     14  O   UNL     1      -3.139   1.189  24.217  0.00  0.00    -0.350 OA
ATOM     15  C   UNL     1      -3.400   0.415  24.101  0.00  0.00    +0.162 C 
ATOM     16  C   UNL     1      -4.095   0.313  24.535  0.00  0.00    +0.135 C 
ENDROOT
BRANCH   3   4
ATOM      4  C   UNL     1      -3.622   2.346  24.985  0.00  0.00    +0.148 C 
BRANCH   4   5
ATOM      5  N   UNL     1      -2.910   2.758  24.925  0.00  0.00    -0.199 NA
ATOM      6  C   UNL     1      -2.837   3.506  25.262  0.00  0.00    +0.265 C 
ATOM      7  O   UNL     1      -3.476   3.845  25.659  0.00  0.00    -0.268 OA
BRANCH   6   8
ATOM      8  C   UNL     1      -2.124   3.919  25.202  0.00  0.00    +0.058 A 
ATOM      9  C   UNL     1      -1.408   3.510  25.219  0.00  0.00    +0.025 A 
ATOM     10  C   UNL     1      -0.696   3.922  25.159  0.00  0.00    +0.099 A 
ATOM     11  N   UNL     1      -0.700   4.743  25.081  0.00  0.00    -0.242 NA
ATOM     12  C   UNL     1      -1.417   5.153  25.064  0.00  0.00    +0.099 A 
ATOM     13  C   UNL     1      -2.129   4.740  25.124  0.00  0.00    +0.025 A 
ENDBRANCH   6   8
ENDBRANCH   4   5
ENDBRANCH   3   4
BRANCH  16  17
ATOM     17  N   UNL     1      -4.542  -0.378  24.578  0.00  0.00    -0.216 NA
BRANCH  17  18
ATOM     18  C   UNL     1      -4.168  -1.113  24.578  0.00  0.00    +0.073 C 
ATOM     19  C   UNL     1      -4.211  -1.599  23.913  0.00  0.00    +0.017 C 
ATOM     20  C   UNL     1      -3.837  -2.334  23.913  0.00  0.00    +0.001 C 
ATOM     21  C   UNL     1      -3.420  -2.584  24.580  0.00  0.00    +0.000 C 
ATOM     22  C   UNL     1      -3.377  -2.098  25.246  0.00  0.00    +0.001 C 
ATOM     23  C   UNL     1      -3.751  -1.363  25.245  0.00  0.00    +0.017 C 
ENDBRANCH  17  18
ENDBRANCH  16  17
TORSDOF 5
ENDMDL
MODEL 2
REMARK VINA RESULT:     -10.2      1.764      2.127
REMARK  Name = 
REMARK  5 active torsions:
REMARK  status: ('A' for Active; 'I' for Inactive)
REMARK    1  A    between atoms: C_3  and  C_4
REMARK    2  A    between atoms: C_4  and  N_5
REMARK    3  A    between atoms: C_6  and  C_8
REMARK    4  A    between atoms: C_16  and  N_17
REMARK    5  A    between atoms: N_17  and  C_18
REMARK                            x       y       z     vdW  Elec       q    Type
REMARK                         _______ _______ _______ _____ _____    ______ ____
ROOT
ATOM      1  O   UNL     1      -1.297  -0.261  26.448  0.00  0.00    -0.219 OA
ATOM      2  C   UNL     1      -1.442  -0.117  25.648  0.00  0.00    +0.199 C 
ATOM      3  C   UNL     1      -1.248   0.571  25.236  0.00  0.00    +0.169 C 
ATOM     14  O   UNL     1      -1.493   0.476  24.453  0.00  0.00    -0.350 OA
ATOM     15  C   UNL     1      -1.837  -0.270  24.382  0.00  0.00    +0.162 C 
ATOM     16  C   UNL     1      -1.805  -0.637  25.120  0.00  0.00    +0.135 C 
ENDROOT
BRANCH   3   4
ATOM      4  C   UNL     1      -0.876   1.236  25.551  0.00  0.00    +0.148 C 
BRANCH   4   5
ATOM      5  N   UNL     1      -1.172   1.989  25.391  0.00  0.00    -0.199 NA
ATOM      6  C   UNL     1      -0.789   2.655  25.690  0.00  0.00    +0.265 C 
ATOM      7  O   UNL     1      -0.109   2.569  26.150  0.00  0.00    -0.268 OA
BRANCH   6   8
ATOM      8  C   UNL     1      -1.085   3.409  25.530  0.00  0.00    +0.058 A 
ATOM      9  C   UNL     1      -1.827   3.630  25.813  0.00  0.00    +0.025 A 
ATOM     10  C   UNL     1      -2.122   4.383  25.653  0.00  0.00    +0.099 A 
ATOM     11  N   UNL     1      -1.675   4.916  25.209  0.00  0.00    -0.242 NA
ATOM     12  C   UNL     1      -0.932   4.695  24.925  0.00  0.00    +0.099 A 
ATOM     13  C   UNL     1      -0.637   3.941  25.086  0.00  0.00    +0.025 A 
ENDBRANCH   6   8
ENDBRANCH   4   5
ENDBRANCH   3   4
BRANCH  16  17
ATOM     17  N   UNL     1      -2.088  -1.391  25.299  0.00  0.00    -0.216 NA
BRANCH  17  18
ATOM     18  C   UNL     1      -2.741  -1.694  24.897  0.00  0.00    +0.073 C 
ATOM     19  C   UNL     1      -3.477  -1.330  24.972  0.00  0.00    +0.017 C 
ATOM     20  C   UNL     1      -4.131  -1.633  24.570  0.00  0.00    +0.001 C 
ATOM     21  C   UNL     1      -4.047  -2.300  24.091  0.00  0.00    +0.000 C 
ATOM     22  C   UNL     1      -3.310  -2.664  24.015  0.00  0.00    +0.001 C 
ATOM     23  C   UNL     1      -2.658  -2.360  24.418  0.00  0.00    +0.017 C 
ENDBRANCH  17  18
ENDBRANCH  16  17
TORSDOF 5
ENDMDL
MODEL 3
REMARK VINA RESULT:     -10.2      1.564      5.600
REMARK  Name = 
REMARK  5 active torsions:
REMARK  status: ('A' for Active; 'I' for Inactive)
REMARK    1  A    between atoms: C_3  and  C_4
REMARK    2  A    between atoms: C_4  and  N_5
REMARK    3  A    between atoms: C_6  and  C_8
REMARK    4  A    between atoms: C_16  and  N_17
REMARK    5  A    between atoms: N_17  and  C_18
REMARK                            x       y       z     vdW  Elec       q    Type
REMARK                         _______ _______ _______ _____ _____    ______ ____
ROOT
ATOM      1  O   UNL     1      -0.546   1.146  25.839  0.00  0.00    -0.219 OA
ATOM      2  C   UNL     1      -1.205   1.423  25.427  0.00  0.00    +0.199 C 
ATOM      3  C   UNL     1      -1.699   0.973  24.943  0.00  0.00    +0.169 C 
ATOM     14  O   UNL     1      -2.286   1.471  24.644  0.00  0.00    -0.350 OA
ATOM     15  C   UNL     1      -2.155   2.228  24.943  0.00  0.00    +0.162 C 
ATOM     16  C   UNL     1      -1.487   2.199  25.428  0.00  0.00    +0.135 C 
ENDROOT
BRANCH   3   4
ATOM      4  C   UNL     1      -1.620   0.167  24.786  0.00  0.00    +0.148 C 
BRANCH   4   5
ATOM      5  N   UNL     1      -2.292  -0.301  24.685  0.00  0.00    -0.199 NA
ATOM      6  C   UNL     1      -2.212  -1.104  24.516  0.00  0.00    +0.265 C 
ATOM      7  O   UNL     1      -1.462  -1.440  24.448  0.00  0.00    -0.268 OA
BRANCH   6   8
ATOM      8  C   UNL     1      -2.884  -1.573  24.415  0.00  0.00    +0.058 A 
ATOM      9  C   UNL     1      -3.522  -1.291  23.975  0.00  0.00    +0.025 A 
ATOM     10  C   UNL     1      -4.193  -1.761  23.874  0.00  0.00    +0.099 A 
ATOM     11  N   UNL     1      -4.226  -2.512  24.213  0.00  0.00    -0.242 NA
ATOM     12  C   UNL     1      -3.587  -2.794  24.653  0.00  0.00    +0.099 A 
ATOM     13  C   UNL     1      -2.916  -2.325  24.754  0.00  0.00    +0.025 A 
ENDBRANCH   6   8
ENDBRANCH   4   5
ENDBRANCH   3   4
BRANCH  16  17
ATOM     17  N   UNL     1      -1.158   2.833  25.839  0.00  0.00    -0.216 NA
BRANCH  17  18
ATOM     18  C   UNL     1      -1.269   3.604  25.567  0.00  0.00    +0.073 C 
ATOM     19  C   UNL     1      -0.699   3.959  25.088  0.00  0.00    +0.017 C 
ATOM     20  C   UNL     1      -0.810   4.730  24.816  0.00  0.00    +0.001 C 
ATOM     21  C   UNL     1      -1.491   5.146  25.023  0.00  0.00    +0.000 C 
ATOM     22  C   UNL     1      -2.062   4.792  25.502  0.00  0.00    +0.001 C 
ATOM     23  C   UNL     1      -1.950   4.021  25.774  0.00  0.00    +0.017 C 
ENDBRANCH  17  18
ENDBRANCH  16  17
TORSDOF 5
ENDMDL
MODEL 4
REMARK VINA RESULT:     -10.0      0.890      5.220
REMARK  Name = 
REMARK  5 active torsions:
REMARK  status: ('A' for Active; 'I' for Inactive)
REMARK    1  A    between atoms: C_3  and  C_4
REMARK    2  A    between atoms: C_4  and  N_5
REMARK    3  A    between atoms: C_6  and  C_8
REMARK    4  A    between atoms: C_16  and  N_17
REMARK    5  A    between atoms: N_17  and  C_18
REMARK                            x       y       z     vdW  Elec       q    Type
REMARK                         _______ _______ _______ _____ _____    ______ ____
ROOT
ATOM      1  O   UNL     1      -4.350   2.345  25.556  0.00  0.00    -0.219 OA
ATOM      2  C   UNL     1      -3.768   2.246  24.979  0.00  0.00    +0.199 C 
ATOM      3  C   UNL     1      -3.690   1.599  24.474  0.00  0.00    +0.169 C 
ATOM     14  O   UNL     1      -3.036   1.731  23.989  0.00  0.00    -0.350 OA
ATOM     15  C   UNL     1      -2.709   2.460  24.195  0.00  0.00    +0.162 C 
ATOM     16  C   UNL     1      -3.161   2.779  24.807  0.00  0.00    +0.135 C 
ENDROOT
BRANCH   3   4
ATOM      4  C   UNL     1      -4.181   0.936  24.456  0.00  0.00    +0.148 C 
BRANCH   4   5
ATOM      5  N   UNL     1      -3.858   0.181  24.532  0.00  0.00    -0.199 NA
ATOM      6  C   UNL     1      -4.340  -0.484  24.458  0.00  0.00    +0.265 C 
ATOM      7  O   UNL     1      -5.147  -0.394  24.309  0.00  0.00    -0.268 OA
BRANCH   6   8
ATOM      8  C   UNL     1      -4.017  -1.239  24.534  0.00  0.00    +0.058 A 
ATOM      9  C   UNL     1      -4.105  -1.789  23.925  0.00  0.00    +0.025 A 
ATOM     10  C   UNL     1      -3.782  -2.544  24.002  0.00  0.00    +0.099 A 
ATOM     11  N   UNL     1      -3.370  -2.750  24.686  0.00  0.00    -0.242 NA
ATOM     12  C   UNL     1      -3.282  -2.200  25.296  0.00  0.00    +0.099 A 
ATOM     13  C   UNL     1      -3.606  -1.445  25.219  0.00  0.00    +0.025 A 
ENDBRANCH   6   8
ENDBRANCH   4   5
ENDBRANCH   3   4
BRANCH  16  17
ATOM     17  N   UNL     1      -3.030   3.502  25.180  0.00  0.00    -0.216 NA
BRANCH  17  18
ATOM     18  C   UNL     1      -2.273   3.829  25.193  0.00  0.00    +0.073 C 
ATOM     19  C   UNL     1      -1.668   3.452  25.607  0.00  0.00    +0.017 C 
ATOM     20  C   UNL     1      -0.910   3.780  25.620  0.00  0.00    +0.001 C 
ATOM     21  C   UNL     1      -0.759   4.484  25.219  0.00  0.00    +0.000 C 
ATOM     22  C   UNL     1      -1.365   4.861  24.804  0.00  0.00    +0.001 C 
ATOM     23  C   UNL     1      -2.121   4.533  24.792  0.00  0.00    +0.017 C 
ENDBRANCH  17  18
ENDBRANCH  16  17
TORSDOF 5
ENDMDL
MODEL 5
REMARK VINA RESULT:      -8.0     17.669     19.330
REMARK  Name = 
REMARK  5 active torsions:
REMARK  status: ('A' for Active; 'I' for Inactive)
REMARK    1  A    between atoms: C_3  and  C_4
REMARK    2  A    between atoms: C_4  and  N_5
REMARK    3  A    between atoms: C_6  and  C_8
REMARK    4  A    between atoms: C_16  and  N_17
REMARK    5  A    between atoms: N_17  and  C_18
REMARK                            x       y       z     vdW  Elec       q    Type
REMARK                         _______ _______ _______ _____ _____    ______ ____
ROOT
ATOM      1  O   UNL     1      13.212   6.740  20.055  0.00  0.00    -0.219 OA
ATOM      2  C   UNL     1      13.706   7.059  19.477  0.00  0.00    +0.199 C 
ATOM      3  C   UNL     1      13.486   7.605  18.899  0.00  0.00    +0.169 C 
ATOM     14  O   UNL     1      14.151   7.772  18.439  0.00  0.00    -0.350 OA
ATOM     15  C   UNL     1      14.781   7.328  18.732  0.00  0.00    +0.162 C 
ATOM     16  C   UNL     1      14.507   6.887  19.374  0.00  0.00    +0.135 C 
ENDROOT
BRANCH   3   4
ATOM      4  C   UNL     1      12.734   7.929  18.799  0.00  0.00    +0.148 C 
BRANCH   4   5
ATOM      5  N   UNL     1      12.448   8.082  18.041  0.00  0.00    -0.199 NA
ATOM      6  C   UNL     1      11.715   8.448  17.942  0.00  0.00    +0.265 C 
ATOM      7  O   UNL     1      11.268   8.660  18.602  0.00  0.00    -0.268 OA
BRANCH   6   8
ATOM      8  C   UNL     1      11.429   8.602  17.183  0.00  0.00    +0.058 A 
ATOM      9  C   UNL     1      11.923   8.940  16.617  0.00  0.00    +0.025 A 
ATOM     10  C   UNL     1      11.636   9.094  15.859  0.00  0.00    +0.099 A 
ATOM     11  N   UNL     1      10.856   8.909  15.667  0.00  0.00    -0.242 NA
ATOM     12  C   UNL     1      10.361   8.570  16.235  0.00  0.00    +0.099 A 
ATOM     13  C   UNL     1      10.648   8.416  16.993  0.00  0.00    +0.025 A 
ENDBRANCH   6   8
ENDBRANCH   4   5
ENDBRANCH   3   4
BRANCH  16  17
ATOM     17  N   UNL     1      14.953   6.367  19.831  0.00  0.00    -0.216 NA
BRANCH  17  18
ATOM     18  C   UNL     1      15.771   6.464  19.888  0.00  0.00    +0.073 C 
ATOM     19  C   UNL     1      16.267   6.121  19.326  0.00  0.00    +0.017 C 
ATOM     20  C   UNL     1      17.085   6.218  19.382  0.00  0.00    +0.001 C 
ATOM     21  C   UNL     1      17.405   6.658  20.002  0.00  0.00    +0.000 C 
ATOM     22  C   UNL     1      16.909   7.001  20.565  0.00  0.00    +0.001 C 
ATOM     23  C   UNL     1      16.092   6.904  20.507  0.00  0.00    +0.017 C 
ENDBRANCH  17  18
ENDBRANCH  16  17
TORSDOF 5
ENDMDL
MODEL 6
REMARK VINA RESULT:      -7.9     16.033     18.658
REMARK  Name = 
REMARK  5 active torsions:
REMARK  status: ('A' for Active; 'I' for Inactive)
REMARK    1  A    between atoms: C_3  and  C_4
REMARK    2  A    between atoms: C_4  and  N_5
REMARK    3  A    between atoms: C_6  and  C_8
REMARK    4  A    between atoms: C_16  and  N_17
REMARK    5  A    between atoms: N_17  and  C_18
REMARK                            x       y       z     vdW  Elec       q    Type
REMARK                         _______ _______ _______ _____ _____    ______ ____
ROOT
ATOM      1  O   UNL     1      12.153   6.629  19.107  0.00  0.00    -0.219 OA
ATOM      2  C   UNL     1      12.437   7.316  19.465  0.00  0.00    +0.199 C 
ATOM      3  C   UNL     1      13.207   7.607  19.415  0.00  0.00    +0.169 C 
ATOM     14  O   UNL     1      13.246   8.304  19.855  0.00  0.00    -0.350 OA
ATOM     15  C   UNL     1      12.499   8.444  20.177  0.00  0.00    +0.162 C 
ATOM     16  C   UNL     1      11.999   7.834  19.936  0.00  0.00    +0.135 C 
ENDROOT
BRANCH   3   4
ATOM      4  C   UNL     1      13.830   7.261  18.997  0.00  0.00    +0.148 C 
BRANCH   4   5
ATOM      5  N   UNL     1      14.556   7.139  19.368  0.00  0.00    -0.199 NA
ATOM      6  C   UNL     1      15.222   6.953  18.918  0.00  0.00    +0.265 C 
ATOM      7  O   UNL     1      15.162   6.891  18.097  0.00  0.00    -0.268 OA
BRANCH   6   8
ATOM      8  C   UNL     1      15.950   6.831  19.288  0.00  0.00    +0.058 A 
ATOM      9  C   UNL     1      16.245   7.393  19.813  0.00  0.00    +0.025 A 
ATOM     10  C   UNL     1      16.973   7.270  20.183  0.00  0.00    +0.099 A 
ATOM     11  N   UNL     1      17.404   6.584  20.027  0.00  0.00    -0.242 NA
ATOM     12  C   UNL     1      17.108   6.022  19.500  0.00  0.00    +0.099 A 
ATOM     13  C   UNL     1      16.381   6.145  19.131  0.00  0.00    +0.025 A 
ENDBRANCH   6   8
ENDBRANCH   4   5
ENDBRANCH   3   4
BRANCH  16  17
ATOM     17  N   UNL     1      11.202   7.755  20.131  0.00  0.00    -0.216 NA
BRANCH  17  18
ATOM     18  C   UNL     1      10.948   7.909  20.901  0.00  0.00    +0.073 C 
ATOM     19  C   UNL     1      10.810   8.685  21.143  0.00  0.00    +0.017 C 
ATOM     20  C   UNL     1      10.556   8.839  21.912  0.00  0.00    +0.001 C 
ATOM     21  C   UNL     1      10.440   8.217  22.441  0.00  0.00    +0.000 C 
ATOM     22  C   UNL     1      10.578   7.439  22.199  0.00  0.00    +0.001 C 
ATOM     23  C   UNL     1      10.832   7.286  21.430  0.00  0.00    +0.017 C 
ENDBRANCH  17  18
ENDBRANCH  16  17
TORSDOF 5
ENDMDL
MODEL 7
REMARK VINA RESULT:      -7.5     17.635     19.222
REMARK  Name = 
REMARK  5 active torsions:
REMARK  status: ('A' for Active; 'I' for Inactive)
REMARK    1  A    between atoms: C_3  and  C_4
REMARK    2  A    between atoms: C_4  and  N_5
REMARK    3  A    between atoms: C_6  and  C_8
REMARK    4  A    between atoms: C_16  and  N_17
REMARK    5  A    between atoms: N_17  and  C_18
REMARK                            x       y       z     vdW  Elec       q    Type
REMARK                         _______ _______ _______ _____ _____    ______ ____
ROOT
ATOM      1  O   UNL     1      12.447   8.554  19.702  0.00  0.00    -0.219 OA
ATOM      2  C   UNL     1      12.587   8.059  19.057  0.00  0.00    +0.199 C 
ATOM      3  C   UNL     1      13.137   7.446  19.028  0.00  0.00    +0.169 C 
ATOM     14  O   UNL     1      13.092   7.098  18.281  0.00  0.00    -0.350 OA
ATOM     15  C   UNL     1      12.514   7.497  17.848  0.00  0.00    +0.162 C 
ATOM     16  C   UNL     1      12.202   8.092  18.328  0.00  0.00    +0.135 C 
ENDROOT
BRANCH   3   4
ATOM      4  C   UNL     1      13.644   7.219  19.639  0.00  0.00    +0.148 C 
BRANCH   4   5
ATOM      5  N   UNL     1      14.451   7.129  19.493  0.00  0.00    -0.199 NA
ATOM      6  C   UNL     1      14.950   6.858  20.091  0.00  0.00    +0.265 C 
ATOM      7  O   UNL     1      14.642   6.675  20.835  0.00  0.00    -0.268 OA
BRANCH   6   8
ATOM      8  C   UNL     1      15.757   6.768  19.947  0.00  0.00    +0.058 A 
ATOM      9  C   UNL     1      16.018   6.226  19.382  0.00  0.00    +0.025 A 
ATOM     10  C   UNL     1      16.825   6.137  19.238  0.00  0.00    +0.099 A 
ATOM     11  N   UNL     1      17.372   6.589  19.658  0.00  0.00    -0.242 NA
ATOM     12  C   UNL     1      17.111   7.131  20.223  0.00  0.00    +0.099 A 
ATOM     13  C   UNL     1      16.304   7.221  20.368  0.00  0.00    +0.025 A 
ENDBRANCH   6   8
ENDBRANCH   4   5
ENDBRANCH   3   4
BRANCH  16  17
ATOM     17  N   UNL     1      11.609   8.624  18.116  0.00  0.00    -0.216 NA
BRANCH  17  18
ATOM     18  C   UNL     1      11.372   8.687  17.328  0.00  0.00    +0.073 C 
ATOM     19  C   UNL     1      10.633   8.406  17.096  0.00  0.00    +0.017 C 
ATOM     20  C   UNL     1      10.396   8.469  16.308  0.00  0.00    +0.001 C 
ATOM     21  C   UNL     1      10.899   8.813  15.753  0.00  0.00    +0.000 C 
ATOM     22  C   UNL     1      11.640   9.094  15.985  0.00  0.00    +0.001 C 
ATOM     23  C   UNL     1      11.876   9.031  16.773  0.00  0.00    +0.017 C 
ENDBRANCH  17  18
ENDBRANCH  16  17
TORSDOF 5
ENDMDL
MODEL 8
REMARK VINA RESULT:      -7.1     15.739     18.277
REMARK  Name = 
REMARK  5 active torsions:
REMARK  status: ('A' for Active; 'I' for Inactive)
REMARK    1  A    between atoms: C_3  and  C_4
REMARK    2  A    between atoms: C_4  and  N_5
REMARK    3  A    between atoms: C_6  and  C_8
REMARK    4  A    between atoms: C_16  and  N_17
REMARK    5  A    between atoms: N_17  and  C_18
REMARK                            x       y       z     vdW  Elec       q    Type
REMARK                         _______ _______ _______ _____ _____    ______ ____
ROOT
ATOM      1  O   UNL     1      13.902   7.219  20.532  0.00  0.00    -0.219 OA
ATOM      2  C   UNL     1      13.190   7.120  20.127  0.00  0.00    +0.199 C 
ATOM      3  C   UNL     1      13.074   7.224  19.317  0.00  0.00    +0.169 C 
ATOM     14  O   UNL     1      12.281   7.067  19.151  0.00  0.00    -0.350 OA
ATOM     15  C   UNL     1      11.907   6.866  19.858  0.00  0.00    +0.162 C 
ATOM     16  C   UNL     1      12.469   6.898  20.462  0.00  0.00    +0.135 C 
ENDROOT
BRANCH   3   4
ATOM      4  C   UNL     1      13.650   7.447  18.769  0.00  0.00    +0.148 C 
BRANCH   4   5
ATOM      5  N   UNL     1      13.426   7.737  18.030  0.00  0.00    -0.199 NA
ATOM      6  C   UNL     1      13.972   8.141  17.564  0.00  0.00    +0.265 C 
ATOM      7  O   UNL     1      14.743   8.255  17.835  0.00  0.00    -0.268 OA
BRANCH   6   8
ATOM      8  C   UNL     1      13.749   8.432  16.824  0.00  0.00    +0.058 A 
ATOM      9  C   UNL     1      14.256   8.352  16.179  0.00  0.00    +0.025 A 
ATOM     10  C   UNL     1      14.032   8.642  15.440  0.00  0.00    +0.099 A 
ATOM     11  N   UNL     1      13.301   9.013  15.346  0.00  0.00    -0.242 NA
ATOM     12  C   UNL     1      12.794   9.094  15.993  0.00  0.00    +0.099 A 
ATOM     13  C   UNL     1      13.017   8.803  16.731  0.00  0.00    +0.025 A 
ENDBRANCH   6   8
ENDBRANCH   4   5
ENDBRANCH   3   4
BRANCH  16  17
ATOM     17  N   UNL     1      12.333   6.737  21.259  0.00  0.00    -0.216 NA
BRANCH  17  18
ATOM     18  C   UNL     1      11.653   7.023  21.628  0.00  0.00    +0.073 C 
ATOM     19  C   UNL     1      10.963   6.572  21.627  0.00  0.00    +0.017 C 
ATOM     20  C   UNL     1      10.282   6.858  21.996  0.00  0.00    +0.001 C 
ATOM     21  C   UNL     1      10.293   7.594  22.367  0.00  0.00    +0.000 C 
ATOM     22  C   UNL     1      10.984   8.045  22.369  0.00  0.00    +0.001 C 
ATOM     23  C   UNL     1      11.664   7.759  21.999  0.00  0.00    +0.017 C 
ENDBRANCH  17  18
ENDBRANCH  16  17
TORSDOF 5
ENDMDL
