REMARK  Name = 
REMARK  4 active torsions:
REMARK  status: ('A' for Active; 'I' for Inactive)
REMARK    1  A    between atoms: S_2  and  N_5
REMARK    2  A    between atoms: N_5  and  C_6
REMARK    3  A    between atoms: C_9  and  C_12
REMARK    4  A    between atoms: CA_18  and  C_19
REMARK                            x       y       z     vdW  Elec       q    Type
REMARK                         _______ _______ _______ _____ _____    ______ ____
ROOT
ATOM      6  C   UNL     1       0.715  -1.238   0.000  0.00  0.00    +0.091 A 
ATOM      7  C   UNL     1       1.429  -1.650   0.000  0.00  0.00    +0.018 A 
ATOM      8  C   UNL     1       1.429  -2.475   0.000  0.00  0.00    -0.001 A 
ATOM      9  C   UNL     1       0.715  -2.888   0.000  0.00  0.00    +0.006 A 
ATOM     10  C   UNL     1       0.000  -2.475   0.000  0.00  0.00    -0.001 A 
ATOM     11  C   UNL     1       0.000  -1.650   0.000  0.00  0.00    +0.018 A 
ENDROOT
BRANCH   9  12
ATOM     12  C   UNL     1       0.715  -3.712   0.000  0.00  0.00    +0.160 C 
ATOM     13  O   UNL     1       1.429  -4.125   0.000  0.00  0.00    -0.341 OA
ATOM     14  C   UNL     1       1.429  -4.950   0.000  0.00  0.00    +0.229 C 
ATOM     15  C   UNL     1       0.715  -5.362   0.000  0.00  0.00    +0.272 C 
ATOM     16  O   UNL     1       0.715  -6.188   0.000  0.00  0.00    -0.271 OA
ATOM     17  N   UNL     1       0.000  -4.950   0.000  0.00  0.00    -0.199 NA
ATOM     18  CA  UNL     1       0.000  -4.125   0.000  0.00  0.00    +0.159 C 
BRANCH  18  19
ATOM     19  C   UNL     1      -0.715  -3.712   0.000  0.00  0.00    +0.206 C 
ATOM     20  O   UNL     1      -0.715  -2.888   0.000  0.00  0.00    -0.218 OA
ENDBRANCH  18  19
ENDBRANCH   9  12
BRANCH   6   5
ATOM      5  N   UNL     1       0.715  -0.412   0.000  0.00  0.00    -0.101 NA
BRANCH   5   2
ATOM      1  C   UNL     1      -0.715   0.412   0.000  0.00  0.00    +0.202 C 
ATOM      2  S   UNL     1       0.000   0.000   0.000  0.00  0.00    +0.075 S 
ATOM      3  O   UNL     1      -0.412  -0.715   0.000  0.00  0.00    -0.153 OA
ATOM      4  O   UNL     1       0.412   0.715   0.000  0.00  0.00    -0.153 OA
ENDBRANCH   5   2
ENDBRANCH   6   5
TORSDOF 4
