MODEL 1
REMARK VINA RESULT:     -11.3      0.000      0.000
REMARK  Name = 
REMARK  4 active torsions:
REMARK  status: ('A' for Active; 'I' for Inactive)
REMARK    1  A    between atoms: C_7  and  N_10
REMARK    2  A    between atoms: C_14  and  C_15
REMARK    3  A    between atoms: C_17  and  C_20
REMARK    4  A    between atoms: C_23  and  N_26
REMARK                            x       y       z     vdW  Elec       q    Type
REMARK                         _______ _______ _______ _____ _____    ______ ____
ROOT
ATOM     15  C   UNL     1      -1.050   3.127  25.449  0.00  0.00    +0.251 A 
ATOM     16  N   UNL     1      -1.276   2.458  25.022  0.00  0.00    -0.190 NA
ATOM     17  C   UNL     1      -1.127   1.795  25.490  0.00  0.00    +0.205 A 
ATOM     18  N   UNL     1      -0.809   2.054  26.205  0.00  0.00    -0.056 NA
ATOM     19  O   UNL     1      -0.762   2.876  26.180  0.00  0.00    -0.336 OA
ENDROOT
BRANCH  17  20
ATOM     20  C   UNL     1      -1.271   1.010  25.278  0.00  0.00    +0.058 A 
ATOM     21  C   UNL     1      -1.673   0.511  25.797  0.00  0.00    +0.008 A 
ATOM     22  C   UNL     1      -1.816  -0.274  25.586  0.00  0.00    +0.034 A 
ATOM     23  C   UNL     1      -1.558  -0.559  24.856  0.00  0.00    +0.132 A 
ATOM     24  N   UNL     1      -1.155  -0.060  24.337  0.00  0.00    -0.229 NA
ATOM     25  C   UNL     1      -1.012   0.725  24.549  0.00  0.00    +0.103 A 
BRANCH  23  26
ATOM     26  N   UNL     1      -1.701  -1.344  24.645  0.00  0.00    -0.288 N 
ATOM     27  C   UNL     1      -1.071  -1.868  24.556  0.00  0.00    +0.124 C 
ATOM     28  C   UNL     1      -1.214  -2.653  24.345  0.00  0.00    +0.164 C 
ATOM     29  O   UNL     1      -1.988  -2.913  24.222  0.00  0.00    -0.350 OA
ATOM     30  C   UNL     1      -2.618  -2.388  24.311  0.00  0.00    +0.164 C 
ATOM     31  C   UNL     1      -2.475  -1.603  24.522  0.00  0.00    +0.124 C 
ENDBRANCH  23  26
ENDBRANCH  17  20
BRANCH  15  14
ATOM     10  N   UNL     1      -1.798   4.345  25.108  0.00  0.00    -0.268 NA
ATOM     11  C   UNL     1      -1.597   5.097  24.835  0.00  0.00    +0.072 C 
ATOM     12  C   UNL     1      -0.776   5.124  24.748  0.00  0.00    +0.019 C 
ATOM     13  C   UNL     1      -0.472   4.390  24.967  0.00  0.00    +0.027 C 
ATOM     14  C   UNL     1      -1.104   3.908  25.190  0.00  0.00    +0.138 C 
BRANCH  10   7
ATOM      1  C   UNL     1      -5.314   2.955  25.155  0.00  0.00    +0.095 C 
ATOM      2  C   UNL     1      -4.851   3.273  25.758  0.00  0.00    +0.226 C 
ATOM      3  O   UNL     1      -5.151   3.324  26.525  0.00  0.00    -0.275 OA
ATOM      4  N   UNL     1      -4.088   3.541  25.596  0.00  0.00    -0.279 N 
ATOM      5  C   UNL     1      -3.625   3.860  26.200  0.00  0.00    +0.095 C 
ATOM      6  C   UNL     1      -2.862   4.128  26.038  0.00  0.00    +0.038 C 
ATOM      7  C   UNL     1      -2.561   4.077  25.270  0.00  0.00    +0.061 C 
ATOM      8  C   UNL     1      -3.024   3.758  24.667  0.00  0.00    +0.038 C 
ATOM      9  C   UNL     1      -3.788   3.490  24.829  0.00  0.00    +0.095 C 
ENDBRANCH  10   7
ENDBRANCH  15  14
TORSDOF 4
ENDMDL
MODEL 2
REMARK VINA RESULT:     -11.2      1.358      2.961
REMARK  Name = 
REMARK  4 active torsions:
REMARK  status: ('A' for Active; 'I' for Inactive)
REMARK    1  A    between atoms: C_7  and  N_10
REMARK    2  A    between atoms: C_14  and  C_15
REMARK    3  A    between atoms: C_17  and  C_20
REMARK    4  A    between atoms: C_23  and  N_26
REMARK                            x       y       z     vdW  Elec       q    Type
REMARK                         _______ _______ _______ _____ _____    ______ ____
ROOT
ATOM     15  C   UNL     1      -4.396   2.479  24.675  0.00  0.00    +0.251 A 
ATOM     16  N   UNL     1      -4.229   1.719  24.952  0.00  0.00    -0.190 NA
ATOM     17  C   UNL     1      -3.938   1.276  24.321  0.00  0.00    +0.205 A 
ATOM     18  N   UNL     1      -3.924   1.761  23.654  0.00  0.00    -0.056 NA
ATOM     19  O   UNL     1      -4.207   2.503  23.873  0.00  0.00    -0.336 OA
ENDROOT
BRANCH  17  20
ATOM     20  C   UNL     1      -3.701   0.486  24.351  0.00  0.00    +0.058 A 
ATOM     21  C   UNL     1      -4.255  -0.115  24.233  0.00  0.00    +0.008 A 
ATOM     22  C   UNL     1      -4.018  -0.905  24.264  0.00  0.00    +0.034 A 
ATOM     23  C   UNL     1      -3.229  -1.094  24.412  0.00  0.00    +0.132 A 
ATOM     24  N   UNL     1      -2.676  -0.493  24.529  0.00  0.00    -0.229 NA
ATOM     25  C   UNL     1      -2.912   0.297  24.499  0.00  0.00    +0.103 A 
BRANCH  23  26
ATOM     26  N   UNL     1      -2.992  -1.884  24.442  0.00  0.00    -0.288 N 
ATOM     27  C   UNL     1      -3.556  -2.480  24.534  0.00  0.00    +0.124 C 
ATOM     28  C   UNL     1      -3.319  -3.270  24.564  0.00  0.00    +0.164 C 
ATOM     29  O   UNL     1      -2.520  -3.464  24.503  0.00  0.00    -0.350 OA
ATOM     30  C   UNL     1      -1.956  -2.868  24.411  0.00  0.00    +0.164 C 
ATOM     31  C   UNL     1      -2.193  -2.078  24.381  0.00  0.00    +0.124 C 
ENDBRANCH  23  26
ENDBRANCH  17  20
BRANCH  15  14
ATOM     10  N   UNL     1      -4.260   3.714  25.457  0.00  0.00    -0.268 NA
ATOM     11  C   UNL     1      -4.782   4.214  25.855  0.00  0.00    +0.072 C 
ATOM     12  C   UNL     1      -5.544   3.910  25.766  0.00  0.00    +0.019 C 
ATOM     13  C   UNL     1      -5.492   3.222  25.313  0.00  0.00    +0.027 C 
ATOM     14  C   UNL     1      -4.698   3.102  25.122  0.00  0.00    +0.138 C 
BRANCH  10   7
ATOM      1  C   UNL     1      -0.664   4.524  24.616  0.00  0.00    +0.095 C 
ATOM      2  C   UNL     1      -0.990   4.101  25.245  0.00  0.00    +0.226 C 
ATOM      3  O   UNL     1      -0.497   3.775  25.821  0.00  0.00    -0.275 OA
ATOM      4  N   UNL     1      -1.808   4.005  25.298  0.00  0.00    -0.279 N 
ATOM      5  C   UNL     1      -2.132   3.581  25.927  0.00  0.00    +0.095 C 
ATOM      6  C   UNL     1      -2.950   3.484  25.981  0.00  0.00    +0.038 C 
ATOM      7  C   UNL     1      -3.443   3.811  25.404  0.00  0.00    +0.061 C 
ATOM      8  C   UNL     1      -3.117   4.234  24.776  0.00  0.00    +0.038 C 
ATOM      9  C   UNL     1      -2.299   4.331  24.722  0.00  0.00    +0.095 C 
ENDBRANCH  10   7
ENDBRANCH  15  14
TORSDOF 4
ENDMDL
MODEL 3
REMARK VINA RESULT:     -11.0      2.471      4.254
REMARK  Name = 
REMARK  4 active torsions:
REMARK  status: ('A' for Active; 'I' for Inactive)
REMARK    1  A    between atoms: C_7  and  N_10
REMARK    2  A    between atoms: C_14  and  C_15
REMARK    3  A    between atoms: C_17  and  C_20
REMARK    4  A    between atoms: C_23  and  N_26
REMARK                            x       y       z     vdW  Elec       q    Type
REMARK                         _______ _______ _______ _____ _____    ______ ____
ROOT
ATOM     15  C   UNL     1      -2.464   1.136  24.893  0.00  0.00    +0.251 A 
ATOM     16  N   UNL     1      -1.918   1.066  24.277  0.00  0.00    -0.190 NA
ATOM     17  C   UNL     1      -1.189   0.862  24.605  0.00  0.00    +0.205 A 
ATOM     18  N   UNL     1      -1.284   0.806  25.422  0.00  0.00    -0.056 NA
ATOM     19  O   UNL     1      -2.071   0.975  25.600  0.00  0.00    -0.336 OA
ENDROOT
BRANCH  17  20
ATOM     20  C   UNL     1      -0.488   0.737  24.188  0.00  0.00    +0.058 A 
ATOM     21  C   UNL     1      -0.281  -0.025  23.950  0.00  0.00    +0.008 A 
ATOM     22  C   UNL     1       0.420  -0.151  23.533  0.00  0.00    +0.034 A 
ATOM     23  C   UNL     1       0.913   0.485  23.355  0.00  0.00    +0.132 A 
ATOM     24  N   UNL     1       0.707   1.248  23.593  0.00  0.00    -0.229 NA
ATOM     25  C   UNL     1       0.006   1.373  24.010  0.00  0.00    +0.103 A 
BRANCH  23  26
ATOM     26  N   UNL     1       1.615   0.360  22.938  0.00  0.00    -0.288 N 
ATOM     27  C   UNL     1       2.321   0.687  23.211  0.00  0.00    +0.124 C 
ATOM     28  C   UNL     1       3.022   0.562  22.794  0.00  0.00    +0.164 C 
ATOM     29  O   UNL     1       3.016   0.109  22.105  0.00  0.00    -0.350 OA
ATOM     30  C   UNL     1       2.310  -0.219  21.831  0.00  0.00    +0.164 C 
ATOM     31  C   UNL     1       1.609  -0.093  22.248  0.00  0.00    +0.124 C 
ENDBRANCH  23  26
ENDBRANCH  17  20
BRANCH  15  14
ATOM     10  N   UNL     1      -3.887   0.800  24.751  0.00  0.00    -0.268 NA
ATOM     11  C   UNL     1      -4.585   1.233  24.682  0.00  0.00    +0.072 C 
ATOM     12  C   UNL     1      -4.390   2.035  24.702  0.00  0.00    +0.019 C 
ATOM     13  C   UNL     1      -3.572   2.096  24.784  0.00  0.00    +0.027 C 
ATOM     14  C   UNL     1      -3.261   1.332  24.814  0.00  0.00    +0.138 C 
BRANCH  10   7
ATOM      1  C   UNL     1      -3.656  -2.910  24.063  0.00  0.00    +0.095 C 
ATOM      2  C   UNL     1      -3.643  -2.491  24.773  0.00  0.00    +0.226 C 
ATOM      3  O   UNL     1      -3.569  -2.895  25.489  0.00  0.00    -0.275 OA
ATOM      4  N   UNL     1      -3.704  -1.668  24.767  0.00  0.00    -0.279 N 
ATOM      5  C   UNL     1      -3.691  -1.249  25.478  0.00  0.00    +0.095 C 
ATOM      6  C   UNL     1      -3.752  -0.426  25.473  0.00  0.00    +0.038 C 
ATOM      7  C   UNL     1      -3.826  -0.023  24.757  0.00  0.00    +0.061 C 
ATOM      8  C   UNL     1      -3.839  -0.442  24.047  0.00  0.00    +0.038 C 
ATOM      9  C   UNL     1      -3.778  -1.265  24.052  0.00  0.00    +0.095 C 
ENDBRANCH  10   7
ENDBRANCH  15  14
TORSDOF 4
ENDMDL
MODEL 4
REMARK VINA RESULT:     -10.4      2.601      4.217
REMARK  Name = 
REMARK  4 active torsions:
REMARK  status: ('A' for Active; 'I' for Inactive)
REMARK    1  A    between atoms: C_7  and  N_10
REMARK    2  A    between atoms: C_14  and  C_15
REMARK    3  A    between atoms: C_17  and  C_20
REMARK    4  A    between atoms: C_23  and  N_26
REMARK                            x       y       z     vdW  Elec       q    Type
REMARK                         _______ _______ _______ _____ _____    ______ ____
ROOT
ATOM     15  C   UNL     1      -2.295  -0.535  24.742  0.00  0.00    +0.251 A 
ATOM     16  N   UNL     1      -1.705  -0.531  24.165  0.00  0.00    -0.190 NA
ATOM     17  C   UNL     1      -1.034  -0.178  24.488  0.00  0.00    +0.205 A 
ATOM     18  N   UNL     1      -1.209   0.038  25.264  0.00  0.00    -0.056 NA
ATOM     19  O   UNL     1      -1.987  -0.183  25.421  0.00  0.00    -0.336 OA
ENDROOT
BRANCH  17  20
ATOM     20  C   UNL     1      -0.314  -0.060  24.102  0.00  0.00    +0.058 A 
ATOM     21  C   UNL     1      -0.063   0.705  23.924  0.00  0.00    +0.008 A 
ATOM     22  C   UNL     1       0.657   0.823  23.538  0.00  0.00    +0.034 A 
ATOM     23  C   UNL     1       1.124   0.176  23.330  0.00  0.00    +0.132 A 
ATOM     24  N   UNL     1       0.873  -0.589  23.507  0.00  0.00    -0.229 NA
ATOM     25  C   UNL     1       0.153  -0.707  23.894  0.00  0.00    +0.103 A 
BRANCH  23  26
ATOM     26  N   UNL     1       1.844   0.293  22.943  0.00  0.00    -0.288 N 
ATOM     27  C   UNL     1       1.999  -0.095  22.232  0.00  0.00    +0.124 C 
ATOM     28  C   UNL     1       2.719   0.022  21.846  0.00  0.00    +0.164 C 
ATOM     29  O   UNL     1       3.283   0.529  22.171  0.00  0.00    -0.350 OA
ATOM     30  C   UNL     1       3.129   0.917  22.882  0.00  0.00    +0.164 C 
ATOM     31  C   UNL     1       2.409   0.800  23.268  0.00  0.00    +0.124 C 
ENDBRANCH  23  26
ENDBRANCH  17  20
BRANCH  15  14
ATOM     10  N   UNL     1      -3.737  -0.398  24.498  0.00  0.00    -0.268 NA
ATOM     11  C   UNL     1      -4.375  -0.920  24.455  0.00  0.00    +0.072 C 
ATOM     12  C   UNL     1      -4.088  -1.683  24.586  0.00  0.00    +0.019 C 
ATOM     13  C   UNL     1      -3.274  -1.631  24.710  0.00  0.00    +0.027 C 
ATOM     14  C   UNL     1      -3.057  -0.837  24.655  0.00  0.00    +0.138 C 
BRANCH  10   7
ATOM      1  C   UNL     1      -4.056   3.361  24.752  0.00  0.00    +0.095 C 
ATOM      2  C   UNL     1      -3.885   2.875  24.108  0.00  0.00    +0.226 C 
ATOM      3  O   UNL     1      -3.751   3.209  23.364  0.00  0.00    -0.275 OA
ATOM      4  N   UNL     1      -3.848   2.057  24.205  0.00  0.00    -0.279 N 
ATOM      5  C   UNL     1      -3.677   1.572  23.560  0.00  0.00    +0.095 C 
ATOM      6  C   UNL     1      -3.640   0.754  23.657  0.00  0.00    +0.038 C 
ATOM      7  C   UNL     1      -3.774   0.420  24.400  0.00  0.00    +0.061 C 
ATOM      8  C   UNL     1      -3.945   0.906  25.045  0.00  0.00    +0.038 C 
ATOM      9  C   UNL     1      -3.982   1.724  24.947  0.00  0.00    +0.095 C 
ENDBRANCH  10   7
ENDBRANCH  15  14
TORSDOF 4
ENDMDL
MODEL 5
REMARK VINA RESULT:      -8.3     15.611     17.911
REMARK  Name = 
REMARK  4 active torsions:
REMARK  status: ('A' for Active; 'I' for Inactive)
REMARK    1  A    between atoms: C_7  and  N_10
REMARK    2  A    between atoms: C_14  and  C_15
REMARK    3  A    between atoms: C_17  and  C_20
REMARK    4  A    between atoms: C_23  and  N_26
REMARK                            x       y       z     vdW  Elec       q    Type
REMARK                         _______ _______ _______ _____ _____    ______ ____
ROOT
ATOM     15  C   UNL     1      12.746   8.086  17.395  0.00  0.00    +0.251 A 
ATOM     16  N   UNL     1      12.578   8.375  18.149  0.00  0.00    -0.190 NA
ATOM     17  C   UNL     1      12.027   7.871  18.499  0.00  0.00    +0.205 A 
ATOM     18  N   UNL     1      11.855   7.270  17.962  0.00  0.00    -0.056 NA
ATOM     19  O   UNL     1      12.298   7.402  17.280  0.00  0.00    -0.336 OA
ENDROOT
BRANCH  17  20
ATOM     20  C   UNL     1      11.705   7.953  19.255  0.00  0.00    +0.058 A 
ATOM     21  C   UNL     1      11.446   8.692  19.514  0.00  0.00    +0.008 A 
ATOM     22  C   UNL     1      11.124   8.775  20.269  0.00  0.00    +0.034 A 
ATOM     23  C   UNL     1      11.062   8.119  20.765  0.00  0.00    +0.132 A 
ATOM     24  N   UNL     1      11.322   7.380  20.506  0.00  0.00    -0.229 NA
ATOM     25  C   UNL     1      11.643   7.297  19.751  0.00  0.00    +0.103 A 
BRANCH  23  26
ATOM     26  N   UNL     1      10.740   8.201  21.521  0.00  0.00    -0.288 N 
ATOM     27  C   UNL     1      10.702   8.946  21.873  0.00  0.00    +0.124 C 
ATOM     28  C   UNL     1      10.380   9.029  22.629  0.00  0.00    +0.164 C 
ATOM     29  O   UNL     1      10.097   8.366  23.031  0.00  0.00    -0.350 OA
ATOM     30  C   UNL     1      10.135   7.622  22.679  0.00  0.00    +0.164 C 
ATOM     31  C   UNL     1      10.457   7.539  21.923  0.00  0.00    +0.124 C 
ENDBRANCH  23  26
ENDBRANCH  17  20
BRANCH  15  14
ATOM     10  N   UNL     1      14.091   8.378  16.882  0.00  0.00    -0.268 NA
ATOM     11  C   UNL     1      14.392   8.788  16.233  0.00  0.00    +0.072 C 
ATOM     12  C   UNL     1      13.754   9.085  15.801  0.00  0.00    +0.019 C 
ATOM     13  C   UNL     1      13.060   8.858  16.184  0.00  0.00    +0.027 C 
ATOM     14  C   UNL     1      13.268   8.421  16.852  0.00  0.00    +0.138 C 
BRANCH  10   7
ATOM      1  C   UNL     1      16.112   7.244  19.870  0.00  0.00    +0.095 C 
ATOM      2  C   UNL     1      15.869   6.836  19.195  0.00  0.00    +0.226 C 
ATOM      3  O   UNL     1      16.073   6.042  19.098  0.00  0.00    -0.275 OA
ATOM      4  N   UNL     1      15.425   7.222  18.617  0.00  0.00    -0.279 N 
ATOM      5  C   UNL     1      15.183   6.813  17.942  0.00  0.00    +0.095 C 
ATOM      6  C   UNL     1      14.738   7.198  17.364  0.00  0.00    +0.038 C 
ATOM      7  C   UNL     1      14.535   7.993  17.460  0.00  0.00    +0.061 C 
ATOM      8  C   UNL     1      14.777   8.400  18.135  0.00  0.00    +0.038 C 
ATOM      9  C   UNL     1      15.222   8.015  18.713  0.00  0.00    +0.095 C 
ENDBRANCH  10   7
ENDBRANCH  15  14
TORSDOF 4
ENDMDL
