MODEL 1
REMARK VINA RESULT:     -12.2      0.000      0.000
REMARK  Name = 
REMARK  6 active torsions:
REMARK  status: ('A' for Active; 'I' for Inactive)
REMARK    1  A    between atoms: O_2  and  C_3
REMARK    2  A    between atoms: C_8  and  N_9
REMARK    3  A    between atoms: C_15  and  C_17
REMARK    4  A    between atoms: C_24  and  C_25
REMARK    5  A    between atoms: C_25  and  N_26
REMARK    6  A    between atoms: C_28  and  C_31
REMARK                            x       y       z     vdW  Elec       q    Type
REMARK                         _______ _______ _______ _____ _____    ______ ____
ROOT
ATOM     17  C   UNL     1      -4.515   2.478  24.719  0.00  0.00    +0.093 C 
ATOM     18  C   UNL     1      -3.973   2.404  24.165  0.00  0.00    +0.081 C 
ATOM     19  N   UNL     1      -4.055   3.040  24.685  0.00  0.00    -0.272 NA
ATOM     20  C   UNL     1      -4.877   2.832  25.302  0.00  0.00    +0.072 C 
ATOM     21  C   UNL     1      -5.278   3.000  25.790  0.00  0.00    +0.018 C 
ATOM     22  C   UNL     1      -4.588   3.105  25.226  0.00  0.00    +0.013 C 
ATOM     23  C   UNL     1      -4.126   3.846  25.316  0.00  0.00    +0.019 C 
ATOM     24  C   UNL     1      -3.579   3.812  24.785  0.00  0.00    +0.082 C 
ENDROOT
BRANCH  17  15
ATOM      9  N   UNL     1      -4.325  -0.487  24.575  0.00  0.00    -0.302 N 
ATOM     10  C   UNL     1      -5.118  -0.316  24.727  0.00  0.00    +0.112 C 
ATOM     11  C   UNL     1      -5.363   0.469  24.801  0.00  0.00    +0.115 C 
ATOM     12  N   UNL     1      -4.816   1.081  24.723  0.00  0.00    -0.276 N 
ATOM     13  C   UNL     1      -4.024   0.910  24.571  0.00  0.00    +0.115 C 
ATOM     14  C   UNL     1      -3.778   0.125  24.498  0.00  0.00    +0.112 C 
ATOM     15  C   UNL     1      -5.062   1.864  24.797  0.00  0.00    +0.227 C 
ATOM     16  O   UNL     1      -5.855   2.036  24.948  0.00  0.00    -0.275 OA
BRANCH   9   8
ATOM      3  C   UNL     1      -3.665  -1.634  25.115  0.00  0.00    +0.152 A 
ATOM      4  C   UNL     1      -3.419  -2.418  25.041  0.00  0.00    +0.038 A 
ATOM      5  C   UNL     1      -3.587  -2.840  24.353  0.00  0.00    +0.003 A 
ATOM      6  C   UNL     1      -4.001  -2.477  23.738  0.00  0.00    +0.001 A 
ATOM      7  C   UNL     1      -4.247  -1.693  23.812  0.00  0.00    +0.018 A 
ATOM      8  C   UNL     1      -4.079  -1.271  24.501  0.00  0.00    +0.082 A 
BRANCH   3   2
ATOM      1  C   UNL     1      -3.077  -1.572  26.416  0.00  0.00    +0.253 C 
ATOM      2  O   UNL     1      -3.497  -1.213  25.805  0.00  0.00    -0.470 OA
ENDBRANCH   3   2
ENDBRANCH   9   8
ENDBRANCH  17  15
BRANCH  24  25
ATOM     25  C   UNL     1      -2.936   4.228  24.480  0.00  0.00    +0.145 C 
BRANCH  25  26
ATOM     26  N   UNL     1      -2.185   4.125  24.807  0.00  0.00    -0.229 N 
ATOM     27  C   UNL     1      -1.677   3.491  24.663  0.00  0.00    +0.116 A 
ATOM     28  C   UNL     1      -0.988   3.613  25.102  0.00  0.00    +0.128 A 
ATOM     29  N   UNL     1      -1.072   4.322  25.516  0.00  0.00    -0.131 NA
ATOM     30  N   UNL     1      -1.810   4.638  25.333  0.00  0.00    -0.064 NA
BRANCH  28  31
ATOM     31  C   UNL     1      -0.333   3.113  25.123  0.00  0.00    +0.165 C 
ATOM     32  C   UNL     1       0.323   2.613  25.143  0.00  0.00    +0.039 C 
ATOM     33  C   UNL     1      -0.494   2.934  25.912  0.00  0.00    +0.039 C 
ATOM     34  O   UNL     1      -0.171   3.291  24.333  0.00  0.00    -0.219 OA
ENDBRANCH  28  31
ENDBRANCH  25  26
ENDBRANCH  24  25
TORSDOF 6
ENDMDL
MODEL 2
REMARK VINA RESULT:     -11.4      1.258      4.972
REMARK  Name = 
REMARK  6 active torsions:
REMARK  status: ('A' for Active; 'I' for Inactive)
REMARK    1  A    between atoms: O_2  and  C_3
REMARK    2  A    between atoms: C_8  and  N_9
REMARK    3  A    between atoms: C_15  and  C_17
REMARK    4  A    between atoms: C_24  and  C_25
REMARK    5  A    between atoms: C_25  and  N_26
REMARK    6  A    between atoms: C_28  and  C_31
REMARK                            x       y       z     vdW  Elec       q    Type
REMARK                         _______ _______ _______ _____ _____    ______ ____
ROOT
ATOM     17  C   UNL     1      -4.400   1.352  24.683  0.00  0.00    +0.093 C 
ATOM     18  C   UNL     1      -3.883   1.226  24.115  0.00  0.00    +0.081 C 
ATOM     19  N   UNL     1      -4.364   0.658  24.471  0.00  0.00    -0.272 NA
ATOM     20  C   UNL     1      -4.941   1.150  25.195  0.00  0.00    +0.072 C 
ATOM     21  C   UNL     1      -5.395   1.137  25.664  0.00  0.00    +0.018 C 
ATOM     22  C   UNL     1      -4.867   0.788  25.028  0.00  0.00    +0.013 C 
ATOM     23  C   UNL     1      -4.945  -0.075  24.893  0.00  0.00    +0.019 C 
ATOM     24  C   UNL     1      -4.449  -0.241  24.336  0.00  0.00    +0.082 C 
ENDROOT
BRANCH  17  15
ATOM      9  N   UNL     1      -2.515   3.633  24.988  0.00  0.00    -0.302 N 
ATOM     10  C   UNL     1      -3.247   3.905  25.253  0.00  0.00    +0.112 C 
ATOM     11  C   UNL     1      -3.902   3.402  25.243  0.00  0.00    +0.115 C 
ATOM     12  N   UNL     1      -3.824   2.628  24.968  0.00  0.00    -0.276 N 
ATOM     13  C   UNL     1      -3.091   2.357  24.703  0.00  0.00    +0.115 C 
ATOM     14  C   UNL     1      -2.437   2.859  24.713  0.00  0.00    +0.112 C 
ATOM     15  C   UNL     1      -4.478   2.127  24.958  0.00  0.00    +0.227 C 
ATOM     16  O   UNL     1      -5.211   2.399  25.223  0.00  0.00    -0.275 OA
BRANCH   9   8
ATOM      3  C   UNL     1      -1.143   3.873  25.308  0.00  0.00    +0.152 A 
ATOM      4  C   UNL     1      -0.488   4.375  25.318  0.00  0.00    +0.038 A 
ATOM      5  C   UNL     1      -0.551   5.140  25.017  0.00  0.00    +0.003 A 
ATOM      6  C   UNL     1      -1.268   5.403  24.706  0.00  0.00    +0.001 A 
ATOM      7  C   UNL     1      -1.923   4.901  24.697  0.00  0.00    +0.018 A 
ATOM      8  C   UNL     1      -1.860   4.135  24.998  0.00  0.00    +0.082 A 
BRANCH   3   2
ATOM      1  C   UNL     1      -0.369   2.850  25.939  0.00  0.00    +0.253 C 
ATOM      2  O   UNL     1      -1.079   3.107  25.610  0.00  0.00    -0.470 OA
ENDBRANCH   3   2
ENDBRANCH   9   8
ENDBRANCH  17  15
BRANCH  24  25
ATOM     25  C   UNL     1      -4.162  -0.865  23.880  0.00  0.00    +0.145 C 
BRANCH  25  26
ATOM     26  N   UNL     1      -3.650  -1.419  24.215  0.00  0.00    -0.229 N 
ATOM     27  C   UNL     1      -2.827  -1.418  24.152  0.00  0.00    +0.116 A 
ATOM     28  C   UNL     1      -2.540  -2.070  24.569  0.00  0.00    +0.128 A 
ATOM     29  N   UNL     1      -3.185  -2.472  24.890  0.00  0.00    -0.131 NA
ATOM     30  N   UNL     1      -3.871  -2.070  24.671  0.00  0.00    -0.064 NA
BRANCH  28  31
ATOM     31  C   UNL     1      -1.747  -2.281  24.652  0.00  0.00    +0.165 C 
ATOM     32  C   UNL     1      -0.954  -2.493  24.734  0.00  0.00    +0.039 C 
ATOM     33  C   UNL     1      -1.646  -1.685  25.212  0.00  0.00    +0.039 C 
ATOM     34  O   UNL     1      -1.847  -2.878  24.090  0.00  0.00    -0.219 OA
ENDBRANCH  28  31
ENDBRANCH  25  26
ENDBRANCH  24  25
TORSDOF 6
ENDMDL
MODEL 3
REMARK VINA RESULT:     -11.1      2.151      5.831
REMARK  Name = 
REMARK  6 active torsions:
REMARK  status: ('A' for Active; 'I' for Inactive)
REMARK    1  A    between atoms: O_2  and  C_3
REMARK    2  A    between atoms: C_8  and  N_9
REMARK    3  A    between atoms: C_15  and  C_17
REMARK    4  A    between atoms: C_24  and  C_25
REMARK    5  A    between atoms: C_25  and  N_26
REMARK    6  A    between atoms: C_28  and  C_31
REMARK                            x       y       z     vdW  Elec       q    Type
REMARK                         _______ _______ _______ _____ _____    ______ ____
ROOT
ATOM     17  C   UNL     1      -0.456   0.563  24.660  0.00  0.00    +0.093 C 
ATOM     18  C   UNL     1      -0.890   0.361  25.274  0.00  0.00    +0.081 C 
ATOM     19  N   UNL     1      -0.550  -0.155  24.727  0.00  0.00    -0.272 NA
ATOM     20  C   UNL     1      -0.032   0.431  24.029  0.00  0.00    +0.072 C 
ATOM     21  C   UNL     1       0.338   0.482  23.493  0.00  0.00    +0.018 C 
ATOM     22  C   UNL     1      -0.126   0.050  24.128  0.00  0.00    +0.013 C 
ATOM     23  C   UNL     1      -0.143  -0.825  24.065  0.00  0.00    +0.019 C 
ATOM     24  C   UNL     1      -0.564  -1.065  24.656  0.00  0.00    +0.082 C 
ENDROOT
BRANCH  17  15
ATOM      9  N   UNL     1      -2.077   3.016  25.109  0.00  0.00    -0.302 N 
ATOM     10  C   UNL     1      -1.355   3.272  24.802  0.00  0.00    +0.112 C 
ATOM     11  C   UNL     1      -0.770   2.722  24.613  0.00  0.00    +0.115 C 
ATOM     12  N   UNL     1      -0.906   1.917  24.731  0.00  0.00    -0.276 N 
ATOM     13  C   UNL     1      -1.628   1.662  25.038  0.00  0.00    +0.115 C 
ATOM     14  C   UNL     1      -2.213   2.212  25.227  0.00  0.00    +0.112 C 
ATOM     15  C   UNL     1      -0.320   1.369  24.542  0.00  0.00    +0.227 C 
ATOM     16  O   UNL     1       0.402   1.625  24.235  0.00  0.00    -0.275 OA
BRANCH   9   8
ATOM      3  C   UNL     1      -3.312   3.665  24.800  0.00  0.00    +0.152 A 
ATOM      4  C   UNL     1      -3.899   4.215  24.989  0.00  0.00    +0.038 A 
ATOM      5  C   UNL     1      -3.835   4.664  25.677  0.00  0.00    +0.003 A 
ATOM      6  C   UNL     1      -3.186   4.565  26.177  0.00  0.00    +0.001 A 
ATOM      7  C   UNL     1      -2.600   4.015  25.988  0.00  0.00    +0.018 A 
ATOM      8  C   UNL     1      -2.664   3.566  25.298  0.00  0.00    +0.082 A 
BRANCH   3   2
ATOM      1  C   UNL     1      -4.025   3.314  23.612  0.00  0.00    +0.253 C 
ATOM      2  O   UNL     1      -3.376   3.216  24.110  0.00  0.00    -0.470 OA
ENDBRANCH   3   2
ENDBRANCH   9   8
ENDBRANCH  17  15
BRANCH  24  25
ATOM     25  C   UNL     1      -0.857  -1.745  25.016  0.00  0.00    +0.145 C 
BRANCH  25  26
ATOM     26  N   UNL     1      -1.497  -2.146  24.684  0.00  0.00    -0.229 N 
ATOM     27  C   UNL     1      -2.294  -1.999  24.840  0.00  0.00    +0.116 A 
ATOM     28  C   UNL     1      -2.742  -2.526  24.389  0.00  0.00    +0.128 A 
ATOM     29  N   UNL     1      -2.222  -2.998  23.956  0.00  0.00    -0.131 NA
ATOM     30  N   UNL     1      -1.453  -2.763  24.138  0.00  0.00    -0.064 NA
BRANCH  28  31
ATOM     31  C   UNL     1      -3.566  -2.573  24.375  0.00  0.00    +0.165 C 
ATOM     32  C   UNL     1      -4.389  -2.619  24.361  0.00  0.00    +0.039 C 
ATOM     33  C   UNL     1      -3.599  -1.861  23.959  0.00  0.00    +0.039 C 
ATOM     34  O   UNL     1      -3.533  -3.285  24.791  0.00  0.00    -0.219 OA
ENDBRANCH  28  31
ENDBRANCH  25  26
ENDBRANCH  24  25
TORSDOF 6
ENDMDL
MODEL 4
REMARK VINA RESULT:     -11.0      1.773      3.508
REMARK  Name = 
REMARK  6 active torsions:
REMARK  status: ('A' for Active; 'I' for Inactive)
REMARK    1  A    between atoms: O_2  and  C_3
REMARK    2  A    between atoms: C_8  and  N_9
REMARK    3  A    between atoms: C_15  and  C_17
REMARK    4  A    between atoms: C_24  and  C_25
REMARK    5  A    between atoms: C_25  and  N_26
REMARK    6  A    between atoms: C_28  and  C_31
REMARK                            x       y       z     vdW  Elec       q    Type
REMARK                         _______ _______ _______ _____ _____    ______ ____
ROOT
ATOM     17  C   UNL     1      -0.329   1.088  24.843  0.00  0.00    +0.093 C 
ATOM     18  C   UNL     1      -0.768   1.112  25.485  0.00  0.00    +0.081 C 
ATOM     19  N   UNL     1      -0.397   1.755  25.123  0.00  0.00    -0.272 NA
ATOM     20  C   UNL     1       0.114   1.386  24.285  0.00  0.00    +0.072 C 
ATOM     21  C   UNL     1       0.494   1.485  23.763  0.00  0.00    +0.018 C 
ATOM     22  C   UNL     1       0.032   1.723  24.494  0.00  0.00    +0.013 C 
ATOM     23  C   UNL     1       0.049   2.576  24.700  0.00  0.00    +0.019 C 
ATOM     24  C   UNL     1      -0.375   2.643  25.331  0.00  0.00    +0.082 C 
ENDROOT
BRANCH  17  15
ATOM      9  N   UNL     1      -2.035  -1.331  24.547  0.00  0.00    -0.302 N 
ATOM     10  C   UNL     1      -1.322  -1.507  24.171  0.00  0.00    +0.112 C 
ATOM     11  C   UNL     1      -0.717  -0.946  24.152  0.00  0.00    +0.115 C 
ATOM     12  N   UNL     1      -0.825  -0.209  24.507  0.00  0.00    -0.276 N 
ATOM     13  C   UNL     1      -1.539  -0.034  24.883  0.00  0.00    +0.115 C 
ATOM     14  C   UNL     1      -2.143  -0.595  24.902  0.00  0.00    +0.112 C 
ATOM     15  C   UNL     1      -0.221   0.350  24.487  0.00  0.00    +0.227 C 
ATOM     16  O   UNL     1       0.493   0.174  24.111  0.00  0.00    -0.275 OA
BRANCH   9   8
ATOM      3  C   UNL     1      -3.377  -1.716  24.241  0.00  0.00    +0.152 A 
ATOM      4  C   UNL     1      -3.983  -2.276  24.261  0.00  0.00    +0.038 A 
ATOM      5  C   UNL     1      -3.851  -3.013  24.607  0.00  0.00    +0.003 A 
ATOM      6  C   UNL     1      -3.113  -3.189  24.934  0.00  0.00    +0.001 A 
ATOM      7  C   UNL     1      -2.508  -2.629  24.914  0.00  0.00    +0.018 A 
ATOM      8  C   UNL     1      -2.641  -1.891  24.567  0.00  0.00    +0.082 A 
BRANCH   3   2
ATOM      1  C   UNL     1      -4.268  -0.767  23.651  0.00  0.00    +0.253 C 
ATOM      2  O   UNL     1      -3.510  -0.978  23.894  0.00  0.00    -0.470 OA
ENDBRANCH   3   2
ENDBRANCH   9   8
ENDBRANCH  17  15
BRANCH  24  25
ATOM     25  C   UNL     1      -0.651   3.195  25.879  0.00  0.00    +0.145 C 
BRANCH  25  26
ATOM     26  N   UNL     1      -1.324   3.641  25.712  0.00  0.00    -0.229 N 
ATOM     27  C   UNL     1      -2.101   3.432  25.895  0.00  0.00    +0.116 A 
ATOM     28  C   UNL     1      -2.596   4.037  25.630  0.00  0.00    +0.128 A 
ATOM     29  N   UNL     1      -2.124   4.618  25.283  0.00  0.00    -0.131 NA
ATOM     30  N   UNL     1      -1.339   4.374  25.334  0.00  0.00    -0.064 NA
BRANCH  28  31
ATOM     31  C   UNL     1      -3.418   4.056  25.699  0.00  0.00    +0.165 C 
ATOM     32  C   UNL     1      -4.240   4.075  25.768  0.00  0.00    +0.039 C 
ATOM     33  C   UNL     1      -3.489   3.883  24.895  0.00  0.00    +0.039 C 
ATOM     34  O   UNL     1      -3.347   4.230  26.503  0.00  0.00    -0.219 OA
ENDBRANCH  28  31
ENDBRANCH  25  26
ENDBRANCH  24  25
TORSDOF 6
ENDMDL
MODEL 5
REMARK VINA RESULT:     -11.0      3.325      4.867
REMARK  Name = 
REMARK  6 active torsions:
REMARK  status: ('A' for Active; 'I' for Inactive)
REMARK    1  A    between atoms: O_2  and  C_3
REMARK    2  A    between atoms: C_8  and  N_9
REMARK    3  A    between atoms: C_15  and  C_17
REMARK    4  A    between atoms: C_24  and  C_25
REMARK    5  A    between atoms: C_25  and  N_26
REMARK    6  A    between atoms: C_28  and  C_31
REMARK                            x       y       z     vdW  Elec       q    Type
REMARK                         _______ _______ _______ _____ _____    ______ ____
ROOT
ATOM     17  C   UNL     1      -0.851  -0.001  24.438  0.00  0.00    +0.093 C 
ATOM     18  C   UNL     1      -0.822   0.736  24.190  0.00  0.00    +0.081 C 
ATOM     19  N   UNL     1      -0.294   0.134  23.992  0.00  0.00    -0.272 NA
ATOM     20  C   UNL     1      -0.611  -0.733  24.489  0.00  0.00    +0.072 C 
ATOM     21  C   UNL     1      -0.536  -1.367  24.629  0.00  0.00    +0.018 C 
ATOM     22  C   UNL     1      -0.329  -0.587  24.239  0.00  0.00    +0.013 C 
ATOM     23  C   UNL     1       0.382  -0.590  23.724  0.00  0.00    +0.019 C 
ATOM     24  C   UNL     1       0.446   0.123  23.458  0.00  0.00    +0.082 C 
ENDROOT
BRANCH  17  15
ATOM      9  N   UNL     1      -3.560   1.118  24.949  0.00  0.00    -0.302 N 
ATOM     10  C   UNL     1      -3.478   0.474  25.459  0.00  0.00    +0.112 C 
ATOM     11  C   UNL     1      -2.781   0.033  25.458  0.00  0.00    +0.115 C 
ATOM     12  N   UNL     1      -2.165   0.236  24.949  0.00  0.00    -0.276 N 
ATOM     13  C   UNL     1      -2.247   0.880  24.439  0.00  0.00    +0.115 C 
ATOM     14  C   UNL     1      -2.944   1.320  24.440  0.00  0.00    +0.112 C 
ATOM     15  C   UNL     1      -1.468  -0.204  24.949  0.00  0.00    +0.227 C 
ATOM     16  O   UNL     1      -1.387  -0.848  25.458  0.00  0.00    -0.275 OA
BRANCH   9   8
ATOM      3  C   UNL     1      -4.243   2.355  25.162  0.00  0.00    +0.152 A 
ATOM      4  C   UNL     1      -4.940   2.796  25.162  0.00  0.00    +0.038 A 
ATOM      5  C   UNL     1      -5.653   2.440  24.949  0.00  0.00    +0.003 A 
ATOM      6  C   UNL     1      -5.668   1.642  24.737  0.00  0.00    +0.001 A 
ATOM      7  C   UNL     1      -4.971   1.201  24.737  0.00  0.00    +0.018 A 
ATOM      8  C   UNL     1      -4.258   1.558  24.950  0.00  0.00    +0.082 A 
BRANCH   3   2
ATOM      1  C   UNL     1      -3.516   3.504  25.601  0.00  0.00    +0.253 C 
ATOM      2  O   UNL     1      -3.530   2.712  25.375  0.00  0.00    -0.470 OA
ENDBRANCH   3   2
ENDBRANCH   9   8
ENDBRANCH  17  15
BRANCH  24  25
ATOM     25  C   UNL     1       0.911   0.601  22.973  0.00  0.00    +0.145 C 
BRANCH  25  26
ATOM     26  N   UNL     1       1.675   0.364  22.769  0.00  0.00    -0.229 N 
ATOM     27  C   UNL     1       2.374   0.641  23.107  0.00  0.00    +0.116 A 
ATOM     28  C   UNL     1       3.005   0.256  22.738  0.00  0.00    +0.128 A 
ATOM     29  N   UNL     1       2.693  -0.258  22.173  0.00  0.00    -0.131 NA
ATOM     30  N   UNL     1       1.872  -0.191  22.192  0.00  0.00    -0.064 NA
BRANCH  28  31
ATOM     31  C   UNL     1       3.805   0.367  22.906  0.00  0.00    +0.165 C 
ATOM     32  C   UNL     1       4.605   0.477  23.073  0.00  0.00    +0.039 C 
ATOM     33  C   UNL     1       3.743   1.157  22.679  0.00  0.00    +0.039 C 
ATOM     34  O   UNL     1       3.867  -0.424  23.133  0.00  0.00    -0.219 OA
ENDBRANCH  28  31
ENDBRANCH  25  26
ENDBRANCH  24  25
TORSDOF 6
ENDMDL
MODEL 6
REMARK VINA RESULT:     -10.7      2.172      4.046
REMARK  Name = 
REMARK  6 active torsions:
REMARK  status: ('A' for Active; 'I' for Inactive)
REMARK    1  A    between atoms: O_2  and  C_3
REMARK    2  A    between atoms: C_8  and  N_9
REMARK    3  A    between atoms: C_15  and  C_17
REMARK    4  A    between atoms: C_24  and  C_25
REMARK    5  A    between atoms: C_25  and  N_26
REMARK    6  A    between atoms: C_28  and  C_31
REMARK                            x       y       z     vdW  Elec       q    Type
REMARK                         _______ _______ _______ _____ _____    ______ ____
ROOT
ATOM     17  C   UNL     1      -1.912   3.292  24.757  0.00  0.00    +0.093 C 
ATOM     18  C   UNL     1      -2.384   2.886  24.291  0.00  0.00    +0.081 C 
ATOM     19  N   UNL     1      -2.583   3.568  24.711  0.00  0.00    -0.272 NA
ATOM     20  C   UNL     1      -1.729   3.867  25.240  0.00  0.00    +0.072 C 
ATOM     21  C   UNL     1      -1.428   4.279  25.648  0.00  0.00    +0.018 C 
ATOM     22  C   UNL     1      -2.115   3.961  25.167  0.00  0.00    +0.013 C 
ATOM     23  C   UNL     1      -2.866   4.413  25.220  0.00  0.00    +0.019 C 
ATOM     24  C   UNL     1      -3.360   4.043  24.772  0.00  0.00    +0.082 C 
ENDROOT
BRANCH  17  15
ATOM      9  N   UNL     1      -0.674   0.588  24.822  0.00  0.00    -0.302 N 
ATOM     10  C   UNL     1      -0.054   1.126  24.913  0.00  0.00    +0.112 C 
ATOM     11  C   UNL     1      -0.210   1.936  24.920  0.00  0.00    +0.115 C 
ATOM     12  N   UNL     1      -0.983   2.209  24.835  0.00  0.00    -0.276 N 
ATOM     13  C   UNL     1      -1.603   1.672  24.744  0.00  0.00    +0.115 C 
ATOM     14  C   UNL     1      -1.447   0.861  24.737  0.00  0.00    +0.112 C 
ATOM     15  C   UNL     1      -1.137   3.019  24.842  0.00  0.00    +0.227 C 
ATOM     16  O   UNL     1      -0.518   3.557  24.934  0.00  0.00    -0.275 OA
BRANCH   9   8
ATOM      3  C   UNL     1      -0.109  -0.559  24.185  0.00  0.00    +0.152 A 
ATOM      4  C   UNL     1       0.045  -1.370  24.178  0.00  0.00    +0.038 A 
ATOM      5  C   UNL     1      -0.211  -1.844  24.803  0.00  0.00    +0.003 A 
ATOM      6  C   UNL     1      -0.622  -1.507  25.434  0.00  0.00    +0.001 A 
ATOM      7  C   UNL     1      -0.776  -0.696  25.441  0.00  0.00    +0.018 A 
ATOM      8  C   UNL     1      -0.519  -0.222  24.815  0.00  0.00    +0.082 A 
BRANCH   3   2
ATOM      1  C   UNL     1       0.621  -0.407  22.966  0.00  0.00    +0.253 C 
ATOM      2  O   UNL     1       0.148  -0.086  23.559  0.00  0.00    -0.470 OA
ENDBRANCH   3   2
ENDBRANCH   9   8
ENDBRANCH  17  15
BRANCH  24  25
ATOM     25  C   UNL     1      -4.139   4.062  24.501  0.00  0.00    +0.145 C 
BRANCH  25  26
ATOM     26  N   UNL     1      -4.747   3.765  24.973  0.00  0.00    -0.229 N 
ATOM     27  C   UNL     1      -4.974   2.974  25.030  0.00  0.00    +0.116 A 
ATOM     28  C   UNL     1      -5.603   2.928  25.563  0.00  0.00    +0.128 A 
ATOM     29  N   UNL     1      -5.764   3.691  25.834  0.00  0.00    -0.131 NA
ATOM     30  N   UNL     1      -5.235   4.207  25.470  0.00  0.00    -0.064 NA
BRANCH  28  31
ATOM     31  C   UNL     1      -6.001   2.240  25.785  0.00  0.00    +0.165 C 
ATOM     32  C   UNL     1      -6.399   1.553  26.007  0.00  0.00    +0.039 C 
ATOM     33  C   UNL     1      -6.039   2.007  24.994  0.00  0.00    +0.039 C 
ATOM     34  O   UNL     1      -5.964   2.473  26.576  0.00  0.00    -0.219 OA
ENDBRANCH  28  31
ENDBRANCH  25  26
ENDBRANCH  24  25
TORSDOF 6
ENDMDL
MODEL 7
REMARK VINA RESULT:     -10.4      2.022      4.564
REMARK  Name = 
REMARK  6 active torsions:
REMARK  status: ('A' for Active; 'I' for Inactive)
REMARK    1  A    between atoms: O_2  and  C_3
REMARK    2  A    between atoms: C_8  and  N_9
REMARK    3  A    between atoms: C_15  and  C_17
REMARK    4  A    between atoms: C_24  and  C_25
REMARK    5  A    between atoms: C_25  and  N_26
REMARK    6  A    between atoms: C_28  and  C_31
REMARK                            x       y       z     vdW  Elec       q    Type
REMARK                         _______ _______ _______ _____ _____    ______ ____
ROOT
ATOM     17  C   UNL     1      -3.120  -0.515  24.769  0.00  0.00    +0.093 C 
ATOM     18  C   UNL     1      -3.187  -0.047  24.151  0.00  0.00    +0.081 C 
ATOM     19  N   UNL     1      -3.736  -0.130  24.762  0.00  0.00    -0.272 NA
ATOM     20  C   UNL     1      -3.348  -0.834  25.435  0.00  0.00    +0.072 C 
ATOM     21  C   UNL     1      -3.399  -1.182  25.985  0.00  0.00    +0.018 C 
ATOM     22  C   UNL     1      -3.663  -0.591  25.365  0.00  0.00    +0.013 C 
ATOM     23  C   UNL     1      -4.441  -0.208  25.503  0.00  0.00    +0.019 C 
ATOM     24  C   UNL     1      -4.545   0.264  24.913  0.00  0.00    +0.082 C 
ENDROOT
BRANCH  17  15
ATOM      9  N   UNL     1      -0.297  -0.120  23.916  0.00  0.00    -0.302 N 
ATOM     10  C   UNL     1      -0.327  -0.863  24.273  0.00  0.00    +0.112 C 
ATOM     11  C   UNL     1      -1.040  -1.148  24.575  0.00  0.00    +0.115 C 
ATOM     12  N   UNL     1      -1.723  -0.689  24.521  0.00  0.00    -0.276 N 
ATOM     13  C   UNL     1      -1.694   0.054  24.164  0.00  0.00    +0.115 C 
ATOM     14  C   UNL     1      -0.981   0.339  23.862  0.00  0.00    +0.112 C 
ATOM     15  C   UNL     1      -2.435  -0.974  24.823  0.00  0.00    +0.227 C 
ATOM     16  O   UNL     1      -2.464  -1.718  25.180  0.00  0.00    -0.275 OA
BRANCH   9   8
ATOM      3  C   UNL     1       0.711   0.891  23.869  0.00  0.00    +0.152 A 
ATOM      4  C   UNL     1       1.424   1.177  23.566  0.00  0.00    +0.038 A 
ATOM      5  C   UNL     1       1.841   0.735  23.008  0.00  0.00    +0.003 A 
ATOM      6  C   UNL     1       1.545   0.008  22.752  0.00  0.00    +0.001 A 
ATOM      7  C   UNL     1       0.832  -0.277  23.055  0.00  0.00    +0.018 A 
ATOM      8  C   UNL     1       0.415   0.166  23.614  0.00  0.00    +0.082 A 
BRANCH   3   2
ATOM      1  C   UNL     1       0.553   2.088  24.633  0.00  0.00    +0.253 C 
ATOM      2  O   UNL     1       0.294   1.334  24.427  0.00  0.00    -0.470 OA
ENDBRANCH   3   2
ENDBRANCH   9   8
ENDBRANCH  17  15
BRANCH  24  25
ATOM     25  C   UNL     1      -5.077   0.809  24.597  0.00  0.00    +0.145 C 
BRANCH  25  26
ATOM     26  N   UNL     1      -5.243   1.508  25.004  0.00  0.00    -0.229 N 
ATOM     27  C   UNL     1      -4.926   2.251  24.840  0.00  0.00    +0.116 A 
ATOM     28  C   UNL     1      -5.243   2.788  25.382  0.00  0.00    +0.128 A 
ATOM     29  N   UNL     1      -5.756   2.374  25.879  0.00  0.00    -0.131 NA
ATOM     30  N   UNL     1      -5.756   1.584  25.646  0.00  0.00    -0.064 NA
BRANCH  28  31
ATOM     31  C   UNL     1      -5.076   3.595  25.419  0.00  0.00    +0.165 C 
ATOM     32  C   UNL     1      -4.909   4.402  25.456  0.00  0.00    +0.039 C 
ATOM     33  C   UNL     1      -4.352   3.462  25.047  0.00  0.00    +0.039 C 
ATOM     34  O   UNL     1      -5.801   3.728  25.791  0.00  0.00    -0.219 OA
ENDBRANCH  28  31
ENDBRANCH  25  26
ENDBRANCH  24  25
TORSDOF 6
ENDMDL
