REMARK  Name = 
REMARK  6 active torsions:
REMARK  status: ('A' for Active; 'I' for Inactive)
REMARK    1  A    between atoms: C_3  and  C_4
REMARK    2  A    between atoms: C_4  and  N_5
REMARK    3  A    between atoms: C_16  and  N_17
REMARK    4  A    between atoms: N_17  and  C_18
REMARK    5  A    between atoms: C_18  and  C_19
REMARK    6  A    between atoms: C_23  and  C_25
REMARK                            x       y       z     vdW  Elec       q    Type
REMARK                         _______ _______ _______ _____ _____    ______ ____
ROOT
ATOM      1  O   UNL     1       0.000  -1.650   0.000  0.00  0.00    -0.219 OA
ATOM      2  C   UNL     1       0.000  -2.475   0.000  0.00  0.00    +0.199 C 
ATOM      3  C   UNL     1       0.667  -2.960   0.000  0.00  0.00    +0.169 C 
ATOM     14  O   UNL     1       0.412  -3.744   0.000  0.00  0.00    -0.350 OA
ATOM     15  C   UNL     1      -0.412  -3.744   0.000  0.00  0.00    +0.162 C 
ATOM     16  C   UNL     1      -0.667  -2.960   0.000  0.00  0.00    +0.135 C 
ENDROOT
BRANCH   3   4
ATOM      4  C   UNL     1       1.452  -2.705   0.000  0.00  0.00    +0.149 C 
BRANCH   4   5
ATOM      5  N   UNL     1       2.065  -3.257   0.000  0.00  0.00    -0.186 NA
ATOM      6  C   UNL     1       2.850  -3.002   0.000  0.00  0.00    +0.323 C 
ATOM      7  O   UNL     1       3.021  -2.195   0.000  0.00  0.00    -0.251 OA
ATOM      8  N   UNL     1       3.463  -3.554   0.000  0.00  0.00    -0.258 N 
ATOM      9  C   UNL     1       4.247  -3.299   0.000  0.00  0.00    +0.127 C 
ATOM     10  C   UNL     1       4.861  -3.851   0.000  0.00  0.00    +0.164 C 
ATOM     11  O   UNL     1       4.689  -4.658   0.000  0.00  0.00    -0.350 OA
ATOM     12  C   UNL     1       3.904  -4.913   0.000  0.00  0.00    +0.164 C 
ATOM     13  C   UNL     1       3.291  -4.361   0.000  0.00  0.00    +0.127 C 
ENDBRANCH   4   5
ENDBRANCH   3   4
BRANCH  16  17
ATOM     17  N   UNL     1      -1.452  -2.705   0.000  0.00  0.00    -0.209 NA
BRANCH  17  18
ATOM     18  C   UNL     1      -1.624  -1.898   0.000  0.00  0.00    +0.115 C 
BRANCH  18  19
ATOM     19  C   UNL     1      -2.408  -1.643   0.000  0.00  0.00    -0.004 A 
ATOM     20  C   UNL     1      -3.021  -2.195   0.000  0.00  0.00    -0.003 A 
ATOM     21  C   UNL     1      -3.806  -1.940   0.000  0.00  0.00    +0.000 A 
ATOM     22  C   UNL     1      -3.978  -1.133   0.000  0.00  0.00    +0.010 A 
ATOM     23  C   UNL     1      -3.364  -0.581   0.000  0.00  0.00    +0.068 A 
ATOM     24  C   UNL     1      -2.580  -0.836   0.000  0.00  0.00    +0.007 A 
BRANCH  23  25
ATOM     25  C   UNL     1      -3.536   0.226   0.000  0.00  0.00    +0.100 C 
ATOM     26  N   UNL     1      -3.707   1.033   0.000  0.00  0.00    -0.191 NA
ENDBRANCH  23  25
ENDBRANCH  18  19
ENDBRANCH  17  18
ENDBRANCH  16  17
TORSDOF 6
