MODEL 1
REMARK VINA RESULT:     -10.4      0.000      0.000
REMARK  Name = 
REMARK  9 active torsions:
REMARK  status: ('A' for Active; 'I' for Inactive)
REMARK    1  A    between atoms: O_2  and  C_3
REMARK    2  A    between atoms: C_5  and  N_6
REMARK    3  A    between atoms: N_9  and  C_10
REMARK    4  A    between atoms: C_10  and  C_11
REMARK    5  A    between atoms: C_15  and  C_16
REMARK    6  A    between atoms: C_16  and  C_17
REMARK    7  A    between atoms: N_19  and  C_20
REMARK    8  A    between atoms: C_20  and  C_21
REMARK    9  A    between atoms: C_24  and  C_25
REMARK                            x       y       z     vdW  Elec       q    Type
REMARK                         _______ _______ _______ _____ _____    ______ ____
ROOT
ATOM     11  C   UNL     1      -4.535   1.422  24.538  0.00  0.00    +0.043 C 
ATOM     12  C   UNL     1      -3.899   1.582  24.036  0.00  0.00    -0.033 C 
ATOM     13  C   UNL     1      -3.671   2.361  23.897  0.00  0.00    -0.048 C 
ATOM     14  C   UNL     1      -3.035   2.522  23.395  0.00  0.00    +0.026 C 
ATOM     15  C   UNL     1      -4.077   2.982  24.259  0.00  0.00    +0.027 C 
ATOM     23  C   UNL     1      -4.712   2.822  24.760  0.00  0.00    +0.005 C 
ATOM     24  C   UNL     1      -4.941   2.041  24.900  0.00  0.00    +0.006 C 
ENDROOT
BRANCH  24  25
ATOM     25  C   UNL     1      -5.576   1.881  25.400  0.00  0.00    +0.000 C 
ATOM     26  C   UNL     1      -6.336   1.797  25.090  0.00  0.00    +0.000 C 
ATOM     27  C   UNL     1      -5.452   1.805  26.213  0.00  0.00    +0.000 C 
ENDBRANCH  24  25
BRANCH  11  10
ATOM     10  C   UNL     1      -4.764   0.642  24.677  0.00  0.00    +0.121 C 
BRANCH  10   9
ATOM      6  N   UNL     1      -3.947  -1.223  23.890  0.00  0.00    -0.161 NA
ATOM      7  C   UNL     1      -4.161  -0.628  24.420  0.00  0.00    +0.344 C 
ATOM      8  O   UNL     1      -3.986  -0.707  25.222  0.00  0.00    -0.249 OA
ATOM      9  N   UNL     1      -4.550   0.048  24.148  0.00  0.00    -0.187 NA
BRANCH   6   5
ATOM      3  C   UNL     1      -2.345  -2.594  24.451  0.00  0.00    +0.140 A 
ATOM      4  C   UNL     1      -2.734  -1.919  24.179  0.00  0.00    +0.054 A 
ATOM      5  C   UNL     1      -3.558  -1.897  24.162  0.00  0.00    +0.078 A 
ATOM     28  C   UNL     1      -3.994  -2.550  24.418  0.00  0.00    +0.017 A 
ATOM     29  C   UNL     1      -3.605  -3.224  24.690  0.00  0.00    +0.004 A 
ATOM     30  C   UNL     1      -2.781  -3.247  24.707  0.00  0.00    +0.037 A 
BRANCH   3   2
ATOM      1  C   UNL     1      -1.109  -2.235  25.072  0.00  0.00    +0.252 C 
ATOM      2  O   UNL     1      -1.520  -2.616  24.468  0.00  0.00    -0.471 OA
ENDBRANCH   3   2
ENDBRANCH   6   5
ENDBRANCH  10   9
ENDBRANCH  11  10
BRANCH  15  16
ATOM     16  C   UNL     1      -3.848   3.763  24.120  0.00  0.00    +0.091 C 
BRANCH  16  17
ATOM     17  C   UNL     1      -3.464   4.192  24.710  0.00  0.00    +0.243 C 
ATOM     18  O   UNL     1      -3.889   4.475  25.357  0.00  0.00    -0.273 OA
ATOM     19  N   UNL     1      -2.655   4.338  24.652  0.00  0.00    -0.191 NA
BRANCH  19  20
ATOM     20  C   UNL     1      -2.270   4.768  25.243  0.00  0.00    +0.191 C 
BRANCH  20  21
ATOM     21  C   UNL     1      -1.485   4.999  25.140  0.00  0.00    -0.054 C 
ATOM     22  C   UNL     1      -0.699   5.230  25.037  0.00  0.00    -0.012 C 
ENDBRANCH  20  21
ENDBRANCH  19  20
ENDBRANCH  16  17
ENDBRANCH  15  16
TORSDOF 9
ENDMDL
MODEL 2
REMARK VINA RESULT:     -10.2      0.912      1.693
REMARK  Name = 
REMARK  9 active torsions:
REMARK  status: ('A' for Active; 'I' for Inactive)
REMARK    1  A    between atoms: O_2  and  C_3
REMARK    2  A    between atoms: C_5  and  N_6
REMARK    3  A    between atoms: N_9  and  C_10
REMARK    4  A    between atoms: C_10  and  C_11
REMARK    5  A    between atoms: C_15  and  C_16
REMARK    6  A    between atoms: C_16  and  C_17
REMARK    7  A    between atoms: N_19  and  C_20
REMARK    8  A    between atoms: C_20  and  C_21
REMARK    9  A    between atoms: C_24  and  C_25
REMARK                            x       y       z     vdW  Elec       q    Type
REMARK                         _______ _______ _______ _____ _____    ______ ____
ROOT
ATOM     11  C   UNL     1      -3.896   1.897  24.229  0.00  0.00    +0.043 C 
ATOM     12  C   UNL     1      -4.393   2.101  24.855  0.00  0.00    -0.033 C 
ATOM     13  C   UNL     1      -4.353   2.856  25.184  0.00  0.00    -0.048 C 
ATOM     14  C   UNL     1      -4.851   3.060  25.810  0.00  0.00    +0.026 C 
ATOM     15  C   UNL     1      -3.817   3.408  24.887  0.00  0.00    +0.027 C 
ATOM     23  C   UNL     1      -3.320   3.204  24.261  0.00  0.00    +0.005 C 
ATOM     24  C   UNL     1      -3.359   2.448  23.931  0.00  0.00    +0.006 C 
ENDROOT
BRANCH  24  25
ATOM     25  C   UNL     1      -2.863   2.245  23.306  0.00  0.00    +0.000 C 
ATOM     26  C   UNL     1      -3.119   2.340  22.528  0.00  0.00    +0.000 C 
ATOM     27  C   UNL     1      -2.109   1.945  23.458  0.00  0.00    +0.000 C 
ENDBRANCH  24  25
BRANCH  11  10
ATOM     10  C   UNL     1      -3.935   1.142  23.899  0.00  0.00    +0.121 C 
BRANCH  10   9
ATOM      6  N   UNL     1      -4.240  -0.892  24.630  0.00  0.00    -0.161 NA
ATOM      7  C   UNL     1      -3.962  -0.259  24.179  0.00  0.00    +0.344 C 
ATOM      8  O   UNL     1      -3.435  -0.393  23.560  0.00  0.00    -0.249 OA
ATOM      9  N   UNL     1      -4.213   0.510  24.349  0.00  0.00    -0.187 NA
BRANCH   6   5
ATOM      3  C   UNL     1      -3.043  -2.716  24.622  0.00  0.00    +0.140 A 
ATOM      4  C   UNL     1      -3.293  -1.949  24.792  0.00  0.00    +0.054 A 
ATOM      5  C   UNL     1      -3.990  -1.659  24.460  0.00  0.00    +0.078 A 
ATOM     28  C   UNL     1      -4.438  -2.138  23.957  0.00  0.00    +0.017 A 
ATOM     29  C   UNL     1      -4.188  -2.905  23.788  0.00  0.00    +0.004 A 
ATOM     30  C   UNL     1      -3.491  -3.195  24.120  0.00  0.00    +0.037 A 
BRANCH   3   2
ATOM      1  C   UNL     1      -1.617  -2.813  24.620  0.00  0.00    +0.252 C 
ATOM      2  O   UNL     1      -2.345  -3.007  24.954  0.00  0.00    -0.471 OA
ENDBRANCH   3   2
ENDBRANCH   6   5
ENDBRANCH  10   9
ENDBRANCH  11  10
BRANCH  15  16
ATOM     16  C   UNL     1      -3.777   4.164  25.216  0.00  0.00    +0.091 C 
BRANCH  16  17
ATOM     17  C   UNL     1      -3.080   4.423  25.572  0.00  0.00    +0.243 C 
ATOM     18  O   UNL     1      -2.923   4.232  26.359  0.00  0.00    -0.273 OA
ATOM     19  N   UNL     1      -2.539   4.873  25.142  0.00  0.00    -0.191 NA
BRANCH  19  20
ATOM     20  C   UNL     1      -1.841   5.132  25.498  0.00  0.00    +0.191 C 
BRANCH  20  21
ATOM     21  C   UNL     1      -1.176   5.287  25.037  0.00  0.00    -0.054 C 
ATOM     22  C   UNL     1      -0.509   5.442  24.575  0.00  0.00    -0.012 C 
ENDBRANCH  20  21
ENDBRANCH  19  20
ENDBRANCH  16  17
ENDBRANCH  15  16
TORSDOF 9
ENDMDL
MODEL 3
REMARK VINA RESULT:     -10.1      3.189      5.426
REMARK  Name = 
REMARK  9 active torsions:
REMARK  status: ('A' for Active; 'I' for Inactive)
REMARK    1  A    between atoms: O_2  and  C_3
REMARK    2  A    between atoms: C_5  and  N_6
REMARK    3  A    between atoms: N_9  and  C_10
REMARK    4  A    between atoms: C_10  and  C_11
REMARK    5  A    between atoms: C_15  and  C_16
REMARK    6  A    between atoms: C_16  and  C_17
REMARK    7  A    between atoms: N_19  and  C_20
REMARK    8  A    between atoms: C_20  and  C_21
REMARK    9  A    between atoms: C_24  and  C_25
REMARK                            x       y       z     vdW  Elec       q    Type
REMARK                         _______ _______ _______ _____ _____    ______ ____
ROOT
ATOM     11  C   UNL     1      -0.977   0.987  24.331  0.00  0.00    +0.043 C 
ATOM     12  C   UNL     1      -1.088   0.196  24.125  0.00  0.00    -0.033 C 
ATOM     13  C   UNL     1      -0.449  -0.256  23.866  0.00  0.00    -0.048 C 
ATOM     14  C   UNL     1      -0.560  -1.048  23.660  0.00  0.00    +0.026 C 
ATOM     15  C   UNL     1       0.302   0.082  23.814  0.00  0.00    +0.027 C 
ATOM     23  C   UNL     1       0.413   0.873  24.020  0.00  0.00    +0.005 C 
ATOM     24  C   UNL     1      -0.227   1.326  24.279  0.00  0.00    +0.006 C 
ENDROOT
BRANCH  24  25
ATOM     25  C   UNL     1      -0.117   2.116  24.484  0.00  0.00    +0.000 C 
ATOM     26  C   UNL     1      -0.225   2.709  23.921  0.00  0.00    +0.000 C 
ATOM     27  C   UNL     1       0.102   2.315  25.255  0.00  0.00    +0.000 C 
ENDBRANCH  24  25
BRANCH  11  10
ATOM     10  C   UNL     1      -1.617   1.440  24.589  0.00  0.00    +0.121 C 
BRANCH  10   9
ATOM      6  N   UNL     1      -3.779   1.465  24.298  0.00  0.00    -0.161 NA
ATOM      7  C   UNL     1      -3.039   1.555  24.651  0.00  0.00    +0.344 C 
ATOM      8  O   UNL     1      -2.981   1.852  25.418  0.00  0.00    -0.249 OA
ATOM      9  N   UNL     1      -2.356   1.349  24.236  0.00  0.00    -0.187 NA
BRANCH   6   5
ATOM      3  C   UNL     1      -5.416   2.656  25.114  0.00  0.00    +0.140 A 
ATOM      4  C   UNL     1      -4.733   2.450  24.699  0.00  0.00    +0.054 A 
ATOM      5  C   UNL     1      -4.462   1.671  24.712  0.00  0.00    +0.078 A 
ATOM     28  C   UNL     1      -4.874   1.097  25.140  0.00  0.00    +0.017 A 
ATOM     29  C   UNL     1      -5.557   1.304  25.555  0.00  0.00    +0.004 A 
ATOM     30  C   UNL     1      -5.828   2.082  25.542  0.00  0.00    +0.037 A 
BRANCH   3   2
ATOM      1  C   UNL     1      -5.548   3.931  25.744  0.00  0.00    +0.252 C 
ATOM      2  O   UNL     1      -5.687   3.435  25.101  0.00  0.00    -0.471 OA
ENDBRANCH   3   2
ENDBRANCH   6   5
ENDBRANCH  10   9
ENDBRANCH  11  10
BRANCH  15  16
ATOM     16  C   UNL     1       0.942  -0.370  23.556  0.00  0.00    +0.091 C 
BRANCH  16  17
ATOM     17  C   UNL     1       1.426  -0.092  22.949  0.00  0.00    +0.243 C 
ATOM     18  O   UNL     1       1.113   0.027  22.194  0.00  0.00    -0.273 OA
ATOM     19  N   UNL     1       2.221   0.067  23.095  0.00  0.00    -0.191 NA
BRANCH  19  20
ATOM     20  C   UNL     1       2.706   0.345  22.487  0.00  0.00    +0.191 C 
BRANCH  20  21
ATOM     21  C   UNL     1       3.486   0.559  22.646  0.00  0.00    -0.054 C 
ATOM     22  C   UNL     1       4.267   0.773  22.806  0.00  0.00    -0.012 C 
ENDBRANCH  20  21
ENDBRANCH  19  20
ENDBRANCH  16  17
ENDBRANCH  15  16
TORSDOF 9
ENDMDL
MODEL 4
REMARK VINA RESULT:     -10.0      2.190      6.439
REMARK  Name = 
REMARK  9 active torsions:
REMARK  status: ('A' for Active; 'I' for Inactive)
REMARK    1  A    between atoms: O_2  and  C_3
REMARK    2  A    between atoms: C_5  and  N_6
REMARK    3  A    between atoms: N_9  and  C_10
REMARK    4  A    between atoms: C_10  and  C_11
REMARK    5  A    between atoms: C_15  and  C_16
REMARK    6  A    between atoms: C_16  and  C_17
REMARK    7  A    between atoms: N_19  and  C_20
REMARK    8  A    between atoms: C_20  and  C_21
REMARK    9  A    between atoms: C_24  and  C_25
REMARK                            x       y       z     vdW  Elec       q    Type
REMARK                         _______ _______ _______ _____ _____    ______ ____
ROOT
ATOM     11  C   UNL     1      -0.511   0.358  24.662  0.00  0.00    +0.043 C 
ATOM     12  C   UNL     1      -0.920   0.196  25.360  0.00  0.00    -0.033 C 
ATOM     13  C   UNL     1      -1.152  -0.577  25.532  0.00  0.00    -0.048 C 
ATOM     14  C   UNL     1      -1.561  -0.739  26.231  0.00  0.00    +0.026 C 
ATOM     15  C   UNL     1      -0.974  -1.188  25.007  0.00  0.00    +0.027 C 
ATOM     23  C   UNL     1      -0.565  -1.026  24.309  0.00  0.00    +0.005 C 
ATOM     24  C   UNL     1      -0.333  -0.252  24.136  0.00  0.00    +0.006 C 
ENDROOT
BRANCH  24  25
ATOM     25  C   UNL     1       0.075  -0.091  23.439  0.00  0.00    +0.000 C 
ATOM     26  C   UNL     1       0.897  -0.154  23.418  0.00  0.00    +0.000 C 
ATOM     27  C   UNL     1      -0.338   0.135  22.761  0.00  0.00    +0.000 C 
ENDBRANCH  24  25
BRANCH  11  10
ATOM     10  C   UNL     1      -0.279   1.130  24.489  0.00  0.00    +0.121 C 
BRANCH  10   9
ATOM      6  N   UNL     1      -0.619   3.004  25.555  0.00  0.00    -0.161 NA
ATOM      7  C   UNL     1      -0.629   2.433  24.960  0.00  0.00    +0.344 C 
ATOM      8  O   UNL     1      -1.001   2.593  24.241  0.00  0.00    -0.249 OA
ATOM      9  N   UNL     1      -0.268   1.701  25.083  0.00  0.00    -0.187 NA
BRANCH   6   5
ATOM      3  C   UNL     1      -2.092   4.613  25.613  0.00  0.00    +0.140 A 
ATOM      4  C   UNL     1      -1.732   3.882  25.737  0.00  0.00    +0.054 A 
ATOM      5  C   UNL     1      -0.979   3.735  25.431  0.00  0.00    +0.078 A 
ATOM     28  C   UNL     1      -0.587   4.321  25.001  0.00  0.00    +0.017 A 
ATOM     29  C   UNL     1      -0.949   5.052  24.877  0.00  0.00    +0.004 A 
ATOM     30  C   UNL     1      -1.700   5.199  25.183  0.00  0.00    +0.037 A 
BRANCH   3   2
ATOM      1  C   UNL     1      -3.468   4.249  25.745  0.00  0.00    +0.252 C 
ATOM      2  O   UNL     1      -2.844   4.759  25.919  0.00  0.00    -0.471 OA
ENDBRANCH   3   2
ENDBRANCH   6   5
ENDBRANCH  10   9
ENDBRANCH  11  10
BRANCH  15  16
ATOM     16  C   UNL     1      -1.206  -1.961  25.178  0.00  0.00    +0.091 C 
BRANCH  16  17
ATOM     17  C   UNL     1      -1.671  -2.381  24.643  0.00  0.00    +0.243 C 
ATOM     18  O   UNL     1      -1.315  -2.846  24.063  0.00  0.00    -0.273 OA
ATOM     19  N   UNL     1      -2.493  -2.337  24.688  0.00  0.00    -0.191 NA
BRANCH  19  20
ATOM     20  C   UNL     1      -2.960  -2.758  24.153  0.00  0.00    +0.191 C 
BRANCH  20  21
ATOM     21  C   UNL     1      -3.742  -2.533  24.021  0.00  0.00    -0.054 C 
ATOM     22  C   UNL     1      -4.525  -2.308  23.889  0.00  0.00    -0.012 C 
ENDBRANCH  20  21
ENDBRANCH  19  20
ENDBRANCH  16  17
ENDBRANCH  15  16
TORSDOF 9
ENDMDL
MODEL 5
REMARK VINA RESULT:      -9.9      4.003      5.630
REMARK  Name = 
REMARK  9 active torsions:
REMARK  status: ('A' for Active; 'I' for Inactive)
REMARK    1  A    between atoms: O_2  and  C_3
REMARK    2  A    between atoms: C_5  and  N_6
REMARK    3  A    between atoms: N_9  and  C_10
REMARK    4  A    between atoms: C_10  and  C_11
REMARK    5  A    between atoms: C_15  and  C_16
REMARK    6  A    between atoms: C_16  and  C_17
REMARK    7  A    between atoms: N_19  and  C_20
REMARK    8  A    between atoms: C_20  and  C_21
REMARK    9  A    between atoms: C_24  and  C_25
REMARK                            x       y       z     vdW  Elec       q    Type
REMARK                         _______ _______ _______ _____ _____    ______ ____
ROOT
ATOM     11  C   UNL     1      -0.498   0.615  24.159  0.00  0.00    +0.043 C 
ATOM     12  C   UNL     1      -0.620  -0.195  24.259  0.00  0.00    -0.033 C 
ATOM     13  C   UNL     1      -1.344  -0.470  24.542  0.00  0.00    -0.048 C 
ATOM     14  C   UNL     1      -1.466  -1.281  24.642  0.00  0.00    +0.026 C 
ATOM     15  C   UNL     1      -1.946   0.063  24.726  0.00  0.00    +0.027 C 
ATOM     23  C   UNL     1      -1.823   0.873  24.627  0.00  0.00    +0.005 C 
ATOM     24  C   UNL     1      -1.098   1.149  24.343  0.00  0.00    +0.006 C 
ENDROOT
BRANCH  24  25
ATOM     25  C   UNL     1      -0.976   1.958  24.244  0.00  0.00    +0.000 C 
ATOM     26  C   UNL     1      -1.154   2.317  23.523  0.00  0.00    +0.000 C 
ATOM     27  C   UNL     1      -0.675   2.409  24.866  0.00  0.00    +0.000 C 
ENDBRANCH  24  25
BRANCH  11  10
ATOM     10  C   UNL     1       0.226   0.891  23.876  0.00  0.00    +0.121 C 
BRANCH  10   9
ATOM      6  N   UNL     1       2.007   0.056  22.931  0.00  0.00    -0.161 NA
ATOM      7  C   UNL     1       1.521   0.553  23.375  0.00  0.00    +0.344 C 
ATOM      8  O   UNL     1       1.841   1.206  23.762  0.00  0.00    -0.249 OA
ATOM      9  N   UNL     1       0.712   0.395  23.432  0.00  0.00    -0.187 NA
BRANCH   6   5
ATOM      3  C   UNL     1       4.166  -0.122  23.194  0.00  0.00    +0.140 A 
ATOM      4  C   UNL     1       3.359  -0.279  23.251  0.00  0.00    +0.054 A 
ATOM      5  C   UNL     1       2.814   0.213  22.874  0.00  0.00    +0.078 A 
ATOM     28  C   UNL     1       3.079   0.864  22.439  0.00  0.00    +0.017 A 
ATOM     29  C   UNL     1       3.887   1.021  22.382  0.00  0.00    +0.004 A 
ATOM     30  C   UNL     1       4.430   0.529  22.759  0.00  0.00    +0.037 A 
BRANCH   3   2
ATOM      1  C   UNL     1       5.406  -0.299  23.882  0.00  0.00    +0.252 C 
ATOM      2  O   UNL     1       4.711  -0.614  23.571  0.00  0.00    -0.471 OA
ENDBRANCH   3   2
ENDBRANCH   6   5
ENDBRANCH  10   9
ENDBRANCH  11  10
BRANCH  15  16
ATOM     16  C   UNL     1      -2.670  -0.212  25.010  0.00  0.00    +0.091 C 
BRANCH  16  17
ATOM     17  C   UNL     1      -3.373   0.046  24.666  0.00  0.00    +0.243 C 
ATOM     18  O   UNL     1      -3.554  -0.166  23.889  0.00  0.00    -0.273 OA
ATOM     19  N   UNL     1      -3.895   0.516  25.097  0.00  0.00    -0.191 NA
BRANCH  19  20
ATOM     20  C   UNL     1      -4.599   0.775  24.753  0.00  0.00    +0.191 C 
BRANCH  20  21
ATOM     21  C   UNL     1      -5.081   1.312  25.152  0.00  0.00    -0.054 C 
ATOM     22  C   UNL     1      -5.563   1.850  25.551  0.00  0.00    -0.012 C 
ENDBRANCH  20  21
ENDBRANCH  19  20
ENDBRANCH  16  17
ENDBRANCH  15  16
TORSDOF 9
ENDMDL
MODEL 6
REMARK VINA RESULT:      -9.6      3.508      5.010
REMARK  Name = 
REMARK  9 active torsions:
REMARK  status: ('A' for Active; 'I' for Inactive)
REMARK    1  A    between atoms: O_2  and  C_3
REMARK    2  A    between atoms: C_5  and  N_6
REMARK    3  A    between atoms: N_9  and  C_10
REMARK    4  A    between atoms: C_10  and  C_11
REMARK    5  A    between atoms: C_15  and  C_16
REMARK    6  A    between atoms: C_16  and  C_17
REMARK    7  A    between atoms: N_19  and  C_20
REMARK    8  A    between atoms: C_20  and  C_21
REMARK    9  A    between atoms: C_24  and  C_25
REMARK                            x       y       z     vdW  Elec       q    Type
REMARK                         _______ _______ _______ _____ _____    ______ ____
ROOT
ATOM     11  C   UNL     1      -1.422   0.574  24.327  0.00  0.00    +0.043 C 
ATOM     12  C   UNL     1      -1.626  -0.221  24.409  0.00  0.00    -0.033 C 
ATOM     13  C   UNL     1      -2.364  -0.428  24.712  0.00  0.00    -0.048 C 
ATOM     14  C   UNL     1      -2.568  -1.225  24.794  0.00  0.00    +0.026 C 
ATOM     15  C   UNL     1      -2.900   0.159  24.932  0.00  0.00    +0.027 C 
ATOM     23  C   UNL     1      -2.697   0.954  24.850  0.00  0.00    +0.005 C 
ATOM     24  C   UNL     1      -1.958   1.162  24.547  0.00  0.00    +0.006 C 
ENDROOT
BRANCH  24  25
ATOM     25  C   UNL     1      -1.755   1.957  24.465  0.00  0.00    +0.000 C 
ATOM     26  C   UNL     1      -1.402   2.360  25.092  0.00  0.00    +0.000 C 
ATOM     27  C   UNL     1      -1.904   2.350  23.754  0.00  0.00    +0.000 C 
ENDBRANCH  24  25
BRANCH  11  10
ATOM     10  C   UNL     1      -0.684   0.783  24.025  0.00  0.00    +0.121 C 
BRANCH  10   9
ATOM      6  N   UNL     1       1.137  -0.205  23.338  0.00  0.00    -0.161 NA
ATOM      7  C   UNL     1       0.560   0.374  23.454  0.00  0.00    +0.344 C 
ATOM      8  O   UNL     1       0.650   1.120  23.114  0.00  0.00    -0.249 OA
ATOM      9  N   UNL     1      -0.107   0.205  23.909  0.00  0.00    -0.187 NA
BRANCH   6   5
ATOM      3  C   UNL     1       3.113   0.525  22.766  0.00  0.00    +0.140 A 
ATOM      4  C   UNL     1       2.446   0.357  23.221  0.00  0.00    +0.054 A 
ATOM      5  C   UNL     1       1.804  -0.036  22.883  0.00  0.00    +0.078 A 
ATOM     28  C   UNL     1       1.829  -0.261  22.089  0.00  0.00    +0.017 A 
ATOM     29  C   UNL     1       2.497  -0.092  21.634  0.00  0.00    +0.004 A 
ATOM     30  C   UNL     1       3.138   0.300  21.971  0.00  0.00    +0.037 A 
BRANCH   3   2
ATOM      1  C   UNL     1       4.500   0.566  23.105  0.00  0.00    +0.252 C 
ATOM      2  O   UNL     1       3.755   0.918  23.103  0.00  0.00    -0.471 OA
ENDBRANCH   3   2
ENDBRANCH   6   5
ENDBRANCH  10   9
ENDBRANCH  11  10
BRANCH  15  16
ATOM     16  C   UNL     1      -3.640  -0.048  25.234  0.00  0.00    +0.091 C 
BRANCH  16  17
ATOM     17  C   UNL     1      -4.320   0.319  24.949  0.00  0.00    +0.243 C 
ATOM     18  O   UNL     1      -4.614   0.121  24.204  0.00  0.00    -0.273 OA
ATOM     19  N   UNL     1      -4.708   0.884  25.407  0.00  0.00    -0.191 NA
BRANCH  19  20
ATOM     20  C   UNL     1      -5.389   1.252  25.122  0.00  0.00    +0.191 C 
BRANCH  20  21
ATOM     21  C   UNL     1      -5.669   1.938  25.481  0.00  0.00    -0.054 C 
ATOM     22  C   UNL     1      -5.949   2.627  25.841  0.00  0.00    -0.012 C 
ENDBRANCH  20  21
ENDBRANCH  19  20
ENDBRANCH  16  17
ENDBRANCH  15  16
TORSDOF 9
ENDMDL
MODEL 7
REMARK VINA RESULT:      -9.5      3.680      4.891
REMARK  Name = 
REMARK  9 active torsions:
REMARK  status: ('A' for Active; 'I' for Inactive)
REMARK    1  A    between atoms: O_2  and  C_3
REMARK    2  A    between atoms: C_5  and  N_6
REMARK    3  A    between atoms: N_9  and  C_10
REMARK    4  A    between atoms: C_10  and  C_11
REMARK    5  A    between atoms: C_15  and  C_16
REMARK    6  A    between atoms: C_16  and  C_17
REMARK    7  A    between atoms: N_19  and  C_20
REMARK    8  A    between atoms: C_20  and  C_21
REMARK    9  A    between atoms: C_24  and  C_25
REMARK                            x       y       z     vdW  Elec       q    Type
REMARK                         _______ _______ _______ _____ _____    ______ ____
ROOT
ATOM     11  C   UNL     1      -0.839   2.065  24.669  0.00  0.00    +0.043 C 
ATOM     12  C   UNL     1      -0.629   2.856  24.771  0.00  0.00    -0.033 C 
ATOM     13  C   UNL     1      -1.176   3.391  25.078  0.00  0.00    -0.048 C 
ATOM     14  C   UNL     1      -0.967   4.183  25.181  0.00  0.00    +0.026 C 
ATOM     15  C   UNL     1      -1.934   3.135  25.284  0.00  0.00    +0.027 C 
ATOM     23  C   UNL     1      -2.143   2.344  25.181  0.00  0.00    +0.005 C 
ATOM     24  C   UNL     1      -1.596   1.808  24.874  0.00  0.00    +0.006 C 
ENDROOT
BRANCH  24  25
ATOM     25  C   UNL     1      -1.805   1.018  24.771  0.00  0.00    +0.000 C 
ATOM     26  C   UNL     1      -2.162   0.772  24.069  0.00  0.00    +0.000 C 
ATOM     27  C   UNL     1      -1.658   0.470  25.372  0.00  0.00    +0.000 C 
ENDBRANCH  24  25
BRANCH  11  10
ATOM     10  C   UNL     1      -0.292   1.529  24.362  0.00  0.00    +0.121 C 
BRANCH  10   9
ATOM      6  N   UNL     1       1.732   1.529  23.545  0.00  0.00    -0.161 NA
ATOM      7  C   UNL     1       0.977   1.273  23.757  0.00  0.00    +0.344 C 
ATOM      8  O   UNL     1       0.736   0.505  23.577  0.00  0.00    -0.249 OA
ATOM      9  N   UNL     1       0.462   1.785  24.150  0.00  0.00    -0.187 NA
BRANCH   6   5
ATOM      3  C   UNL     1       3.574   0.633  22.793  0.00  0.00    +0.140 A 
ATOM      4  C   UNL     1       3.061   1.145  23.185  0.00  0.00    +0.054 A 
ATOM      5  C   UNL     1       2.246   1.017  23.153  0.00  0.00    +0.078 A 
ATOM     28  C   UNL     1       1.945   0.377  22.727  0.00  0.00    +0.017 A 
ATOM     29  C   UNL     1       2.460  -0.135  22.335  0.00  0.00    +0.004 A 
ATOM     30  C   UNL     1       3.274  -0.008  22.367  0.00  0.00    +0.037 A 
BRANCH   3   2
ATOM      1  C   UNL     1       4.879   0.210  23.196  0.00  0.00    +0.252 C 
ATOM      2  O   UNL     1       4.389   0.760  22.826  0.00  0.00    -0.471 OA
ENDBRANCH   3   2
ENDBRANCH   6   5
ENDBRANCH  10   9
ENDBRANCH  11  10
BRANCH  15  16
ATOM     16  C   UNL     1      -2.482   3.670  25.591  0.00  0.00    +0.091 C 
BRANCH  16  17
ATOM     17  C   UNL     1      -3.239   3.717  25.268  0.00  0.00    +0.243 C 
ATOM     18  O   UNL     1      -3.343   4.013  24.505  0.00  0.00    -0.273 OA
ATOM     19  N   UNL     1      -3.891   3.470  25.707  0.00  0.00    -0.191 NA
BRANCH  19  20
ATOM     20  C   UNL     1      -4.649   3.517  25.384  0.00  0.00    +0.191 C 
BRANCH  20  21
ATOM     21  C   UNL     1      -5.253   3.038  25.675  0.00  0.00    -0.054 C 
ATOM     22  C   UNL     1      -5.858   2.558  25.968  0.00  0.00    -0.012 C 
ENDBRANCH  20  21
ENDBRANCH  19  20
ENDBRANCH  16  17
ENDBRANCH  15  16
TORSDOF 9
ENDMDL
MODEL 8
REMARK VINA RESULT:      -8.5      1.603      5.997
REMARK  Name = 
REMARK  9 active torsions:
REMARK  status: ('A' for Active; 'I' for Inactive)
REMARK    1  A    between atoms: O_2  and  C_3
REMARK    2  A    between atoms: C_5  and  N_6
REMARK    3  A    between atoms: N_9  and  C_10
REMARK    4  A    between atoms: C_10  and  C_11
REMARK    5  A    between atoms: C_15  and  C_16
REMARK    6  A    between atoms: C_16  and  C_17
REMARK    7  A    between atoms: N_19  and  C_20
REMARK    8  A    between atoms: C_20  and  C_21
REMARK    9  A    between atoms: C_24  and  C_25
REMARK                            x       y       z     vdW  Elec       q    Type
REMARK                         _______ _______ _______ _____ _____    ______ ____
ROOT
ATOM     11  C   UNL     1      -2.623   0.609  25.113  0.00  0.00    +0.043 C 
ATOM     12  C   UNL     1      -1.938   0.285  25.440  0.00  0.00    -0.033 C 
ATOM     13  C   UNL     1      -1.885  -0.528  25.563  0.00  0.00    -0.048 C 
ATOM     14  C   UNL     1      -1.200  -0.853  25.890  0.00  0.00    +0.026 C 
ATOM     15  C   UNL     1      -2.517  -1.019  25.359  0.00  0.00    +0.027 C 
ATOM     23  C   UNL     1      -3.202  -0.695  25.033  0.00  0.00    +0.005 C 
ATOM     24  C   UNL     1      -3.255   0.120  24.910  0.00  0.00    +0.006 C 
ENDROOT
BRANCH  24  25
ATOM     25  C   UNL     1      -3.939   0.443  24.584  0.00  0.00    +0.000 C 
ATOM     26  C   UNL     1      -4.579   0.630  25.069  0.00  0.00    +0.000 C 
ATOM     27  C   UNL     1      -3.984   0.581  23.771  0.00  0.00    +0.000 C 
ENDBRANCH  24  25
BRANCH  11  10
ATOM     10  C   UNL     1      -2.677   1.423  24.990  0.00  0.00    +0.121 C 
BRANCH  10   9
ATOM      6  N   UNL     1      -1.701   3.246  25.688  0.00  0.00    -0.161 NA
ATOM      7  C   UNL     1      -2.144   2.728  25.223  0.00  0.00    +0.344 C 
ATOM      8  O   UNL     1      -2.496   2.996  24.527  0.00  0.00    -0.249 OA
ATOM      9  N   UNL     1      -2.235   1.940  25.454  0.00  0.00    -0.187 NA
BRANCH   6   5
ATOM      3  C   UNL     1      -0.842   5.054  24.818  0.00  0.00    +0.140 A 
ATOM      4  C   UNL     1      -0.933   4.268  25.049  0.00  0.00    +0.054 A 
ATOM      5  C   UNL     1      -1.611   4.032  25.456  0.00  0.00    +0.078 A 
ATOM     28  C   UNL     1      -2.199   4.585  25.633  0.00  0.00    +0.017 A 
ATOM     29  C   UNL     1      -2.108   5.371  25.401  0.00  0.00    +0.004 A 
ATOM     30  C   UNL     1      -1.431   5.606  24.994  0.00  0.00    +0.037 A 
BRANCH   3   2
ATOM      1  C   UNL     1      -0.013   4.995  23.655  0.00  0.00    +0.252 C 
ATOM      2  O   UNL     1      -0.165   5.290  24.410  0.00  0.00    -0.471 OA
ENDBRANCH   3   2
ENDBRANCH   6   5
ENDBRANCH  10   9
ENDBRANCH  11  10
BRANCH  15  16
ATOM     16  C   UNL     1      -2.464  -1.833  25.482  0.00  0.00    +0.091 C 
BRANCH  16  17
ATOM     17  C   UNL     1      -2.603  -2.355  24.859  0.00  0.00    +0.243 C 
ATOM     18  O   UNL     1      -2.007  -2.507  24.309  0.00  0.00    -0.273 OA
ATOM     19  N   UNL     1      -3.336  -2.724  24.785  0.00  0.00    -0.191 NA
BRANCH  19  20
ATOM     20  C   UNL     1      -3.475  -3.246  24.161  0.00  0.00    +0.191 C 
BRANCH  20  21
ATOM     21  C   UNL     1      -4.202  -3.242  23.773  0.00  0.00    -0.054 C 
ATOM     22  C   UNL     1      -4.931  -3.238  23.385  0.00  0.00    -0.012 C 
ENDBRANCH  20  21
ENDBRANCH  19  20
ENDBRANCH  16  17
ENDBRANCH  15  16
TORSDOF 9
ENDMDL
