MODEL 1
REMARK VINA RESULT:      -7.3      0.000      0.000
REMARK  Name = 
REMARK  2 active torsions:
REMARK  status: ('A' for Active; 'I' for Inactive)
REMARK    1  A    between atoms: N_6  and  C_7
REMARK    2  A    between atoms: C_7  and  C_8
REMARK                            x       y       z     vdW  Elec       q    Type
REMARK                         _______ _______ _______ _____ _____    ______ ____
ROOT
ATOM      1  C   UNL     1      -5.993   1.916  25.057  0.00  0.00    +0.117 C 
ATOM      2  N   UNL     1      -5.252   2.275  25.099  0.00  0.00    -0.261 N 
ATOM      3  C   UNL     1      -4.571   2.030  24.702  0.00  0.00    +0.116 C 
ATOM      4  C   UNL     1      -3.960   2.545  24.903  0.00  0.00    +0.113 C 
ATOM      5  C   UNL     1      -3.166   2.575  24.680  0.00  0.00    +0.094 C 
ATOM      6  N   UNL     1      -2.675   3.167  24.976  0.00  0.00    -0.263 NA
ATOM     13  C   UNL     1      -2.978   3.731  25.497  0.00  0.00    +0.094 C 
ATOM     14  C   UNL     1      -3.771   3.703  25.721  0.00  0.00    +0.112 C 
ATOM     15  N   UNL     1      -4.262   3.109  25.424  0.00  0.00    -0.261 N 
ATOM     16  C   UNL     1      -5.061   2.942  25.544  0.00  0.00    +0.307 C 
ATOM     17  O   UNL     1      -5.578   3.368  26.027  0.00  0.00    -0.252 OA
ENDROOT
BRANCH   6   7
ATOM      7  C   UNL     1      -1.881   3.197  24.753  0.00  0.00    +0.139 C 
BRANCH   7   8
ATOM      8  C   UNL     1      -1.310   2.814  25.207  0.00  0.00    +0.155 A 
ATOM      9  N   UNL     1      -0.899   3.138  25.844  0.00  0.00    -0.226 NA
ATOM     10  C   UNL     1      -0.384   2.564  26.135  0.00  0.00    +0.121 A 
ATOM     11  C   UNL     1      -0.476   1.883  25.677  0.00  0.00    +0.121 A 
ATOM     12  N   UNL     1      -1.048   2.038  25.103  0.00  0.00    -0.226 NA
ENDBRANCH   7   8
ENDBRANCH   6   7
TORSDOF 2
ENDMDL
MODEL 2
REMARK VINA RESULT:      -7.2      2.276      3.063
REMARK  Name = 
REMARK  2 active torsions:
REMARK  status: ('A' for Active; 'I' for Inactive)
REMARK    1  A    between atoms: N_6  and  C_7
REMARK    2  A    between atoms: C_7  and  C_8
REMARK                            x       y       z     vdW  Elec       q    Type
REMARK                         _______ _______ _______ _____ _____    ______ ____
ROOT
ATOM      1  C   UNL     1      -5.157   3.795  25.468  0.00  0.00    +0.117 C 
ATOM      2  N   UNL     1      -4.848   3.097  25.155  0.00  0.00    -0.261 N 
ATOM      3  C   UNL     1      -5.106   2.332  25.328  0.00  0.00    +0.116 C 
ATOM      4  C   UNL     1      -4.645   1.804  24.894  0.00  0.00    +0.113 C 
ATOM      5  C   UNL     1      -4.649   0.980  24.843  0.00  0.00    +0.094 C 
ATOM      6  N   UNL     1      -4.110   0.595  24.352  0.00  0.00    -0.263 NA
ATOM     13  C   UNL     1      -3.567   1.032  23.912  0.00  0.00    +0.094 C 
ATOM     14  C   UNL     1      -3.562   1.856  23.962  0.00  0.00    +0.112 C 
ATOM     15  N   UNL     1      -4.102   2.242  24.454  0.00  0.00    -0.261 N 
ATOM     16  C   UNL     1      -4.227   3.040  24.615  0.00  0.00    +0.307 C 
ATOM     17  O   UNL     1      -3.806   3.673  24.292  0.00  0.00    -0.252 OA
ENDROOT
BRANCH   6   7
ATOM      7  C   UNL     1      -4.114  -0.229  24.301  0.00  0.00    +0.139 C 
BRANCH   7   8
ATOM      8  C   UNL     1      -3.635  -0.676  24.801  0.00  0.00    +0.155 A 
ATOM      9  N   UNL     1      -2.857  -0.908  24.649  0.00  0.00    -0.226 NA
ATOM     10  C   UNL     1      -2.590  -1.345  25.295  0.00  0.00    +0.121 A 
ATOM     11  C   UNL     1      -3.203  -1.384  25.848  0.00  0.00    +0.121 A 
ATOM     12  N   UNL     1      -3.848  -0.970  25.542  0.00  0.00    -0.226 NA
ENDBRANCH   7   8
ENDBRANCH   6   7
TORSDOF 2
ENDMDL
MODEL 3
REMARK VINA RESULT:      -7.2      1.534      3.872
REMARK  Name = 
REMARK  2 active torsions:
REMARK  status: ('A' for Active; 'I' for Inactive)
REMARK    1  A    between atoms: N_6  and  C_7
REMARK    2  A    between atoms: C_7  and  C_8
REMARK                            x       y       z     vdW  Elec       q    Type
REMARK                         _______ _______ _______ _____ _____    ______ ____
ROOT
ATOM      1  C   UNL     1      -0.007   2.501  26.152  0.00  0.00    +0.117 C 
ATOM      2  N   UNL     1      -0.728   2.395  25.765  0.00  0.00    -0.261 N 
ATOM      3  C   UNL     1      -1.298   2.977  25.634  0.00  0.00    +0.116 C 
ATOM      4  C   UNL     1      -1.927   2.630  25.230  0.00  0.00    +0.113 C 
ATOM      5  C   UNL     1      -2.643   2.936  24.954  0.00  0.00    +0.094 C 
ATOM      6  N   UNL     1      -3.176   2.446  24.559  0.00  0.00    -0.263 NA
ATOM     13  C   UNL     1      -2.995   1.650  24.439  0.00  0.00    +0.094 C 
ATOM     14  C   UNL     1      -2.280   1.344  24.714  0.00  0.00    +0.112 C 
ATOM     15  N   UNL     1      -1.746   1.834  25.110  0.00  0.00    -0.261 N 
ATOM     16  C   UNL     1      -1.005   1.689  25.441  0.00  0.00    +0.307 C 
ATOM     17  O   UNL     1      -0.610   0.964  25.446  0.00  0.00    -0.252 OA
ENDROOT
BRANCH   6   7
ATOM      7  C   UNL     1      -3.891   2.752  24.283  0.00  0.00    +0.139 C 
BRANCH   7   8
ATOM      8  C   UNL     1      -4.573   2.683  24.741  0.00  0.00    +0.155 A 
ATOM      9  N   UNL     1      -5.112   2.059  24.720  0.00  0.00    -0.226 NA
ATOM     10  C   UNL     1      -5.709   2.217  25.267  0.00  0.00    +0.121 A 
ATOM     11  C   UNL     1      -5.539   2.940  25.627  0.00  0.00    +0.121 A 
ATOM     12  N   UNL     1      -4.837   3.228  25.302  0.00  0.00    -0.226 NA
ENDBRANCH   7   8
ENDBRANCH   6   7
TORSDOF 2
ENDMDL
MODEL 4
REMARK VINA RESULT:      -7.1      2.541      3.704
REMARK  Name = 
REMARK  2 active torsions:
REMARK  status: ('A' for Active; 'I' for Inactive)
REMARK    1  A    between atoms: N_6  and  C_7
REMARK    2  A    between atoms: C_7  and  C_8
REMARK                            x       y       z     vdW  Elec       q    Type
REMARK                         _______ _______ _______ _____ _____    ______ ____
ROOT
ATOM      1  C   UNL     1      -3.386  -2.026  25.351  0.00  0.00    +0.117 C 
ATOM      2  N   UNL     1      -3.378  -1.221  25.172  0.00  0.00    -0.261 N 
ATOM      3  C   UNL     1      -4.016  -0.780  24.890  0.00  0.00    +0.116 C 
ATOM      4  C   UNL     1      -3.762  -0.003  24.787  0.00  0.00    +0.113 C 
ATOM      5  C   UNL     1      -4.152   0.675  24.523  0.00  0.00    +0.094 C 
ATOM      6  N   UNL     1      -3.748   1.392  24.478  0.00  0.00    -0.263 NA
ATOM     13  C   UNL     1      -2.953   1.433  24.696  0.00  0.00    +0.094 C 
ATOM     14  C   UNL     1      -2.563   0.756  24.961  0.00  0.00    +0.112 C 
ATOM     15  N   UNL     1      -2.968   0.038  25.006  0.00  0.00    -0.261 N 
ATOM     16  C   UNL     1      -2.730  -0.715  25.244  0.00  0.00    +0.307 C 
ATOM     17  O   UNL     1      -1.977  -0.926  25.507  0.00  0.00    -0.252 OA
ENDROOT
BRANCH   6   7
ATOM      7  C   UNL     1      -4.137   2.070  24.214  0.00  0.00    +0.139 C 
BRANCH   7   8
ATOM      8  C   UNL     1      -4.505   2.572  24.754  0.00  0.00    +0.155 A 
ATOM      9  N   UNL     1      -4.155   3.215  25.136  0.00  0.00    -0.226 NA
ATOM     10  C   UNL     1      -4.722   3.560  25.626  0.00  0.00    +0.121 A 
ATOM     11  C   UNL     1      -5.423   3.130  25.547  0.00  0.00    +0.121 A 
ATOM     12  N   UNL     1      -5.289   2.520  25.008  0.00  0.00    -0.226 NA
ENDBRANCH   7   8
ENDBRANCH   6   7
TORSDOF 2
ENDMDL
