MODEL 1
REMARK VINA RESULT:     -12.9      0.000      0.000
REMARK  Name = 
REMARK  6 active torsions:
REMARK  status: ('A' for Active; 'I' for Inactive)
REMARK    1  A    between atoms: N_4  and  C_22
REMARK    2  A    between atoms: C_7  and  C_8
REMARK    3  A    between atoms: C_10  and  N_11
REMARK    4  A    between atoms: N_11  and  C_12
REMARK    5  A    between atoms: C_12  and  C_13
REMARK    6  A    between atoms: C_23  and  N_28
REMARK                            x       y       z     vdW  Elec       q    Type
REMARK                         _______ _______ _______ _____ _____    ______ ____
ROOT
ATOM      1  C   UNL     1      -5.190   1.081  25.798  0.00  0.00    +0.054 C 
ATOM      2  C   UNL     1      -4.742   0.597  25.301  0.00  0.00    +0.077 A 
ATOM      3  N   UNL     1      -4.703  -0.225  25.332  0.00  0.00    -0.170 NA
ATOM      4  N   UNL     1      -4.191  -0.479  24.736  0.00  0.00    -0.233 N 
ATOM      5  C   UNL     1      -3.914   0.188  24.338  0.00  0.00    +0.058 A 
ATOM      6  C   UNL     1      -3.388   0.188  23.701  0.00  0.00    +0.052 C 
ATOM      7  C   UNL     1      -4.254   0.854  24.687  0.00  0.00    +0.010 A 
ENDROOT
BRANCH   4  22
ATOM     22  C   UNL     1      -3.992  -1.263  24.569  0.00  0.00    +0.105 A 
ATOM     23  C   UNL     1      -3.499  -1.680  25.082  0.00  0.00    +0.160 A 
ATOM     24  C   UNL     1      -3.300  -2.464  24.914  0.00  0.00    +0.026 A 
ATOM     25  C   UNL     1      -3.593  -2.828  24.236  0.00  0.00    +0.002 A 
ATOM     26  C   UNL     1      -4.086  -2.410  23.722  0.00  0.00    +0.002 A 
ATOM     27  C   UNL     1      -4.285  -1.626  23.890  0.00  0.00    +0.021 A 
BRANCH  23  28
ATOM     28  N   UNL     1      -3.206  -1.317  25.761  0.00  0.00    +0.059 N 
ATOM     29  O   UNL     1      -3.647  -1.323  26.457  0.00  0.00    -0.126 OA
ATOM     30  O   UNL     1      -2.468  -0.946  25.744  0.00  0.00    -0.126 OA
ENDBRANCH  23  28
ENDBRANCH   4  22
BRANCH   7   8
ATOM      8  C   UNL     1      -4.128   1.637  24.460  0.00  0.00    +0.048 C 
ATOM      9  C   UNL     1      -3.460   2.089  24.627  0.00  0.00    +0.031 C 
ATOM     10  C   UNL     1      -3.568   2.836  24.297  0.00  0.00    +0.095 C 
ATOM     20  C   UNL     1      -4.304   2.846  23.924  0.00  0.00    -0.013 C 
ATOM     21  C   UNL     1      -4.650   2.105  24.025  0.00  0.00    -0.025 C 
BRANCH  10  11
ATOM     11  N   UNL     1      -3.034   3.465  24.331  0.00  0.00    -0.210 NA
BRANCH  11  12
ATOM     12  C   UNL     1      -2.544   3.555  24.989  0.00  0.00    +0.115 C 
BRANCH  12  13
ATOM     13  C   UNL     1      -1.929   4.105  24.972  0.00  0.00    -0.005 A 
ATOM     14  C   UNL     1      -1.159   3.858  24.808  0.00  0.00    -0.001 A 
ATOM     15  C   UNL     1      -0.544   4.408  24.791  0.00  0.00    +0.029 A 
ATOM     16  C   UNL     1      -0.699   5.204  24.939  0.00  0.00    +0.140 A 
ATOM     17  F   UNL     1      -0.084   5.754  24.923  0.00  0.00    -0.204 F 
ATOM     18  C   UNL     1      -1.469   5.451  25.104  0.00  0.00    +0.029 A 
ATOM     19  C   UNL     1      -2.084   4.902  25.120  0.00  0.00    -0.001 A 
ENDBRANCH  12  13
ENDBRANCH  11  12
ENDBRANCH  10  11
ENDBRANCH   7   8
TORSDOF 6
ENDMDL
MODEL 2
REMARK VINA RESULT:     -11.7      2.323      5.665
REMARK  Name = 
REMARK  6 active torsions:
REMARK  status: ('A' for Active; 'I' for Inactive)
REMARK    1  A    between atoms: N_4  and  C_22
REMARK    2  A    between atoms: C_7  and  C_8
REMARK    3  A    between atoms: C_10  and  N_11
REMARK    4  A    between atoms: N_11  and  C_12
REMARK    5  A    between atoms: C_12  and  C_13
REMARK    6  A    between atoms: C_23  and  N_28
REMARK                            x       y       z     vdW  Elec       q    Type
REMARK                         _______ _______ _______ _____ _____    ______ ____
ROOT
ATOM      1  C   UNL     1      -3.132   2.148  22.825  0.00  0.00    +0.054 C 
ATOM      2  C   UNL     1      -2.921   2.552  23.514  0.00  0.00    +0.077 A 
ATOM      3  N   UNL     1      -2.380   3.172  23.566  0.00  0.00    -0.170 NA
ATOM      4  N   UNL     1      -2.339   3.408  24.356  0.00  0.00    -0.233 N 
ATOM      5  C   UNL     1      -2.855   2.934  24.791  0.00  0.00    +0.058 A 
ATOM      6  C   UNL     1      -2.987   2.982  25.605  0.00  0.00    +0.052 C 
ATOM      7  C   UNL     1      -3.215   2.404  24.271  0.00  0.00    +0.010 A 
ENDROOT
BRANCH   4  22
ATOM     22  C   UNL     1      -1.865   4.013  24.657  0.00  0.00    +0.105 A 
ATOM     23  C   UNL     1      -1.048   3.911  24.704  0.00  0.00    +0.160 A 
ATOM     24  C   UNL     1      -0.574   4.516  25.005  0.00  0.00    +0.026 A 
ATOM     25  C   UNL     1      -0.917   5.222  25.258  0.00  0.00    +0.002 A 
ATOM     26  C   UNL     1      -1.735   5.324  25.211  0.00  0.00    +0.002 A 
ATOM     27  C   UNL     1      -2.209   4.719  24.910  0.00  0.00    +0.021 A 
BRANCH  23  28
ATOM     28  N   UNL     1      -0.704   3.206  24.451  0.00  0.00    +0.059 N 
ATOM     29  O   UNL     1      -0.495   3.108  23.659  0.00  0.00    -0.126 OA
ATOM     30  O   UNL     1      -0.569   2.596  24.991  0.00  0.00    -0.126 OA
ENDBRANCH  23  28
ENDBRANCH   4  22
BRANCH   7   8
ATOM      8  C   UNL     1      -3.771   1.829  24.474  0.00  0.00    +0.048 C 
ATOM      9  C   UNL     1      -3.666   1.013  24.421  0.00  0.00    +0.031 C 
ATOM     10  C   UNL     1      -4.359   0.650  24.680  0.00  0.00    +0.095 C 
ATOM     20  C   UNL     1      -4.894   1.242  24.892  0.00  0.00    -0.013 C 
ATOM     21  C   UNL     1      -4.530   1.971  24.765  0.00  0.00    -0.025 C 
BRANCH  10  11
ATOM     11  N   UNL     1      -4.497  -0.163  24.719  0.00  0.00    -0.210 NA
BRANCH  11  12
ATOM     12  C   UNL     1      -3.961  -0.654  25.110  0.00  0.00    +0.115 C 
BRANCH  12  13
ATOM     13  C   UNL     1      -3.871  -1.439  24.871  0.00  0.00    -0.005 A 
ATOM     14  C   UNL     1      -3.423  -1.959  25.328  0.00  0.00    -0.001 A 
ATOM     15  C   UNL     1      -3.332  -2.744  25.089  0.00  0.00    +0.029 A 
ATOM     16  C   UNL     1      -3.691  -3.008  24.395  0.00  0.00    +0.140 A 
ATOM     17  F   UNL     1      -3.600  -3.793  24.156  0.00  0.00    -0.204 F 
ATOM     18  C   UNL     1      -4.139  -2.486  23.938  0.00  0.00    +0.029 A 
ATOM     19  C   UNL     1      -4.229  -1.702  24.177  0.00  0.00    -0.001 A 
ENDBRANCH  12  13
ENDBRANCH  11  12
ENDBRANCH  10  11
ENDBRANCH   7   8
TORSDOF 6
ENDMDL
MODEL 3
REMARK VINA RESULT:     -11.6      2.811      5.970
REMARK  Name = 
REMARK  6 active torsions:
REMARK  status: ('A' for Active; 'I' for Inactive)
REMARK    1  A    between atoms: N_4  and  C_22
REMARK    2  A    between atoms: C_7  and  C_8
REMARK    3  A    between atoms: C_10  and  N_11
REMARK    4  A    between atoms: N_11  and  C_12
REMARK    5  A    between atoms: C_12  and  C_13
REMARK    6  A    between atoms: C_23  and  N_28
REMARK                            x       y       z     vdW  Elec       q    Type
REMARK                         _______ _______ _______ _____ _____    ______ ____
ROOT
ATOM      1  C   UNL     1      -0.438   1.575  26.537  0.00  0.00    +0.054 C 
ATOM      2  C   UNL     1      -0.674   2.110  25.954  0.00  0.00    +0.077 A 
ATOM      3  N   UNL     1      -0.738   2.927  26.043  0.00  0.00    -0.170 NA
ATOM      4  N   UNL     1      -0.991   3.243  25.324  0.00  0.00    -0.233 N 
ATOM      5  C   UNL     1      -1.084   2.620  24.791  0.00  0.00    +0.058 A 
ATOM      6  C   UNL     1      -1.330   2.687  24.005  0.00  0.00    +0.052 C 
ATOM      7  C   UNL     1      -0.888   1.919  25.180  0.00  0.00    +0.010 A 
ENDROOT
BRANCH   4  22
ATOM     22  C   UNL     1      -1.128   4.041  25.165  0.00  0.00    +0.105 A 
ATOM     23  C   UNL     1      -1.816   4.404  25.440  0.00  0.00    +0.160 A 
ATOM     24  C   UNL     1      -1.952   5.202  25.282  0.00  0.00    +0.026 A 
ATOM     25  C   UNL     1      -1.402   5.637  24.849  0.00  0.00    +0.002 A 
ATOM     26  C   UNL     1      -0.713   5.274  24.574  0.00  0.00    +0.002 A 
ATOM     27  C   UNL     1      -0.576   4.476  24.733  0.00  0.00    +0.021 A 
BRANCH  23  28
ATOM     28  N   UNL     1      -2.367   3.969  25.873  0.00  0.00    +0.059 N 
ATOM     29  O   UNL     1      -2.274   3.877  26.687  0.00  0.00    -0.126 OA
ATOM     30  O   UNL     1      -3.014   3.626  25.491  0.00  0.00    -0.126 OA
ENDBRANCH  23  28
ENDBRANCH   4  22
BRANCH   7   8
ATOM      8  C   UNL     1      -0.904   1.162  24.852  0.00  0.00    +0.048 C 
ATOM      9  C   UNL     1      -1.554   0.656  24.831  0.00  0.00    +0.031 C 
ATOM     10  C   UNL     1      -1.323  -0.040  24.454  0.00  0.00    +0.095 C 
ATOM     20  C   UNL     1      -0.529   0.037  24.241  0.00  0.00    -0.013 C 
ATOM     21  C   UNL     1      -0.271   0.780  24.487  0.00  0.00    -0.025 C 
BRANCH  10  11
ATOM     11  N   UNL     1      -1.801  -0.698  24.313  0.00  0.00    -0.210 NA
BRANCH  11  12
ATOM     12  C   UNL     1      -2.504  -0.795  24.733  0.00  0.00    +0.115 C 
BRANCH  12  13
ATOM     13  C   UNL     1      -3.047  -1.371  24.500  0.00  0.00    -0.005 A 
ATOM     14  C   UNL     1      -3.741  -1.151  24.112  0.00  0.00    -0.001 A 
ATOM     15  C   UNL     1      -4.284  -1.727  23.879  0.00  0.00    +0.029 A 
ATOM     16  C   UNL     1      -4.133  -2.523  24.034  0.00  0.00    +0.140 A 
ATOM     17  F   UNL     1      -4.677  -3.099  23.801  0.00  0.00    -0.204 F 
ATOM     18  C   UNL     1      -3.439  -2.743  24.423  0.00  0.00    +0.029 A 
ATOM     19  C   UNL     1      -2.897  -2.167  24.656  0.00  0.00    -0.001 A 
ENDBRANCH  12  13
ENDBRANCH  11  12
ENDBRANCH  10  11
ENDBRANCH   7   8
TORSDOF 6
ENDMDL
MODEL 4
REMARK VINA RESULT:     -11.5      1.744      2.361
REMARK  Name = 
REMARK  6 active torsions:
REMARK  status: ('A' for Active; 'I' for Inactive)
REMARK    1  A    between atoms: N_4  and  C_22
REMARK    2  A    between atoms: C_7  and  C_8
REMARK    3  A    between atoms: C_10  and  N_11
REMARK    4  A    between atoms: N_11  and  C_12
REMARK    5  A    between atoms: C_12  and  C_13
REMARK    6  A    between atoms: C_23  and  N_28
REMARK                            x       y       z     vdW  Elec       q    Type
REMARK                         _______ _______ _______ _____ _____    ______ ____
ROOT
ATOM      1  C   UNL     1      -0.987  -0.496  26.234  0.00  0.00    +0.054 C 
ATOM      2  C   UNL     1      -1.516  -0.575  25.605  0.00  0.00    +0.077 A 
ATOM      3  N   UNL     1      -2.093  -1.158  25.528  0.00  0.00    -0.170 NA
ATOM      4  N   UNL     1      -2.494  -1.028  24.818  0.00  0.00    -0.233 N 
ATOM      5  C   UNL     1      -2.164  -0.363  24.458  0.00  0.00    +0.058 A 
ATOM      6  C   UNL     1      -2.399  -0.035  23.737  0.00  0.00    +0.052 C 
ATOM      7  C   UNL     1      -1.559  -0.083  24.944  0.00  0.00    +0.010 A 
ENDROOT
BRANCH   4  22
ATOM     22  C   UNL     1      -3.116  -1.482  24.522  0.00  0.00    +0.105 A 
ATOM     23  C   UNL     1      -3.004  -2.285  24.373  0.00  0.00    +0.160 A 
ATOM     24  C   UNL     1      -3.626  -2.740  24.077  0.00  0.00    +0.026 A 
ATOM     25  C   UNL     1      -4.358  -2.391  23.928  0.00  0.00    +0.002 A 
ATOM     26  C   UNL     1      -4.470  -1.586  24.077  0.00  0.00    +0.002 A 
ATOM     27  C   UNL     1      -3.848  -1.132  24.374  0.00  0.00    +0.021 A 
BRANCH  23  28
ATOM     28  N   UNL     1      -2.273  -2.635  24.521  0.00  0.00    +0.059 N 
ATOM     29  O   UNL     1      -2.104  -2.942  25.268  0.00  0.00    -0.126 OA
ATOM     30  O   UNL     1      -1.707  -2.679  23.921  0.00  0.00    -0.126 OA
ENDBRANCH  23  28
ENDBRANCH   4  22
BRANCH   7   8
ATOM      8  C   UNL     1      -1.083   0.574  24.795  0.00  0.00    +0.048 C 
ATOM      9  C   UNL     1      -1.291   1.362  24.915  0.00  0.00    +0.031 C 
ATOM     10  C   UNL     1      -0.651   1.832  24.693  0.00  0.00    +0.095 C 
ATOM     20  C   UNL     1      -0.046   1.333  24.436  0.00  0.00    -0.013 C 
ATOM     21  C   UNL     1      -0.312   0.556  24.498  0.00  0.00    -0.025 C 
BRANCH  10  11
ATOM     11  N   UNL     1      -0.619   2.656  24.723  0.00  0.00    -0.210 NA
BRANCH  11  12
ATOM     12  C   UNL     1      -0.979   3.061  25.344  0.00  0.00    +0.115 C 
BRANCH  12  13
ATOM     13  C   UNL     1      -1.157   3.864  25.266  0.00  0.00    -0.005 A 
ATOM     14  C   UNL     1      -1.892   4.148  25.509  0.00  0.00    -0.001 A 
ATOM     15  C   UNL     1      -2.069   4.951  25.431  0.00  0.00    +0.029 A 
ATOM     16  C   UNL     1      -1.512   5.467  25.110  0.00  0.00    +0.140 A 
ATOM     17  F   UNL     1      -1.690   6.269  25.032  0.00  0.00    -0.204 F 
ATOM     18  C   UNL     1      -0.777   5.181  24.867  0.00  0.00    +0.029 A 
ATOM     19  C   UNL     1      -0.599   4.380  24.945  0.00  0.00    -0.001 A 
ENDBRANCH  12  13
ENDBRANCH  11  12
ENDBRANCH  10  11
ENDBRANCH   7   8
TORSDOF 6
ENDMDL
