MODEL 1
REMARK VINA RESULT:     -11.4      0.000      0.000
REMARK  Name = 
REMARK  5 active torsions:
REMARK  status: ('A' for Active; 'I' for Inactive)
REMARK    1  A    between atoms: C_2  and  C_4
REMARK    2  A    between atoms: C_4  and  C_5
REMARK    3  A    between atoms: C_7  and  C_18
REMARK    4  A    between atoms: N_20  and  C_21
REMARK    5  A    between atoms: C_21  and  C_22
REMARK                            x       y       z     vdW  Elec       q    Type
REMARK                         _______ _______ _______ _____ _____    ______ ____
ROOT
ATOM      5  C   UNL     1      -2.304  -0.520  24.835  0.00  0.00    +0.095 C 
ATOM      6  N   UNL     1      -2.622   0.193  24.568  0.00  0.00    -0.207 NA
ATOM      7  C   UNL     1      -3.327   0.320  24.158  0.00  0.00    +0.155 C 
ATOM      8  C   UNL     1      -3.887  -0.235  23.915  0.00  0.00    +0.055 C 
ATOM      9  C   UNL     1      -3.882  -1.053  24.021  0.00  0.00    +0.000 A 
ATOM     10  C   UNL     1      -4.480  -1.551  23.749  0.00  0.00    +0.095 A 
ATOM     11  N   UNL     1      -4.283  -2.325  23.957  0.00  0.00    -0.244 NA
ATOM     12  C   UNL     1      -3.562  -2.305  24.357  0.00  0.00    +0.081 A 
ATOM     13  C   UNL     1      -3.313  -1.519  24.397  0.00  0.00    +0.013 A 
ATOM     14  C   UNL     1      -2.611  -1.281  24.759  0.00  0.00    -0.005 A 
ATOM     15  C   UNL     1      -2.140  -1.924  25.103  0.00  0.00    -0.003 A 
ATOM     16  C   UNL     1      -2.387  -2.710  25.064  0.00  0.00    +0.001 A 
ATOM     17  C   UNL     1      -3.099  -2.900  24.691  0.00  0.00    +0.019 A 
ENDROOT
BRANCH   7  18
ATOM     18  C   UNL     1      -3.493   1.105  23.966  0.00  0.00    +0.258 C 
ATOM     19  O   UNL     1      -3.238   1.417  23.247  0.00  0.00    -0.272 OA
ATOM     20  N   UNL     1      -3.915   1.578  24.495  0.00  0.00    -0.196 NA
BRANCH  20  21
ATOM     21  C   UNL     1      -4.081   2.363  24.304  0.00  0.00    +0.179 C 
BRANCH  21  22
ATOM     22  C   UNL     1      -4.490   2.840  24.839  0.00  0.00    +0.145 A 
ATOM     23  C   UNL     1      -4.163   3.443  25.298  0.00  0.00    +0.038 A 
ATOM     24  C   UNL     1      -4.769   3.773  25.752  0.00  0.00    +0.043 A 
ATOM     25  C   UNL     1      -5.469   3.375  25.573  0.00  0.00    +0.179 A 
ATOM     26  O   UNL     1      -5.296   2.797  25.009  0.00  0.00    -0.453 OA
ENDBRANCH  21  22
ENDBRANCH  20  21
ENDBRANCH   7  18
BRANCH   5   4
ATOM      4  C   UNL     1      -1.582  -0.462  25.231  0.00  0.00    +0.022 C 
BRANCH   4   2
ATOM      1  C   UNL     1      -0.596   0.068  24.343  0.00  0.00    +0.000 C 
ATOM      2  C   UNL     1      -1.048   0.134  25.030  0.00  0.00    +0.002 C 
ATOM      3  C   UNL     1      -0.967   0.796  25.516  0.00  0.00    +0.000 C 
ENDBRANCH   4   2
ENDBRANCH   5   4
TORSDOF 5
ENDMDL
MODEL 2
REMARK VINA RESULT:     -11.2      1.677      4.328
REMARK  Name = 
REMARK  5 active torsions:
REMARK  status: ('A' for Active; 'I' for Inactive)
REMARK    1  A    between atoms: C_2  and  C_4
REMARK    2  A    between atoms: C_4  and  C_5
REMARK    3  A    between atoms: C_7  and  C_18
REMARK    4  A    between atoms: N_20  and  C_21
REMARK    5  A    between atoms: C_21  and  C_22
REMARK                            x       y       z     vdW  Elec       q    Type
REMARK                         _______ _______ _______ _____ _____    ______ ____
ROOT
ATOM      5  C   UNL     1      -4.454   1.092  24.621  0.00  0.00    +0.095 C 
ATOM      6  N   UNL     1      -3.777   1.179  24.159  0.00  0.00    -0.207 NA
ATOM      7  C   UNL     1      -3.365   1.870  23.974  0.00  0.00    +0.155 C 
ATOM      8  C   UNL     1      -3.530   2.644  24.207  0.00  0.00    +0.055 C 
ATOM      9  C   UNL     1      -4.147   2.919  24.681  0.00  0.00    +0.000 A 
ATOM     10  C   UNL     1      -4.252   3.713  24.876  0.00  0.00    +0.095 A 
ATOM     11  N   UNL     1      -4.922   3.773  25.354  0.00  0.00    -0.244 NA
ATOM     12  C   UNL     1      -5.230   3.014  25.456  0.00  0.00    +0.081 A 
ATOM     13  C   UNL     1      -4.751   2.486  25.040  0.00  0.00    +0.013 A 
ATOM     14  C   UNL     1      -4.887   1.673  25.013  0.00  0.00    -0.005 A 
ATOM     15  C   UNL     1      -5.582   1.402  25.459  0.00  0.00    -0.003 A 
ATOM     16  C   UNL     1      -6.061   1.929  25.875  0.00  0.00    +0.001 A 
ATOM     17  C   UNL     1      -5.885   2.736  25.874  0.00  0.00    +0.019 A 
ENDROOT
BRANCH   7  18
ATOM     18  C   UNL     1      -2.701   1.774  23.494  0.00  0.00    +0.258 C 
ATOM     19  O   UNL     1      -2.782   1.778  22.673  0.00  0.00    -0.272 OA
ATOM     20  N   UNL     1      -1.956   1.675  23.835  0.00  0.00    -0.196 NA
BRANCH  20  21
ATOM     21  C   UNL     1      -1.293   1.579  23.355  0.00  0.00    +0.179 C 
BRANCH  21  22
ATOM     22  C   UNL     1      -0.553   1.447  23.696  0.00  0.00    +0.145 A 
ATOM     23  C   UNL     1      -0.154   0.725  23.724  0.00  0.00    +0.038 A 
ATOM     24  C   UNL     1       0.563   0.846  24.114  0.00  0.00    +0.043 A 
ATOM     25  C   UNL     1       0.608   1.642  24.327  0.00  0.00    +0.179 A 
ATOM     26  O   UNL     1      -0.082   2.013  24.068  0.00  0.00    -0.453 OA
ENDBRANCH  21  22
ENDBRANCH  20  21
ENDBRANCH   7  18
BRANCH   5   4
ATOM      4  C   UNL     1      -4.734   0.320  24.701  0.00  0.00    +0.022 C 
BRANCH   4   2
ATOM      1  C   UNL     1      -3.757  -0.462  25.391  0.00  0.00    +0.000 C 
ATOM      2  C   UNL     1      -4.204  -0.313  24.714  0.00  0.00    +0.002 C 
ATOM      3  C   UNL     1      -4.121  -0.794  24.049  0.00  0.00    +0.000 C 
ENDBRANCH   4   2
ENDBRANCH   5   4
TORSDOF 5
ENDMDL
MODEL 3
REMARK VINA RESULT:     -11.2      1.855      4.781
REMARK  Name = 
REMARK  5 active torsions:
REMARK  status: ('A' for Active; 'I' for Inactive)
REMARK    1  A    between atoms: C_2  and  C_4
REMARK    2  A    between atoms: C_4  and  C_5
REMARK    3  A    between atoms: C_7  and  C_18
REMARK    4  A    between atoms: N_20  and  C_21
REMARK    5  A    between atoms: C_21  and  C_22
REMARK                            x       y       z     vdW  Elec       q    Type
REMARK                         _______ _______ _______ _____ _____    ______ ____
ROOT
ATOM      5  C   UNL     1      -3.069   3.043  25.063  0.00  0.00    +0.095 C 
ATOM      6  N   UNL     1      -3.276   2.320  24.724  0.00  0.00    -0.207 NA
ATOM      7  C   UNL     1      -2.805   1.805  24.283  0.00  0.00    +0.155 C 
ATOM      8  C   UNL     1      -2.012   1.887  24.072  0.00  0.00    +0.055 C 
ATOM      9  C   UNL     1      -1.493   2.503  24.250  0.00  0.00    +0.000 A 
ATOM     10  C   UNL     1      -0.706   2.520  24.004  0.00  0.00    +0.095 A 
ATOM     11  N   UNL     1      -0.365   3.217  24.285  0.00  0.00    -0.244 NA
ATOM     12  C   UNL     1      -0.942   3.632  24.705  0.00  0.00    +0.081 A 
ATOM     13  C   UNL     1      -1.640   3.190  24.683  0.00  0.00    +0.013 A 
ATOM     14  C   UNL     1      -2.342   3.430  25.045  0.00  0.00    -0.005 A 
ATOM     15  C   UNL     1      -2.298   4.192  25.459  0.00  0.00    -0.003 A 
ATOM     16  C   UNL     1      -1.602   4.634  25.481  0.00  0.00    +0.001 A 
ATOM     17  C   UNL     1      -0.924   4.353  25.104  0.00  0.00    +0.019 A 
ENDROOT
BRANCH   7  18
ATOM     18  C   UNL     1      -3.177   1.118  24.018  0.00  0.00    +0.258 C 
ATOM     19  O   UNL     1      -3.516   1.097  23.266  0.00  0.00    -0.272 OA
ATOM     20  N   UNL     1      -3.210   0.453  24.505  0.00  0.00    -0.196 NA
BRANCH  20  21
ATOM     21  C   UNL     1      -3.582  -0.233  24.241  0.00  0.00    +0.179 C 
BRANCH  21  22
ATOM     22  C   UNL     1      -3.536  -0.926  24.687  0.00  0.00    +0.145 A 
ATOM     23  C   UNL     1      -3.501  -1.694  24.388  0.00  0.00    +0.038 A 
ATOM     24  C   UNL     1      -3.460  -2.215  25.028  0.00  0.00    +0.043 A 
ATOM     25  C   UNL     1      -3.469  -1.768  25.721  0.00  0.00    +0.179 A 
ATOM     26  O   UNL     1      -3.516  -0.972  25.511  0.00  0.00    -0.453 OA
ENDBRANCH  21  22
ENDBRANCH  20  21
ENDBRANCH   7  18
BRANCH   5   4
ATOM      4  C   UNL     1      -3.670   3.429  25.475  0.00  0.00    +0.022 C 
BRANCH   4   2
ATOM      1  C   UNL     1      -4.705   3.741  24.539  0.00  0.00    +0.000 C 
ATOM      2  C   UNL     1      -4.454   3.357  25.225  0.00  0.00    +0.002 C 
ATOM      3  C   UNL     1      -4.985   2.900  25.661  0.00  0.00    +0.000 C 
ENDBRANCH   4   2
ENDBRANCH   5   4
TORSDOF 5
ENDMDL
MODEL 4
REMARK VINA RESULT:     -11.1      1.361      4.332
REMARK  Name = 
REMARK  5 active torsions:
REMARK  status: ('A' for Active; 'I' for Inactive)
REMARK    1  A    between atoms: C_2  and  C_4
REMARK    2  A    between atoms: C_4  and  C_5
REMARK    3  A    between atoms: C_7  and  C_18
REMARK    4  A    between atoms: N_20  and  C_21
REMARK    5  A    between atoms: C_21  and  C_22
REMARK                            x       y       z     vdW  Elec       q    Type
REMARK                         _______ _______ _______ _____ _____    ______ ____
ROOT
ATOM      5  C   UNL     1      -2.152   2.397  24.849  0.00  0.00    +0.095 C 
ATOM      6  N   UNL     1      -2.440   1.750  24.426  0.00  0.00    -0.207 NA
ATOM      7  C   UNL     1      -3.224   1.535  24.285  0.00  0.00    +0.155 C 
ATOM      8  C   UNL     1      -3.913   1.914  24.532  0.00  0.00    +0.055 C 
ATOM      9  C   UNL     1      -3.990   2.602  24.981  0.00  0.00    +0.000 A 
ATOM     10  C   UNL     1      -4.717   2.928  25.194  0.00  0.00    +0.095 A 
ATOM     11  N   UNL     1      -4.573   3.608  25.638  0.00  0.00    -0.244 NA
ATOM     12  C   UNL     1      -3.755   3.702  25.700  0.00  0.00    +0.081 A 
ATOM     13  C   UNL     1      -3.395   3.080  25.294  0.00  0.00    +0.013 A 
ATOM     14  C   UNL     1      -2.577   2.989  25.235  0.00  0.00    -0.005 A 
ATOM     15  C   UNL     1      -2.110   3.602  25.636  0.00  0.00    -0.003 A 
ATOM     16  C   UNL     1      -2.469   4.224  26.042  0.00  0.00    +0.001 A 
ATOM     17  C   UNL     1      -3.293   4.273  26.074  0.00  0.00    +0.019 A 
ENDROOT
BRANCH   7  18
ATOM     18  C   UNL     1      -3.332   0.850  23.838  0.00  0.00    +0.258 C 
ATOM     19  O   UNL     1      -3.344   0.893  23.014  0.00  0.00    -0.272 OA
ATOM     20  N   UNL     1      -3.428   0.122  24.215  0.00  0.00    -0.196 NA
BRANCH  20  21
ATOM     21  C   UNL     1      -3.536  -0.562  23.768  0.00  0.00    +0.179 C 
BRANCH  21  22
ATOM     22  C   UNL     1      -3.495  -1.303  24.131  0.00  0.00    +0.145 A 
ATOM     23  C   UNL     1      -4.075  -1.890  24.100  0.00  0.00    +0.038 A 
ATOM     24  C   UNL     1      -3.806  -2.535  24.539  0.00  0.00    +0.043 A 
ATOM     25  C   UNL     1      -3.062  -2.347  24.841  0.00  0.00    +0.179 A 
ATOM     26  O   UNL     1      -2.870  -1.585  24.589  0.00  0.00    -0.453 OA
ENDBRANCH  21  22
ENDBRANCH  20  21
ENDBRANCH   7  18
BRANCH   5   4
ATOM      4  C   UNL     1      -1.331   2.460  24.891  0.00  0.00    +0.022 C 
BRANCH   4   2
ATOM      1  C   UNL     1      -0.815   1.331  25.600  0.00  0.00    +0.000 C 
ATOM      2  C   UNL     1      -0.865   1.779  24.908  0.00  0.00    +0.002 C 
ATOM      3  C   UNL     1      -0.450   1.546  24.234  0.00  0.00    +0.000 C 
ENDBRANCH   4   2
ENDBRANCH   5   4
TORSDOF 5
ENDMDL
MODEL 5
REMARK VINA RESULT:     -11.1      1.776      4.439
REMARK  Name = 
REMARK  5 active torsions:
REMARK  status: ('A' for Active; 'I' for Inactive)
REMARK    1  A    between atoms: C_2  and  C_4
REMARK    2  A    between atoms: C_4  and  C_5
REMARK    3  A    between atoms: C_7  and  C_18
REMARK    4  A    between atoms: N_20  and  C_21
REMARK    5  A    between atoms: C_21  and  C_22
REMARK                            x       y       z     vdW  Elec       q    Type
REMARK                         _______ _______ _______ _____ _____    ______ ____
ROOT
ATOM      5  C   UNL     1      -3.152   3.070  24.987  0.00  0.00    +0.095 C 
ATOM      6  N   UNL     1      -2.696   2.474  24.645  0.00  0.00    -0.207 NA
ATOM      7  C   UNL     1      -2.933   1.725  24.393  0.00  0.00    +0.155 C 
ATOM      8  C   UNL     1      -3.685   1.387  24.422  0.00  0.00    +0.055 C 
ATOM      9  C   UNL     1      -4.386   1.714  24.709  0.00  0.00    +0.000 A 
ATOM     10  C   UNL     1      -5.108   1.317  24.707  0.00  0.00    +0.095 A 
ATOM     11  N   UNL     1      -5.677   1.817  25.035  0.00  0.00    -0.244 NA
ATOM     12  C   UNL     1      -5.305   2.524  25.240  0.00  0.00    +0.081 A 
ATOM     13  C   UNL     1      -4.507   2.461  25.039  0.00  0.00    +0.013 A 
ATOM     14  C   UNL     1      -3.957   3.064  25.162  0.00  0.00    -0.005 A 
ATOM     15  C   UNL     1      -4.280   3.785  25.525  0.00  0.00    -0.003 A 
ATOM     16  C   UNL     1      -5.077   3.849  25.726  0.00  0.00    +0.001 A 
ATOM     17  C   UNL     1      -5.590   3.218  25.584  0.00  0.00    +0.019 A 
ENDROOT
BRANCH   7  18
ATOM     18  C   UNL     1      -2.339   1.251  24.071  0.00  0.00    +0.258 C 
ATOM     19  O   UNL     1      -2.044   1.415  23.318  0.00  0.00    -0.272 OA
ATOM     20  N   UNL     1      -2.041   0.613  24.501  0.00  0.00    -0.196 NA
BRANCH  20  21
ATOM     21  C   UNL     1      -1.448   0.140  24.179  0.00  0.00    +0.179 C 
BRANCH  21  22
ATOM     22  C   UNL     1      -1.232  -0.563  24.555  0.00  0.00    +0.145 A 
ATOM     23  C   UNL     1      -0.630  -0.648  25.113  0.00  0.00    +0.038 A 
ATOM     24  C   UNL     1      -0.605  -1.441  25.341  0.00  0.00    +0.043 A 
ATOM     25  C   UNL     1      -1.191  -1.845  24.924  0.00  0.00    +0.179 A 
ATOM     26  O   UNL     1      -1.579  -1.302  24.438  0.00  0.00    -0.453 OA
ENDBRANCH  21  22
ENDBRANCH  20  21
ENDBRANCH   7  18
BRANCH   5   4
ATOM      4  C   UNL     1      -2.749   3.763  25.179  0.00  0.00    +0.022 C 
BRANCH   4   2
ATOM      1  C   UNL     1      -1.774   3.429  26.170  0.00  0.00    +0.000 C 
ATOM      2  C   UNL     1      -1.961   3.727  25.424  0.00  0.00    +0.002 C 
ATOM      3  C   UNL     1      -1.361   3.990  24.922  0.00  0.00    +0.000 C 
ENDBRANCH   4   2
ENDBRANCH   5   4
TORSDOF 5
ENDMDL
MODEL 6
REMARK VINA RESULT:     -10.7      0.943      2.363
REMARK  Name = 
REMARK  5 active torsions:
REMARK  status: ('A' for Active; 'I' for Inactive)
REMARK    1  A    between atoms: C_2  and  C_4
REMARK    2  A    between atoms: C_4  and  C_5
REMARK    3  A    between atoms: C_7  and  C_18
REMARK    4  A    between atoms: N_20  and  C_21
REMARK    5  A    between atoms: C_21  and  C_22
REMARK                            x       y       z     vdW  Elec       q    Type
REMARK                         _______ _______ _______ _____ _____    ______ ____
ROOT
ATOM      5  C   UNL     1      -2.750  -0.605  24.596  0.00  0.00    +0.095 C 
ATOM      6  N   UNL     1      -3.083   0.101  24.330  0.00  0.00    -0.207 NA
ATOM      7  C   UNL     1      -2.700   0.792  24.090  0.00  0.00    +0.155 C 
ATOM      8  C   UNL     1      -1.890   0.945  24.057  0.00  0.00    +0.055 C 
ATOM      9  C   UNL     1      -1.263   0.447  24.255  0.00  0.00    +0.000 A 
ATOM     10  C   UNL     1      -0.470   0.668  24.197  0.00  0.00    +0.095 A 
ATOM     11  N   UNL     1      -0.008   0.030  24.442  0.00  0.00    -0.244 NA
ATOM     12  C   UNL     1      -0.516  -0.586  24.651  0.00  0.00    +0.081 A 
ATOM     13  C   UNL     1      -1.291  -0.328  24.536  0.00  0.00    +0.013 A 
ATOM     14  C   UNL     1      -1.954  -0.796  24.688  0.00  0.00    -0.005 A 
ATOM     15  C   UNL     1      -1.779  -1.594  24.983  0.00  0.00    -0.003 A 
ATOM     16  C   UNL     1      -1.004  -1.853  25.098  0.00  0.00    +0.001 A 
ATOM     17  C   UNL     1      -0.372  -1.348  24.932  0.00  0.00    +0.019 A 
ENDROOT
BRANCH   7  18
ATOM     18  C   UNL     1      -3.192   1.410  23.852  0.00  0.00    +0.258 C 
ATOM     19  O   UNL     1      -3.277   1.584  23.050  0.00  0.00    -0.272 OA
ATOM     20  N   UNL     1      -3.599   1.854  24.417  0.00  0.00    -0.196 NA
BRANCH  20  21
ATOM     21  C   UNL     1      -4.091   2.471  24.179  0.00  0.00    +0.179 C 
BRANCH  21  22
ATOM     22  C   UNL     1      -4.534   2.884  24.739  0.00  0.00    +0.145 A 
ATOM     23  C   UNL     1      -5.278   2.668  25.024  0.00  0.00    +0.038 A 
ATOM     24  C   UNL     1      -5.515   3.236  25.574  0.00  0.00    +0.043 A 
ATOM     25  C   UNL     1      -4.918   3.803  25.629  0.00  0.00    +0.179 A 
ATOM     26  O   UNL     1      -4.312   3.585  25.112  0.00  0.00    -0.453 OA
ENDBRANCH  21  22
ENDBRANCH  20  21
ENDBRANCH   7  18
BRANCH   5   4
ATOM      4  C   UNL     1      -3.287  -1.199  24.797  0.00  0.00    +0.022 C 
BRANCH   4   2
ATOM      1  C   UNL     1      -3.982  -1.693  23.650  0.00  0.00    +0.000 C 
ATOM      2  C   UNL     1      -3.986  -1.285  24.367  0.00  0.00    +0.002 C 
ATOM      3  C   UNL     1      -4.690  -0.963  24.656  0.00  0.00    +0.000 C 
ENDBRANCH   4   2
ENDBRANCH   5   4
TORSDOF 5
ENDMDL
MODEL 7
REMARK VINA RESULT:     -10.6      1.743      2.597
REMARK  Name = 
REMARK  5 active torsions:
REMARK  status: ('A' for Active; 'I' for Inactive)
REMARK    1  A    between atoms: C_2  and  C_4
REMARK    2  A    between atoms: C_4  and  C_5
REMARK    3  A    between atoms: C_7  and  C_18
REMARK    4  A    between atoms: N_20  and  C_21
REMARK    5  A    between atoms: C_21  and  C_22
REMARK                            x       y       z     vdW  Elec       q    Type
REMARK                         _______ _______ _______ _____ _____    ______ ____
ROOT
ATOM      5  C   UNL     1      -3.506   0.064  24.454  0.00  0.00    +0.095 C 
ATOM      6  N   UNL     1      -3.076   0.721  24.202  0.00  0.00    -0.207 NA
ATOM      7  C   UNL     1      -2.260   0.796  24.105  0.00  0.00    +0.155 C 
ATOM      8  C   UNL     1      -1.673   0.233  24.238  0.00  0.00    +0.055 C 
ATOM      9  C   UNL     1      -1.756  -0.545  24.499  0.00  0.00    +0.000 A 
ATOM     10  C   UNL     1      -1.120  -1.058  24.611  0.00  0.00    +0.095 A 
ATOM     11  N   UNL     1      -1.417  -1.782  24.873  0.00  0.00    -0.244 NA
ATOM     12  C   UNL     1      -2.238  -1.716  24.924  0.00  0.00    +0.081 A 
ATOM     13  C   UNL     1      -2.448  -0.952  24.693  0.00  0.00    +0.013 A 
ATOM     14  C   UNL     1      -3.227  -0.680  24.673  0.00  0.00    -0.005 A 
ATOM     15  C   UNL     1      -3.824  -1.261  24.915  0.00  0.00    -0.003 A 
ATOM     16  C   UNL     1      -3.616  -2.025  25.147  0.00  0.00    +0.001 A 
ATOM     17  C   UNL     1      -2.822  -2.252  25.151  0.00  0.00    +0.019 A 
ENDROOT
BRANCH   7  18
ATOM     18  C   UNL     1      -1.997   1.533  23.841  0.00  0.00    +0.258 C 
ATOM     19  O   UNL     1      -1.897   1.670  23.034  0.00  0.00    -0.272 OA
ATOM     20  N   UNL     1      -1.835   2.132  24.386  0.00  0.00    -0.196 NA
BRANCH  20  21
ATOM     21  C   UNL     1      -1.572   2.867  24.122  0.00  0.00    +0.179 C 
BRANCH  21  22
ATOM     22  C   UNL     1      -1.577   3.515  24.635  0.00  0.00    +0.145 A 
ATOM     23  C   UNL     1      -0.912   3.908  24.925  0.00  0.00    +0.038 A 
ATOM     24  C   UNL     1      -1.173   4.518  25.416  0.00  0.00    +0.043 A 
ATOM     25  C   UNL     1      -1.997   4.502  25.429  0.00  0.00    +0.179 A 
ATOM     26  O   UNL     1      -2.247   3.882  24.945  0.00  0.00    -0.453 OA
ENDBRANCH  21  22
ENDBRANCH  20  21
ENDBRANCH   7  18
BRANCH   5   4
ATOM      4  C   UNL     1      -4.324   0.166  24.493  0.00  0.00    +0.022 C 
BRANCH   4   2
ATOM      1  C   UNL     1      -4.944   1.421  24.209  0.00  0.00    +0.000 C 
ATOM      2  C   UNL     1      -4.638   0.883  24.754  0.00  0.00    +0.002 C 
ATOM      3  C   UNL     1      -4.647   1.061  25.560  0.00  0.00    +0.000 C 
ENDBRANCH   4   2
ENDBRANCH   5   4
TORSDOF 5
ENDMDL
