REMARK  Name = 
REMARK  9 active torsions:
REMARK  status: ('A' for Active; 'I' for Inactive)
REMARK    1  A    between atoms: N_2  and  C_4
REMARK    2  A    between atoms: C_4  and  C_5
REMARK    3  A    between atoms: C_7  and  C_8
REMARK    4  A    between atoms: C_8  and  C_9
REMARK    5  A    between atoms: C_9  and  N_13
REMARK    6  A    between atoms: N_13  and  C_14
REMARK    7  A    between atoms: C_14  and  C_15
REMARK    8  A    between atoms: C_18  and  O_19
REMARK    9  A    between atoms: O_19  and  C_20
REMARK                            x       y       z     vdW  Elec       q    Type
REMARK                         _______ _______ _______ _____ _____    ______ ____
ROOT
ATOM      9  C   UNL     1       1.841  -2.304   0.000  0.00  0.00    +0.120 C 
ATOM     10  C   UNL     1       2.425  -2.888   0.000  0.00  0.00    +0.161 C 
ATOM     11  O   UNL     1       1.841  -3.471   0.000  0.00  0.00    -0.351 OA
ATOM     12  C   UNL     1       1.258  -2.888   0.000  0.00  0.00    +0.161 C 
ENDROOT
BRANCH   9   8
ATOM      8  C   UNL     1       1.258  -1.721   0.000  0.00  0.00    +0.070 C 
BRANCH   8   7
ATOM      5  C   UNL     1      -0.872  -1.864   0.000  0.00  0.00    +0.170 A 
ATOM      6  C   UNL     1      -0.180  -1.415   0.000  0.00  0.00    +0.055 A 
ATOM      7  C   UNL     1       0.461  -1.934   0.000  0.00  0.00    +0.102 A 
ATOM     26  N   UNL     1       0.166  -2.704   0.000  0.00  0.00    -0.082 NA
ATOM     27  O   UNL     1      -0.658  -2.661   0.000  0.00  0.00    -0.357 OA
BRANCH   5   4
ATOM      4  C   UNL     1      -1.642  -1.569   0.000  0.00  0.00    +0.141 C 
BRANCH   4   2
ATOM      1  C   UNL     1      -3.053  -1.792   0.000  0.00  0.00    +0.090 C 
ATOM      2  N   UNL     1      -2.283  -2.088   0.000  0.00  0.00    -0.264 NA
ATOM      3  C   UNL     1      -2.154  -2.903   0.000  0.00  0.00    +0.090 C 
ENDBRANCH   4   2
ENDBRANCH   5   4
ENDBRANCH   8   7
ENDBRANCH   9   8
BRANCH   9  13
ATOM     13  N   UNL     1       2.425  -1.721   0.000  0.00  0.00    -0.211 NA
BRANCH  13  14
ATOM     14  C   UNL     1       2.211  -0.924   0.000  0.00  0.00    +0.115 C 
BRANCH  14  15
ATOM     15  C   UNL     1       2.795  -0.341   0.000  0.00  0.00    -0.005 A 
ATOM     16  C   UNL     1       2.581   0.456   0.000  0.00  0.00    +0.000 A 
ATOM     17  C   UNL     1       3.164   1.040   0.000  0.00  0.00    +0.037 A 
ATOM     18  C   UNL     1       3.961   0.826   0.000  0.00  0.00    +0.147 A 
ATOM     24  C   UNL     1       4.175   0.029   0.000  0.00  0.00    +0.037 A 
ATOM     25  C   UNL     1       3.591  -0.554   0.000  0.00  0.00    +0.000 A 
BRANCH  18  19
ATOM     19  O   UNL     1       4.545   1.410   0.000  0.00  0.00    -0.404 OA
BRANCH  19  20
ATOM     20  C   UNL     1       4.331   2.207   0.000  0.00  0.00    +0.575 C 
ATOM     21  F   UNL     1       4.118   3.003   0.000  0.00  0.00    -0.133 F 
ATOM     22  F   UNL     1       5.128   2.420   0.000  0.00  0.00    -0.133 F 
ATOM     23  F   UNL     1       3.534   1.993   0.000  0.00  0.00    -0.133 F 
ENDBRANCH  19  20
ENDBRANCH  18  19
ENDBRANCH  14  15
ENDBRANCH  13  14
ENDBRANCH   9  13
TORSDOF 9
