MODEL 1
REMARK VINA RESULT:     -11.7      0.000      0.000
REMARK  Name = 
REMARK  7 active torsions:
REMARK  status: ('A' for Active; 'I' for Inactive)
REMARK    1  A    between atoms: O_2  and  C_3
REMARK    2  A    between atoms: C_3  and  C_5
REMARK    3  A    between atoms: C_18  and  N_29
REMARK    4  A    between atoms: C_20  and  C_22
REMARK    5  A    between atoms: N_29  and  C_30
REMARK    6  A    between atoms: C_30  and  C_31
REMARK    7  A    between atoms: C_31  and  N_32
REMARK                            x       y       z     vdW  Elec       q    Type
REMARK                         _______ _______ _______ _____ _____    ______ ____
ROOT
ATOM      5  C   UNL     1      -3.011   1.469  24.737  0.00  0.00    +0.162 C 
ATOM      6  C   UNL     1      -3.061   2.280  24.877  0.00  0.00    +0.055 C 
ATOM      7  C   UNL     1      -2.374   2.733  24.930  0.00  0.00    -0.004 A 
ATOM      8  C   UNL     1      -1.636   2.375  24.841  0.00  0.00    +0.070 A 
ATOM      9  N   UNL     1      -1.059   2.958  24.920  0.00  0.00    -0.249 NA
ATOM     10  C   UNL     1      -1.438   3.678  25.057  0.00  0.00    +0.081 A 
ATOM     11  C   UNL     1      -2.252   3.538  25.063  0.00  0.00    +0.015 A 
ATOM     12  C   UNL     1      -2.777   4.162  25.189  0.00  0.00    +0.001 A 
ATOM     13  C   UNL     1      -2.488   4.926  25.309  0.00  0.00    +0.000 A 
ATOM     14  C   UNL     1      -1.674   5.065  25.302  0.00  0.00    +0.002 A 
ATOM     15  C   UNL     1      -1.150   4.441  25.176  0.00  0.00    +0.019 A 
ATOM     16  C   UNL     1      -1.585   1.563  24.701  0.00  0.00    +0.100 C 
ATOM     17  C   UNL     1      -0.848   1.204  24.612  0.00  0.00    +0.040 C 
ATOM     18  C   UNL     1      -0.798   0.394  24.472  0.00  0.00    +0.076 C 
ATOM     19  C   UNL     1      -1.485  -0.059  24.420  0.00  0.00    +0.038 C 
ATOM     20  C   UNL     1      -2.223   0.299  24.508  0.00  0.00    +0.082 C 
ATOM     21  N   UNL     1      -2.273   1.110  24.649  0.00  0.00    -0.258 NA
ENDROOT
BRANCH  20  22
ATOM     22  C   UNL     1      -2.910  -0.155  24.456  0.00  0.00    -0.008 A 
ATOM     23  C   UNL     1      -3.291  -0.245  23.730  0.00  0.00    -0.001 A 
ATOM     24  C   UNL     1      -3.978  -0.699  23.679  0.00  0.00    +0.029 A 
ATOM     25  C   UNL     1      -4.284  -1.062  24.354  0.00  0.00    +0.140 A 
ATOM     26  F   UNL     1      -4.971  -1.516  24.302  0.00  0.00    -0.204 F 
ATOM     27  C   UNL     1      -3.903  -0.972  25.080  0.00  0.00    +0.029 A 
ATOM     28  C   UNL     1      -3.216  -0.518  25.131  0.00  0.00    -0.001 A 
ENDBRANCH  20  22
BRANCH   5   3
ATOM      3  C   UNL     1      -3.699   1.016  24.685  0.00  0.00    +0.332 C 
ATOM      4  O   UNL     1      -4.190   0.423  24.388  0.00  0.00    -0.249 OA
BRANCH   3   2
ATOM      1  C   UNL     1      -4.977   1.610  24.918  0.00  0.00    +0.256 C 
ATOM      2  O   UNL     1      -4.334   1.169  25.189  0.00  0.00    -0.443 OA
ENDBRANCH   3   2
ENDBRANCH   5   3
BRANCH  18  29
ATOM     29  N   UNL     1      -0.060   0.035  24.383  0.00  0.00    -0.218 NA
BRANCH  29  30
ATOM     30  C   UNL     1       0.333   0.073  23.659  0.00  0.00    +0.106 C 
BRANCH  30  31
ATOM     31  C   UNL     1       0.972  -0.427  23.509  0.00  0.00    +0.091 C 
BRANCH  31  32
ATOM     32  N   UNL     1       1.501  -0.251  22.901  0.00  0.00    -0.267 NA
ATOM     33  C   UNL     1       2.216   0.124  23.071  0.00  0.00    +0.105 C 
ATOM     34  C   UNL     1       2.744   0.301  22.462  0.00  0.00    +0.159 C 
ATOM     35  O   UNL     1       2.558   0.103  21.683  0.00  0.00    -0.351 OA
ATOM     36  C   UNL     1       1.842  -0.272  21.514  0.00  0.00    +0.159 C 
ATOM     37  C   UNL     1       1.314  -0.449  22.121  0.00  0.00    +0.105 C 
ENDBRANCH  31  32
ENDBRANCH  30  31
ENDBRANCH  29  30
ENDBRANCH  18  29
TORSDOF 7
ENDMDL
MODEL 2
REMARK VINA RESULT:     -11.5      1.452      3.545
REMARK  Name = 
REMARK  7 active torsions:
REMARK  status: ('A' for Active; 'I' for Inactive)
REMARK    1  A    between atoms: O_2  and  C_3
REMARK    2  A    between atoms: C_3  and  C_5
REMARK    3  A    between atoms: C_18  and  N_29
REMARK    4  A    between atoms: C_20  and  C_22
REMARK    5  A    between atoms: N_29  and  C_30
REMARK    6  A    between atoms: C_30  and  C_31
REMARK    7  A    between atoms: C_31  and  N_32
REMARK                            x       y       z     vdW  Elec       q    Type
REMARK                         _______ _______ _______ _____ _____    ______ ____
ROOT
ATOM      5  C   UNL     1      -3.548   0.911  24.531  0.00  0.00    +0.162 C 
ATOM      6  C   UNL     1      -3.858   0.148  24.506  0.00  0.00    +0.055 C 
ATOM      7  C   UNL     1      -3.351  -0.502  24.479  0.00  0.00    -0.004 A 
ATOM      8  C   UNL     1      -2.533  -0.389  24.478  0.00  0.00    +0.070 A 
ATOM      9  N   UNL     1      -2.173  -1.130  24.449  0.00  0.00    -0.249 NA
ATOM     10  C   UNL     1      -2.767  -1.703  24.432  0.00  0.00    +0.081 A 
ATOM     11  C   UNL     1      -3.495  -1.314  24.450  0.00  0.00    +0.015 A 
ATOM     12  C   UNL     1      -4.196  -1.750  24.439  0.00  0.00    +0.001 A 
ATOM     13  C   UNL     1      -4.168  -2.575  24.409  0.00  0.00    +0.000 A 
ATOM     14  C   UNL     1      -3.439  -2.963  24.390  0.00  0.00    +0.002 A 
ATOM     15  C   UNL     1      -2.739  -2.527  24.402  0.00  0.00    +0.019 A 
ATOM     16  C   UNL     1      -2.223   0.375  24.504  0.00  0.00    +0.100 C 
ATOM     17  C   UNL     1      -1.407   0.489  24.503  0.00  0.00    +0.040 C 
ATOM     18  C   UNL     1      -1.097   1.253  24.529  0.00  0.00    +0.076 C 
ATOM     19  C   UNL     1      -1.604   1.903  24.556  0.00  0.00    +0.038 C 
ATOM     20  C   UNL     1      -2.420   1.789  24.556  0.00  0.00    +0.082 C 
ATOM     21  N   UNL     1      -2.730   1.025  24.531  0.00  0.00    -0.258 NA
ENDROOT
BRANCH  20  22
ATOM     22  C   UNL     1      -2.927   2.440  24.583  0.00  0.00    -0.008 A 
ATOM     23  C   UNL     1      -3.211   2.771  23.883  0.00  0.00    -0.001 A 
ATOM     24  C   UNL     1      -3.718   3.422  23.911  0.00  0.00    +0.029 A 
ATOM     25  C   UNL     1      -3.940   3.741  24.639  0.00  0.00    +0.140 A 
ATOM     26  F   UNL     1      -4.446   4.393  24.666  0.00  0.00    -0.204 F 
ATOM     27  C   UNL     1      -3.655   3.410  25.338  0.00  0.00    +0.029 A 
ATOM     28  C   UNL     1      -3.149   2.760  25.311  0.00  0.00    -0.001 A 
ENDBRANCH  20  22
BRANCH   5   3
ATOM      3  C   UNL     1      -4.055   1.562  24.558  0.00  0.00    +0.332 C 
ATOM      4  O   UNL     1      -4.335   2.308  24.345  0.00  0.00    -0.249 OA
BRANCH   3   2
ATOM      1  C   UNL     1      -5.458   1.417  24.786  0.00  0.00    +0.256 C 
ATOM      2  O   UNL     1      -4.698   1.563  25.074  0.00  0.00    -0.443 OA
ENDBRANCH   3   2
ENDBRANCH   5   3
BRANCH  18  29
ATOM     29  N   UNL     1      -0.279   1.367  24.528  0.00  0.00    -0.218 NA
BRANCH  29  30
ATOM     30  C   UNL     1       0.180   1.057  23.916  0.00  0.00    +0.106 C 
BRANCH  30  31
ATOM     31  C   UNL     1       0.987   1.225  23.881  0.00  0.00    +0.091 C 
BRANCH  31  32
ATOM     32  N   UNL     1       1.472   0.809  23.358  0.00  0.00    -0.267 NA
ATOM     33  C   UNL     1       2.268   1.015  23.282  0.00  0.00    +0.105 C 
ATOM     34  C   UNL     1       2.753   0.600  22.759  0.00  0.00    +0.159 C 
ATOM     35  O   UNL     1       2.442  -0.021  22.313  0.00  0.00    -0.351 OA
ATOM     36  C   UNL     1       1.646  -0.226  22.390  0.00  0.00    +0.159 C 
ATOM     37  C   UNL     1       1.161   0.188  22.912  0.00  0.00    +0.105 C 
ENDBRANCH  31  32
ENDBRANCH  30  31
ENDBRANCH  29  30
ENDBRANCH  18  29
TORSDOF 7
ENDMDL
MODEL 3
REMARK VINA RESULT:     -11.0      2.682      3.410
REMARK  Name = 
REMARK  7 active torsions:
REMARK  status: ('A' for Active; 'I' for Inactive)
REMARK    1  A    between atoms: O_2  and  C_3
REMARK    2  A    between atoms: C_3  and  C_5
REMARK    3  A    between atoms: C_18  and  N_29
REMARK    4  A    between atoms: C_20  and  C_22
REMARK    5  A    between atoms: N_29  and  C_30
REMARK    6  A    between atoms: C_30  and  C_31
REMARK    7  A    between atoms: C_31  and  N_32
REMARK                            x       y       z     vdW  Elec       q    Type
REMARK                         _______ _______ _______ _____ _____    ______ ____
ROOT
ATOM      5  C   UNL     1      -3.805   3.098  25.101  0.00  0.00    +0.162 C 
ATOM      6  C   UNL     1      -3.335   3.776  25.114  0.00  0.00    +0.055 C 
ATOM      7  C   UNL     1      -2.518   3.713  25.019  0.00  0.00    -0.004 A 
ATOM      8  C   UNL     1      -2.170   2.973  24.911  0.00  0.00    +0.070 A 
ATOM      9  N   UNL     1      -1.357   3.083  24.832  0.00  0.00    -0.249 NA
ATOM     10  C   UNL     1      -1.200   3.890  24.892  0.00  0.00    +0.081 A 
ATOM     11  C   UNL     1      -1.919   4.280  25.007  0.00  0.00    +0.015 A 
ATOM     12  C   UNL     1      -1.934   5.101  25.087  0.00  0.00    +0.001 A 
ATOM     13  C   UNL     1      -1.231   5.533  25.052  0.00  0.00    +0.000 A 
ATOM     14  C   UNL     1      -0.512   5.142  24.936  0.00  0.00    +0.002 A 
ATOM     15  C   UNL     1      -0.497   4.321  24.856  0.00  0.00    +0.019 A 
ATOM     16  C   UNL     1      -2.640   2.295  24.897  0.00  0.00    +0.100 C 
ATOM     17  C   UNL     1      -2.294   1.554  24.789  0.00  0.00    +0.040 C 
ATOM     18  C   UNL     1      -2.763   0.877  24.776  0.00  0.00    +0.076 C 
ATOM     19  C   UNL     1      -3.581   0.940  24.871  0.00  0.00    +0.038 C 
ATOM     20  C   UNL     1      -3.927   1.680  24.979  0.00  0.00    +0.082 C 
ATOM     21  N   UNL     1      -3.458   2.357  24.992  0.00  0.00    -0.258 NA
ENDROOT
BRANCH  20  22
ATOM     22  C   UNL     1      -4.745   1.742  25.074  0.00  0.00    -0.008 A 
ATOM     23  C   UNL     1      -5.230   1.849  24.416  0.00  0.00    -0.001 A 
ATOM     24  C   UNL     1      -6.047   1.910  24.512  0.00  0.00    +0.029 A 
ATOM     25  C   UNL     1      -6.379   1.865  25.266  0.00  0.00    +0.140 A 
ATOM     26  F   UNL     1      -7.196   1.927  25.361  0.00  0.00    -0.204 F 
ATOM     27  C   UNL     1      -5.894   1.758  25.924  0.00  0.00    +0.029 A 
ATOM     28  C   UNL     1      -5.076   1.696  25.828  0.00  0.00    -0.001 A 
ENDBRANCH  20  22
BRANCH   5   3
ATOM      3  C   UNL     1      -4.622   3.161  25.196  0.00  0.00    +0.332 C 
ATOM      4  O   UNL     1      -5.414   2.983  25.047  0.00  0.00    -0.249 OA
BRANCH   3   2
ATOM      1  C   UNL     1      -5.269   4.401  25.486  0.00  0.00    +0.256 C 
ATOM      2  O   UNL     1      -4.935   3.692  25.744  0.00  0.00    -0.443 OA
ENDBRANCH   3   2
ENDBRANCH   5   3
BRANCH  18  29
ATOM     29  N   UNL     1      -2.416   0.136  24.667  0.00  0.00    -0.218 NA
BRANCH  29  30
ATOM     30  C   UNL     1      -2.891  -0.534  24.586  0.00  0.00    +0.106 C 
BRANCH  30  31
ATOM     31  C   UNL     1      -2.553  -1.255  24.369  0.00  0.00    +0.091 C 
BRANCH  31  32
ATOM     32  N   UNL     1      -3.016  -1.937  24.345  0.00  0.00    -0.267 NA
ATOM     33  C   UNL     1      -2.794  -2.603  24.780  0.00  0.00    +0.105 C 
ATOM     34  C   UNL     1      -3.258  -3.285  24.755  0.00  0.00    +0.159 C 
ATOM     35  O   UNL     1      -3.944  -3.301  24.296  0.00  0.00    -0.351 OA
ATOM     36  C   UNL     1      -4.165  -2.635  23.862  0.00  0.00    +0.159 C 
ATOM     37  C   UNL     1      -3.702  -1.954  23.886  0.00  0.00    +0.105 C 
ENDBRANCH  31  32
ENDBRANCH  30  31
ENDBRANCH  29  30
ENDBRANCH  18  29
TORSDOF 7
ENDMDL
MODEL 4
REMARK VINA RESULT:     -10.8      1.899      3.929
REMARK  Name = 
REMARK  7 active torsions:
REMARK  status: ('A' for Active; 'I' for Inactive)
REMARK    1  A    between atoms: O_2  and  C_3
REMARK    2  A    between atoms: C_3  and  C_5
REMARK    3  A    between atoms: C_18  and  N_29
REMARK    4  A    between atoms: C_20  and  C_22
REMARK    5  A    between atoms: N_29  and  C_30
REMARK    6  A    between atoms: C_30  and  C_31
REMARK    7  A    between atoms: C_31  and  N_32
REMARK                            x       y       z     vdW  Elec       q    Type
REMARK                         _______ _______ _______ _____ _____    ______ ____
ROOT
ATOM      5  C   UNL     1      -1.510   0.867  24.903  0.00  0.00    +0.162 C 
ATOM      6  C   UNL     1      -2.084   0.321  25.132  0.00  0.00    +0.055 C 
ATOM      7  C   UNL     1      -2.038  -0.460  24.870  0.00  0.00    -0.004 A 
ATOM      8  C   UNL     1      -1.417  -0.696  24.380  0.00  0.00    +0.070 A 
ATOM      9  N   UNL     1      -1.516  -1.497  24.211  0.00  0.00    -0.249 NA
ATOM     10  C   UNL     1      -2.197  -1.758  24.597  0.00  0.00    +0.081 A 
ATOM     11  C   UNL     1      -2.519  -1.116  25.004  0.00  0.00    +0.015 A 
ATOM     12  C   UNL     1      -3.210  -1.213  25.444  0.00  0.00    +0.001 A 
ATOM     13  C   UNL     1      -3.579  -1.951  25.478  0.00  0.00    +0.000 A 
ATOM     14  C   UNL     1      -3.255  -2.593  25.070  0.00  0.00    +0.002 A 
ATOM     15  C   UNL     1      -2.565  -2.496  24.629  0.00  0.00    +0.019 A 
ATOM     16  C   UNL     1      -0.843  -0.149  24.151  0.00  0.00    +0.100 C 
ATOM     17  C   UNL     1      -0.222  -0.384  23.661  0.00  0.00    +0.040 C 
ATOM     18  C   UNL     1       0.352   0.162  23.432  0.00  0.00    +0.076 C 
ATOM     19  C   UNL     1       0.305   0.943  23.694  0.00  0.00    +0.038 C 
ATOM     20  C   UNL     1      -0.315   1.178  24.184  0.00  0.00    +0.082 C 
ATOM     21  N   UNL     1      -0.889   0.632  24.412  0.00  0.00    -0.258 NA
ENDROOT
BRANCH  20  22
ATOM     22  C   UNL     1      -0.361   1.960  24.444  0.00  0.00    -0.008 A 
ATOM     23  C   UNL     1      -0.751   2.525  23.988  0.00  0.00    -0.001 A 
ATOM     24  C   UNL     1      -0.796   3.306  24.250  0.00  0.00    +0.029 A 
ATOM     25  C   UNL     1      -0.451   3.521  24.968  0.00  0.00    +0.140 A 
ATOM     26  F   UNL     1      -0.497   4.303  25.229  0.00  0.00    -0.204 F 
ATOM     27  C   UNL     1      -0.061   2.956  25.424  0.00  0.00    +0.029 A 
ATOM     28  C   UNL     1      -0.016   2.175  25.163  0.00  0.00    -0.001 A 
ENDBRANCH  20  22
BRANCH   5   3
ATOM      3  C   UNL     1      -1.557   1.648  25.164  0.00  0.00    +0.332 C 
ATOM      4  O   UNL     1      -1.279   2.346  25.505  0.00  0.00    -0.249 OA
BRANCH   3   2
ATOM      1  C   UNL     1      -2.764   2.169  25.722  0.00  0.00    +0.256 C 
ATOM      2  O   UNL     1      -2.259   2.072  25.077  0.00  0.00    -0.443 OA
ENDBRANCH   3   2
ENDBRANCH   5   3
BRANCH  18  29
ATOM     29  N   UNL     1       0.973  -0.073  22.942  0.00  0.00    -0.218 NA
BRANCH  29  30
ATOM     30  C   UNL     1       1.746   0.154  23.119  0.00  0.00    +0.106 C 
BRANCH  30  31
ATOM     31  C   UNL     1       2.351   0.019  22.573  0.00  0.00    +0.091 C 
BRANCH  31  32
ATOM     32  N   UNL     1       3.136   0.156  22.785  0.00  0.00    -0.267 NA
ATOM     33  C   UNL     1       3.565  -0.430  23.178  0.00  0.00    +0.105 C 
ATOM     34  C   UNL     1       4.351  -0.293  23.390  0.00  0.00    +0.159 C 
ATOM     35  O   UNL     1       4.707   0.430  23.210  0.00  0.00    -0.351 OA
ATOM     36  C   UNL     1       4.277   1.014  22.817  0.00  0.00    +0.159 C 
ATOM     37  C   UNL     1       3.492   0.878  22.605  0.00  0.00    +0.105 C 
ENDBRANCH  31  32
ENDBRANCH  30  31
ENDBRANCH  29  30
ENDBRANCH  18  29
TORSDOF 7
ENDMDL
MODEL 5
REMARK VINA RESULT:     -10.5      1.513      2.153
REMARK  Name = 
REMARK  7 active torsions:
REMARK  status: ('A' for Active; 'I' for Inactive)
REMARK    1  A    between atoms: O_2  and  C_3
REMARK    2  A    between atoms: C_3  and  C_5
REMARK    3  A    between atoms: C_18  and  N_29
REMARK    4  A    between atoms: C_20  and  C_22
REMARK    5  A    between atoms: N_29  and  C_30
REMARK    6  A    between atoms: C_30  and  C_31
REMARK    7  A    between atoms: C_31  and  N_32
REMARK                            x       y       z     vdW  Elec       q    Type
REMARK                         _______ _______ _______ _____ _____    ______ ____
ROOT
ATOM      5  C   UNL     1      -1.292   0.492  24.895  0.00  0.00    +0.162 C 
ATOM      6  C   UNL     1      -1.525   1.237  25.159  0.00  0.00    +0.055 C 
ATOM      7  C   UNL     1      -1.127   1.911  24.897  0.00  0.00    -0.004 A 
ATOM      8  C   UNL     1      -0.496   1.838  24.371  0.00  0.00    +0.070 A 
ATOM      9  N   UNL     1      -0.210   2.595  24.209  0.00  0.00    -0.249 NA
ATOM     10  C   UNL     1      -0.665   3.136  24.635  0.00  0.00    +0.081 A 
ATOM     11  C   UNL     1      -1.232   2.713  25.060  0.00  0.00    +0.015 A 
ATOM     12  C   UNL     1      -1.770   3.112  25.541  0.00  0.00    +0.001 A 
ATOM     13  C   UNL     1      -1.742   3.936  25.597  0.00  0.00    +0.000 A 
ATOM     14  C   UNL     1      -1.174   4.359  25.171  0.00  0.00    +0.002 A 
ATOM     15  C   UNL     1      -0.636   3.959  24.691  0.00  0.00    +0.019 A 
ATOM     16  C   UNL     1      -0.262   1.092  24.107  0.00  0.00    +0.100 C 
ATOM     17  C   UNL     1       0.369   1.019  23.581  0.00  0.00    +0.040 C 
ATOM     18  C   UNL     1       0.602   0.273  23.318  0.00  0.00    +0.076 C 
ATOM     19  C   UNL     1       0.204  -0.400  23.580  0.00  0.00    +0.038 C 
ATOM     20  C   UNL     1      -0.427  -0.327  24.106  0.00  0.00    +0.082 C 
ATOM     21  N   UNL     1      -0.660   0.419  24.369  0.00  0.00    -0.258 NA
ENDROOT
BRANCH  20  22
ATOM     22  C   UNL     1      -0.825  -1.001  24.368  0.00  0.00    -0.008 A 
ATOM     23  C   UNL     1      -1.466  -1.294  23.941  0.00  0.00    -0.001 A 
ATOM     24  C   UNL     1      -1.864  -1.968  24.203  0.00  0.00    +0.029 A 
ATOM     25  C   UNL     1      -1.619  -2.348  24.893  0.00  0.00    +0.140 A 
ATOM     26  F   UNL     1      -2.017  -3.023  25.156  0.00  0.00    -0.204 F 
ATOM     27  C   UNL     1      -0.977  -2.055  25.321  0.00  0.00    +0.029 A 
ATOM     28  C   UNL     1      -0.580  -1.381  25.058  0.00  0.00    -0.001 A 
ENDBRANCH  20  22
BRANCH   5   3
ATOM      3  C   UNL     1      -1.690  -0.181  25.158  0.00  0.00    +0.332 C 
ATOM      4  O   UNL     1      -1.760  -0.943  25.469  0.00  0.00    -0.249 OA
BRANCH   3   2
ATOM      1  C   UNL     1      -2.947  -0.109  25.834  0.00  0.00    +0.256 C 
ATOM      2  O   UNL     1      -2.515  -0.208  25.137  0.00  0.00    -0.443 OA
ENDBRANCH   3   2
ENDBRANCH   5   3
BRANCH  18  29
ATOM     29  N   UNL     1       1.234   0.200  22.792  0.00  0.00    -0.218 NA
BRANCH  29  30
ATOM     30  C   UNL     1       2.009   0.198  23.075  0.00  0.00    +0.106 C 
BRANCH  30  31
ATOM     31  C   UNL     1       2.640   0.112  22.550  0.00  0.00    +0.091 C 
BRANCH  31  32
ATOM     32  N   UNL     1       3.416   0.148  22.829  0.00  0.00    -0.267 NA
ATOM     33  C   UNL     1       3.861   0.834  22.719  0.00  0.00    +0.105 C 
ATOM     34  C   UNL     1       4.637   0.871  22.997  0.00  0.00    +0.159 C 
ATOM     35  O   UNL     1       4.967   0.221  23.385  0.00  0.00    -0.351 OA
ATOM     36  C   UNL     1       4.521  -0.464  23.495  0.00  0.00    +0.159 C 
ATOM     37  C   UNL     1       3.746  -0.501  23.217  0.00  0.00    +0.105 C 
ENDBRANCH  31  32
ENDBRANCH  30  31
ENDBRANCH  29  30
ENDBRANCH  18  29
TORSDOF 7
ENDMDL
MODEL 6
REMARK VINA RESULT:      -9.9      2.166      4.781
REMARK  Name = 
REMARK  7 active torsions:
REMARK  status: ('A' for Active; 'I' for Inactive)
REMARK    1  A    between atoms: O_2  and  C_3
REMARK    2  A    between atoms: C_3  and  C_5
REMARK    3  A    between atoms: C_18  and  N_29
REMARK    4  A    between atoms: C_20  and  C_22
REMARK    5  A    between atoms: N_29  and  C_30
REMARK    6  A    between atoms: C_30  and  C_31
REMARK    7  A    between atoms: C_31  and  N_32
REMARK                            x       y       z     vdW  Elec       q    Type
REMARK                         _______ _______ _______ _____ _____    ______ ____
ROOT
ATOM      5  C   UNL     1      -2.049  -0.631  24.547  0.00  0.00    +0.162 C 
ATOM      6  C   UNL     1      -1.318  -0.257  24.473  0.00  0.00    +0.055 C 
ATOM      7  C   UNL     1      -1.277   0.566  24.434  0.00  0.00    -0.004 A 
ATOM      8  C   UNL     1      -1.968   1.016  24.469  0.00  0.00    +0.070 A 
ATOM      9  N   UNL     1      -1.757   1.811  24.417  0.00  0.00    -0.249 NA
ATOM     10  C   UNL     1      -0.936   1.855  24.350  0.00  0.00    +0.081 A 
ATOM     11  C   UNL     1      -0.639   1.084  24.360  0.00  0.00    +0.015 A 
ATOM     12  C   UNL     1       0.173   0.954  24.301  0.00  0.00    +0.001 A 
ATOM     13  C   UNL     1       0.690   1.595  24.232  0.00  0.00    +0.000 A 
ATOM     14  C   UNL     1       0.392   2.365  24.223  0.00  0.00    +0.002 A 
ATOM     15  C   UNL     1      -0.420   2.495  24.282  0.00  0.00    +0.019 A 
ATOM     16  C   UNL     1      -2.700   0.642  24.543  0.00  0.00    +0.100 C 
ATOM     17  C   UNL     1      -3.391   1.091  24.579  0.00  0.00    +0.040 C 
ATOM     18  C   UNL     1      -4.122   0.717  24.653  0.00  0.00    +0.076 C 
ATOM     19  C   UNL     1      -4.163  -0.106  24.692  0.00  0.00    +0.038 C 
ATOM     20  C   UNL     1      -3.472  -0.555  24.657  0.00  0.00    +0.082 C 
ATOM     21  N   UNL     1      -2.740  -0.181  24.582  0.00  0.00    -0.258 NA
ENDROOT
BRANCH  20  22
ATOM     22  C   UNL     1      -3.513  -1.378  24.696  0.00  0.00    -0.008 A 
ATOM     23  C   UNL     1      -3.434  -1.761  25.421  0.00  0.00    -0.001 A 
ATOM     24  C   UNL     1      -3.476  -2.585  25.459  0.00  0.00    +0.029 A 
ATOM     25  C   UNL     1      -3.597  -3.024  24.771  0.00  0.00    +0.140 A 
ATOM     26  F   UNL     1      -3.638  -3.848  24.810  0.00  0.00    -0.204 F 
ATOM     27  C   UNL     1      -3.676  -2.641  24.046  0.00  0.00    +0.029 A 
ATOM     28  C   UNL     1      -3.634  -1.818  24.008  0.00  0.00    -0.001 A 
ENDBRANCH  20  22
BRANCH   5   3
ATOM      3  C   UNL     1      -2.090  -1.454  24.586  0.00  0.00    +0.332 C 
ATOM      4  O   UNL     1      -2.398  -2.202  24.422  0.00  0.00    -0.249 OA
BRANCH   3   2
ATOM      1  C   UNL     1      -0.899  -2.240  24.651  0.00  0.00    +0.256 C 
ATOM      2  O   UNL     1      -1.535  -1.874  25.029  0.00  0.00    -0.443 OA
ENDBRANCH   3   2
ENDBRANCH   5   3
BRANCH  18  29
ATOM     29  N   UNL     1      -4.813   1.167  24.688  0.00  0.00    -0.218 NA
BRANCH  29  30
ATOM     30  C   UNL     1      -4.807   1.905  25.058  0.00  0.00    +0.106 C 
BRANCH  30  31
ATOM     31  C   UNL     1      -5.518   2.292  25.217  0.00  0.00    +0.091 C 
BRANCH  31  32
ATOM     32  N   UNL     1      -5.517   3.095  25.405  0.00  0.00    -0.267 NA
ATOM     33  C   UNL     1      -4.808   3.517  25.408  0.00  0.00    +0.105 C 
ATOM     34  C   UNL     1      -4.806   4.321  25.596  0.00  0.00    +0.159 C 
ATOM     35  O   UNL     1      -5.514   4.702  25.782  0.00  0.00    -0.351 OA
ATOM     36  C   UNL     1      -6.223   4.279  25.780  0.00  0.00    +0.159 C 
ATOM     37  C   UNL     1      -6.225   3.477  25.591  0.00  0.00    +0.105 C 
ENDBRANCH  31  32
ENDBRANCH  30  31
ENDBRANCH  29  30
ENDBRANCH  18  29
TORSDOF 7
ENDMDL
MODEL 7
REMARK VINA RESULT:      -9.9      2.617      4.142
REMARK  Name = 
REMARK  7 active torsions:
REMARK  status: ('A' for Active; 'I' for Inactive)
REMARK    1  A    between atoms: O_2  and  C_3
REMARK    2  A    between atoms: C_3  and  C_5
REMARK    3  A    between atoms: C_18  and  N_29
REMARK    4  A    between atoms: C_20  and  C_22
REMARK    5  A    between atoms: N_29  and  C_30
REMARK    6  A    between atoms: C_30  and  C_31
REMARK    7  A    between atoms: C_31  and  N_32
REMARK                            x       y       z     vdW  Elec       q    Type
REMARK                         _______ _______ _______ _____ _____    ______ ____
ROOT
ATOM      5  C   UNL     1      -2.981   3.344  25.062  0.00  0.00    +0.162 C 
ATOM      6  C   UNL     1      -3.784   3.298  25.241  0.00  0.00    +0.055 C 
ATOM      7  C   UNL     1      -4.196   2.595  25.113  0.00  0.00    -0.004 A 
ATOM      8  C   UNL     1      -3.805   1.937  24.806  0.00  0.00    +0.070 A 
ATOM      9  N   UNL     1      -4.351   1.323  24.739  0.00  0.00    -0.249 NA
ATOM     10  C   UNL     1      -5.082   1.600  25.005  0.00  0.00    +0.081 A 
ATOM     11  C   UNL     1      -4.985   2.387  25.237  0.00  0.00    +0.015 A 
ATOM     12  C   UNL     1      -5.629   2.812  25.530  0.00  0.00    +0.001 A 
ATOM     13  C   UNL     1      -6.369   2.451  25.591  0.00  0.00    +0.000 A 
ATOM     14  C   UNL     1      -6.464   1.664  25.360  0.00  0.00    +0.002 A 
ATOM     15  C   UNL     1      -5.821   1.239  25.067  0.00  0.00    +0.019 A 
ATOM     16  C   UNL     1      -3.001   1.982  24.626  0.00  0.00    +0.100 C 
ATOM     17  C   UNL     1      -2.608   1.325  24.319  0.00  0.00    +0.040 C 
ATOM     18  C   UNL     1      -1.805   1.371  24.139  0.00  0.00    +0.076 C 
ATOM     19  C   UNL     1      -1.393   2.074  24.268  0.00  0.00    +0.038 C 
ATOM     20  C   UNL     1      -1.785   2.731  24.575  0.00  0.00    +0.082 C 
ATOM     21  N   UNL     1      -2.589   2.686  24.754  0.00  0.00    -0.258 NA
ENDROOT
BRANCH  20  22
ATOM     22  C   UNL     1      -1.372   3.434  24.703  0.00  0.00    -0.008 A 
ATOM     23  C   UNL     1      -1.002   3.570  25.427  0.00  0.00    -0.001 A 
ATOM     24  C   UNL     1      -0.590   4.273  25.554  0.00  0.00    +0.029 A 
ATOM     25  C   UNL     1      -0.547   4.840  24.956  0.00  0.00    +0.140 A 
ATOM     26  F   UNL     1      -0.134   5.544  25.084  0.00  0.00    -0.204 F 
ATOM     27  C   UNL     1      -0.917   4.705  24.232  0.00  0.00    +0.029 A 
ATOM     28  C   UNL     1      -1.330   4.002  24.105  0.00  0.00    -0.001 A 
ENDBRANCH  20  22
BRANCH   5   3
ATOM      3  C   UNL     1      -2.569   4.047  25.190  0.00  0.00    +0.332 C 
ATOM      4  O   UNL     1      -2.054   4.664  25.002  0.00  0.00    -0.249 OA
BRANCH   3   2
ATOM      1  C   UNL     1      -3.171   5.096  25.949  0.00  0.00    +0.256 C 
ATOM      2  O   UNL     1      -2.656   4.453  25.903  0.00  0.00    -0.443 OA
ENDBRANCH   3   2
ENDBRANCH   5   3
BRANCH  18  29
ATOM     29  N   UNL     1      -1.413   0.713  23.832  0.00  0.00    -0.218 NA
BRANCH  29  30
ATOM     30  C   UNL     1      -1.223   0.078  24.324  0.00  0.00    +0.106 C 
BRANCH  30  31
ATOM     31  C   UNL     1      -0.876  -0.600  24.007  0.00  0.00    +0.091 C 
BRANCH  31  32
ATOM     32  N   UNL     1      -0.917  -1.315  24.417  0.00  0.00    -0.267 NA
ATOM     33  C   UNL     1      -0.370  -1.481  25.013  0.00  0.00    +0.105 C 
ATOM     34  C   UNL     1      -0.412  -2.195  25.423  0.00  0.00    +0.159 C 
ATOM     35  O   UNL     1      -1.000  -2.744  25.238  0.00  0.00    -0.351 OA
ATOM     36  C   UNL     1      -1.546  -2.577  24.642  0.00  0.00    +0.159 C 
ATOM     37  C   UNL     1      -1.505  -1.863  24.232  0.00  0.00    +0.105 C 
ENDBRANCH  31  32
ENDBRANCH  30  31
ENDBRANCH  29  30
ENDBRANCH  18  29
TORSDOF 7
ENDMDL
