MODEL 1
REMARK VINA RESULT:     -11.1      0.000      0.000
REMARK  Name = 
REMARK  6 active torsions:
REMARK  status: ('A' for Active; 'I' for Inactive)
REMARK    1  A    between atoms: C_2  and  O_10
REMARK    2  A    between atoms: N_3  and  C_4
REMARK    3  A    between atoms: O_10  and  C_11
REMARK    4  A    between atoms: C_15  and  N_19
REMARK    5  A    between atoms: C_23  and  S_24
REMARK    6  A    between atoms: S_24  and  C_25
REMARK                            x       y       z     vdW  Elec       q    Type
REMARK                         _______ _______ _______ _____ _____    ______ ____
ROOT
ATOM     11  C   UNL     1      -0.288   1.333  25.052  0.00  0.00    +0.229 C 
ATOM     12  C   UNL     1      -0.150   1.179  24.254  0.00  0.00    +0.188 C 
ATOM     13  O   UNL     1      -0.359   0.395  24.106  0.00  0.00    -0.348 OA
ATOM     14  C   UNL     1      -0.626   0.065  24.811  0.00  0.00    +0.171 C 
ATOM     15  C   UNL     1      -0.921  -0.624  25.157  0.00  0.00    +0.168 C 
ATOM     16  C   UNL     1      -1.060  -0.470  25.956  0.00  0.00    +0.169 C 
ATOM     17  O   UNL     1      -0.851   0.314  26.104  0.00  0.00    -0.348 OA
ATOM     18  C   UNL     1      -0.583   0.644  25.396  0.00  0.00    +0.187 C 
ENDROOT
BRANCH  15  19
ATOM     19  N   UNL     1      -1.054  -1.341  24.771  0.00  0.00    -0.205 N 
ATOM     20  N   UNL     1      -0.478  -1.818  24.420  0.00  0.00    -0.042 NA
ATOM     21  N   UNL     1      -0.855  -2.478  24.101  0.00  0.00    -0.022 NA
ATOM     22  N   UNL     1      -1.662  -2.411  24.255  0.00  0.00    -0.101 NA
ATOM     23  C   UNL     1      -1.785  -1.709  24.669  0.00  0.00    +0.215 A 
BRANCH  23  24
ATOM     24  S   UNL     1      -2.513  -1.423  24.934  0.00  0.00    -0.047 S 
BRANCH  24  25
ATOM     25  C   UNL     1      -3.210  -1.666  24.566  0.00  0.00    +0.032 A 
ATOM     26  C   UNL     1      -3.477  -2.441  24.658  0.00  0.00    +0.007 A 
ATOM     27  C   UNL     1      -4.174  -2.684  24.290  0.00  0.00    +0.001 A 
ATOM     28  C   UNL     1      -4.605  -2.152  23.830  0.00  0.00    +0.000 A 
ATOM     29  C   UNL     1      -4.338  -1.376  23.738  0.00  0.00    +0.001 A 
ATOM     30  C   UNL     1      -3.641  -1.134  24.107  0.00  0.00    +0.007 A 
ENDBRANCH  24  25
ENDBRANCH  23  24
ENDBRANCH  15  19
BRANCH  11  10
ATOM     10  O   UNL     1      -0.155   2.050  25.438  0.00  0.00    -0.432 OA
BRANCH  10   2
ATOM      1  O   UNL     1      -0.650   2.887  24.391  0.00  0.00    -0.225 OA
ATOM      2  C   UNL     1      -0.554   2.730  25.194  0.00  0.00    +0.421 C 
ATOM      3  N   UNL     1      -0.857   3.254  25.756  0.00  0.00    -0.170 NA
BRANCH   3   4
ATOM      4  C   UNL     1      -1.256   3.934  25.513  0.00  0.00    +0.099 C 
ATOM      5  C   UNL     1      -0.835   4.567  25.193  0.00  0.00    +0.022 C 
ATOM      6  C   UNL     1      -1.235   5.247  24.950  0.00  0.00    +0.002 C 
ATOM      7  C   UNL     1      -2.055   5.293  25.026  0.00  0.00    +0.000 C 
ATOM      8  C   UNL     1      -2.476   4.659  25.346  0.00  0.00    +0.002 C 
ATOM      9  C   UNL     1      -2.077   3.980  25.589  0.00  0.00    +0.022 C 
ENDBRANCH   3   4
ENDBRANCH  10   2
ENDBRANCH  11  10
TORSDOF 6
ENDMDL
MODEL 2
REMARK VINA RESULT:     -10.8      1.237      5.450
REMARK  Name = 
REMARK  6 active torsions:
REMARK  status: ('A' for Active; 'I' for Inactive)
REMARK    1  A    between atoms: C_2  and  O_10
REMARK    2  A    between atoms: N_3  and  C_4
REMARK    3  A    between atoms: O_10  and  C_11
REMARK    4  A    between atoms: C_15  and  N_19
REMARK    5  A    between atoms: C_23  and  S_24
REMARK    6  A    between atoms: S_24  and  C_25
REMARK                            x       y       z     vdW  Elec       q    Type
REMARK                         _______ _______ _______ _____ _____    ______ ____
ROOT
ATOM     11  C   UNL     1      -0.965  -0.405  25.055  0.00  0.00    +0.229 C 
ATOM     12  C   UNL     1      -1.104  -0.327  25.864  0.00  0.00    +0.188 C 
ATOM     13  O   UNL     1      -0.832   0.416  26.099  0.00  0.00    -0.348 OA
ATOM     14  C   UNL     1      -0.526   0.797  25.435  0.00  0.00    +0.171 C 
ATOM     15  C   UNL     1      -0.168   1.491  25.169  0.00  0.00    +0.168 C 
ATOM     16  C   UNL     1      -0.029   1.414  24.360  0.00  0.00    +0.169 C 
ATOM     17  O   UNL     1      -0.301   0.671  24.125  0.00  0.00    -0.348 OA
ATOM     18  C   UNL     1      -0.608   0.290  24.790  0.00  0.00    +0.187 C 
ENDROOT
BRANCH  15  19
ATOM     19  N   UNL     1       0.017   2.149  25.632  0.00  0.00    -0.205 N 
ATOM     20  N   UNL     1       0.582   2.175  26.233  0.00  0.00    -0.042 NA
ATOM     21  N   UNL     1       0.584   2.938  26.547  0.00  0.00    -0.022 NA
ATOM     22  N   UNL     1       0.022   3.383  26.141  0.00  0.00    -0.101 NA
ATOM     23  C   UNL     1      -0.329   2.895  25.575  0.00  0.00    +0.215 A 
BRANCH  23  24
ATOM     24  S   UNL     1      -0.922   3.116  25.045  0.00  0.00    -0.047 S 
BRANCH  24  25
ATOM     25  C   UNL     1      -1.309   3.839  25.137  0.00  0.00    +0.032 A 
ATOM     26  C   UNL     1      -2.045   3.868  25.506  0.00  0.00    +0.007 A 
ATOM     27  C   UNL     1      -2.433   4.590  25.598  0.00  0.00    +0.001 A 
ATOM     28  C   UNL     1      -2.083   5.284  25.320  0.00  0.00    +0.000 A 
ATOM     29  C   UNL     1      -1.346   5.255  24.950  0.00  0.00    +0.001 A 
ATOM     30  C   UNL     1      -0.959   4.532  24.859  0.00  0.00    +0.007 A 
ENDBRANCH  24  25
ENDBRANCH  23  24
ENDBRANCH  15  19
BRANCH  11  10
ATOM     10  O   UNL     1      -1.150  -1.062  24.592  0.00  0.00    -0.432 OA
BRANCH  10   2
ATOM      1  O   UNL     1      -2.228  -1.589  25.368  0.00  0.00    -0.225 OA
ATOM      2  C   UNL     1      -1.903  -1.398  24.635  0.00  0.00    +0.421 C 
ATOM      3  N   UNL     1      -2.329  -1.543  23.943  0.00  0.00    -0.170 NA
BRANCH   3   4
ATOM      4  C   UNL     1      -3.082  -1.879  23.987  0.00  0.00    +0.099 C 
ATOM      5  C   UNL     1      -3.167  -2.680  24.168  0.00  0.00    +0.022 C 
ATOM      6  C   UNL     1      -3.919  -3.015  24.211  0.00  0.00    +0.002 C 
ATOM      7  C   UNL     1      -4.587  -2.551  24.073  0.00  0.00    +0.000 C 
ATOM      8  C   UNL     1      -4.502  -1.750  23.891  0.00  0.00    +0.002 C 
ATOM      9  C   UNL     1      -3.749  -1.415  23.848  0.00  0.00    +0.022 C 
ENDBRANCH   3   4
ENDBRANCH  10   2
ENDBRANCH  11  10
TORSDOF 6
ENDMDL
MODEL 3
REMARK VINA RESULT:     -10.3      2.575      6.122
REMARK  Name = 
REMARK  6 active torsions:
REMARK  status: ('A' for Active; 'I' for Inactive)
REMARK    1  A    between atoms: C_2  and  O_10
REMARK    2  A    between atoms: N_3  and  C_4
REMARK    3  A    between atoms: O_10  and  C_11
REMARK    4  A    between atoms: C_15  and  N_19
REMARK    5  A    between atoms: C_23  and  S_24
REMARK    6  A    between atoms: S_24  and  C_25
REMARK                            x       y       z     vdW  Elec       q    Type
REMARK                         _______ _______ _______ _____ _____    ______ ____
ROOT
ATOM     11  C   UNL     1      -4.278   0.596  24.605  0.00  0.00    +0.229 C 
ATOM     12  C   UNL     1      -3.964   0.702  23.850  0.00  0.00    +0.188 C 
ATOM     13  O   UNL     1      -3.873   1.512  23.723  0.00  0.00    -0.348 OA
ATOM     14  C   UNL     1      -4.131   1.907  24.400  0.00  0.00    +0.171 C 
ATOM     15  C   UNL     1      -4.234   2.651  24.741  0.00  0.00    +0.168 C 
ATOM     16  C   UNL     1      -4.548   2.545  25.496  0.00  0.00    +0.169 C 
ATOM     17  O   UNL     1      -4.639   1.735  25.622  0.00  0.00    -0.348 OA
ATOM     18  C   UNL     1      -4.381   1.341  24.945  0.00  0.00    +0.187 C 
ENDROOT
BRANCH  15  19
ATOM     19  N   UNL     1      -4.055   3.375  24.387  0.00  0.00    -0.205 N 
ATOM     20  N   UNL     1      -4.486   3.741  23.785  0.00  0.00    -0.042 NA
ATOM     21  N   UNL     1      -4.110   4.452  23.600  0.00  0.00    -0.022 NA
ATOM     22  N   UNL     1      -3.448   4.525  24.086  0.00  0.00    -0.101 NA
ATOM     23  C   UNL     1      -3.414   3.859  24.572  0.00  0.00    +0.215 A 
BRANCH  23  24
ATOM     24  S   UNL     1      -2.839   3.706  25.144  0.00  0.00    -0.047 S 
BRANCH  24  25
ATOM     25  C   UNL     1      -2.097   4.063  25.089  0.00  0.00    +0.032 A 
ATOM     26  C   UNL     1      -2.005   4.857  25.292  0.00  0.00    +0.007 A 
ATOM     27  C   UNL     1      -1.264   5.214  25.238  0.00  0.00    +0.001 A 
ATOM     28  C   UNL     1      -0.613   4.776  24.980  0.00  0.00    +0.000 A 
ATOM     29  C   UNL     1      -0.705   3.981  24.776  0.00  0.00    +0.001 A 
ATOM     30  C   UNL     1      -1.447   3.625  24.831  0.00  0.00    +0.007 A 
ENDBRANCH  24  25
ENDBRANCH  23  24
ENDBRANCH  15  19
BRANCH  11  10
ATOM     10  O   UNL     1      -4.457  -0.128  24.959  0.00  0.00    -0.432 OA
BRANCH  10   2
ATOM      1  O   UNL     1      -4.221  -1.112  23.950  0.00  0.00    -0.225 OA
ATOM      2  C   UNL     1      -4.078  -0.816  24.706  0.00  0.00    +0.421 C 
ATOM      3  N   UNL     1      -3.556  -1.207  25.212  0.00  0.00    -0.170 NA
BRANCH   3   4
ATOM      4  C   UNL     1      -3.177  -1.895  24.959  0.00  0.00    +0.099 C 
ATOM      5  C   UNL     1      -3.602  -2.599  24.887  0.00  0.00    +0.022 C 
ATOM      6  C   UNL     1      -3.223  -3.286  24.635  0.00  0.00    +0.002 C 
ATOM      7  C   UNL     1      -2.418  -3.271  24.454  0.00  0.00    +0.000 C 
ATOM      8  C   UNL     1      -1.992  -2.567  24.526  0.00  0.00    +0.002 C 
ATOM      9  C   UNL     1      -2.372  -1.880  24.779  0.00  0.00    +0.022 C 
ENDBRANCH   3   4
ENDBRANCH  10   2
ENDBRANCH  11  10
TORSDOF 6
ENDMDL
MODEL 4
REMARK VINA RESULT:     -10.2      2.032      2.818
REMARK  Name = 
REMARK  6 active torsions:
REMARK  status: ('A' for Active; 'I' for Inactive)
REMARK    1  A    between atoms: C_2  and  O_10
REMARK    2  A    between atoms: N_3  and  C_4
REMARK    3  A    between atoms: O_10  and  C_11
REMARK    4  A    between atoms: C_15  and  N_19
REMARK    5  A    between atoms: C_23  and  S_24
REMARK    6  A    between atoms: S_24  and  C_25
REMARK                            x       y       z     vdW  Elec       q    Type
REMARK                         _______ _______ _______ _____ _____    ______ ____
ROOT
ATOM     11  C   UNL     1      -3.890   2.105  24.417  0.00  0.00    +0.229 C 
ATOM     12  C   UNL     1      -3.624   1.908  23.662  0.00  0.00    +0.188 C 
ATOM     13  O   UNL     1      -3.661   1.088  23.585  0.00  0.00    -0.348 OA
ATOM     14  C   UNL     1      -3.949   0.778  24.292  0.00  0.00    +0.171 C 
ATOM     15  C   UNL     1      -4.151   0.080  24.683  0.00  0.00    +0.168 C 
ATOM     16  C   UNL     1      -4.417   0.277  25.439  0.00  0.00    +0.169 C 
ATOM     17  O   UNL     1      -4.380   1.097  25.515  0.00  0.00    -0.348 OA
ATOM     18  C   UNL     1      -4.091   1.407  24.807  0.00  0.00    +0.187 C 
ENDROOT
BRANCH  15  19
ATOM     19  N   UNL     1      -4.096  -0.683  24.372  0.00  0.00    -0.205 N 
ATOM     20  N   UNL     1      -4.606  -1.019  23.817  0.00  0.00    -0.042 NA
ATOM     21  N   UNL     1      -4.346  -1.786  23.664  0.00  0.00    -0.022 NA
ATOM     22  N   UNL     1      -3.676  -1.925  24.124  0.00  0.00    -0.101 NA
ATOM     23  C   UNL     1      -3.522  -1.244  24.562  0.00  0.00    +0.215 A 
BRANCH  23  24
ATOM     24  S   UNL     1      -2.901  -1.141  25.097  0.00  0.00    -0.047 S 
BRANCH  24  25
ATOM     25  C   UNL     1      -2.183  -1.530  24.975  0.00  0.00    +0.032 A 
ATOM     26  C   UNL     1      -2.135  -2.347  25.078  0.00  0.00    +0.007 A 
ATOM     27  C   UNL     1      -1.418  -2.736  24.957  0.00  0.00    +0.001 A 
ATOM     28  C   UNL     1      -0.749  -2.307  24.733  0.00  0.00    +0.000 A 
ATOM     29  C   UNL     1      -0.797  -1.490  24.630  0.00  0.00    +0.001 A 
ATOM     30  C   UNL     1      -1.515  -1.102  24.751  0.00  0.00    +0.007 A 
ENDBRANCH  24  25
ENDBRANCH  23  24
ENDBRANCH  15  19
BRANCH  11  10
ATOM     10  O   UNL     1      -3.945   2.868  24.728  0.00  0.00    -0.432 OA
BRANCH  10   2
ATOM      1  O   UNL     1      -3.175   3.758  23.919  0.00  0.00    -0.225 OA
ATOM      2  C   UNL     1      -3.315   3.394  24.645  0.00  0.00    +0.421 C 
ATOM      3  N   UNL     1      -2.826   3.556  25.290  0.00  0.00    -0.170 NA
BRANCH   3   4
ATOM      4  C   UNL     1      -2.196   4.083  25.207  0.00  0.00    +0.099 C 
ATOM      5  C   UNL     1      -2.328   4.896  25.260  0.00  0.00    +0.022 C 
ATOM      6  C   UNL     1      -1.698   5.421  25.176  0.00  0.00    +0.002 C 
ATOM      7  C   UNL     1      -0.936   5.135  25.040  0.00  0.00    +0.000 C 
ATOM      8  C   UNL     1      -0.805   4.322  24.987  0.00  0.00    +0.002 C 
ATOM      9  C   UNL     1      -1.435   3.796  25.070  0.00  0.00    +0.022 C 
ENDBRANCH   3   4
ENDBRANCH  10   2
ENDBRANCH  11  10
TORSDOF 6
ENDMDL
MODEL 5
REMARK VINA RESULT:     -10.0      1.706      5.214
REMARK  Name = 
REMARK  6 active torsions:
REMARK  status: ('A' for Active; 'I' for Inactive)
REMARK    1  A    between atoms: C_2  and  O_10
REMARK    2  A    between atoms: N_3  and  C_4
REMARK    3  A    between atoms: O_10  and  C_11
REMARK    4  A    between atoms: C_15  and  N_19
REMARK    5  A    between atoms: C_23  and  S_24
REMARK    6  A    between atoms: S_24  and  C_25
REMARK                            x       y       z     vdW  Elec       q    Type
REMARK                         _______ _______ _______ _____ _____    ______ ____
ROOT
ATOM     11  C   UNL     1      -0.946   0.539  24.900  0.00  0.00    +0.229 C 
ATOM     12  C   UNL     1      -0.945   0.752  25.696  0.00  0.00    +0.188 C 
ATOM     13  O   UNL     1      -1.162   1.546  25.747  0.00  0.00    -0.348 OA
ATOM     14  C   UNL     1      -1.296   1.824  24.982  0.00  0.00    +0.171 C 
ATOM     15  C   UNL     1      -1.513   2.485  24.540  0.00  0.00    +0.168 C 
ATOM     16  C   UNL     1      -1.514   2.272  23.743  0.00  0.00    +0.169 C 
ATOM     17  O   UNL     1      -1.297   1.478  23.693  0.00  0.00    -0.348 OA
ATOM     18  C   UNL     1      -1.163   1.201  24.459  0.00  0.00    +0.187 C 
ENDROOT
BRANCH  15  19
ATOM     19  N   UNL     1      -1.697   3.231  24.842  0.00  0.00    -0.205 N 
ATOM     20  N   UNL     1      -1.165   3.762  25.182  0.00  0.00    -0.042 NA
ATOM     21  N   UNL     1      -1.585   4.435  25.407  0.00  0.00    -0.022 NA
ATOM     22  N   UNL     1      -2.376   4.321  25.207  0.00  0.00    -0.101 NA
ATOM     23  C   UNL     1      -2.446   3.576  24.858  0.00  0.00    +0.215 A 
BRANCH  23  24
ATOM     24  S   UNL     1      -3.143   3.237  24.574  0.00  0.00    -0.047 S 
BRANCH  24  25
ATOM     25  C   UNL     1      -3.867   3.432  24.919  0.00  0.00    +0.032 A 
ATOM     26  C   UNL     1      -4.200   2.935  25.487  0.00  0.00    +0.007 A 
ATOM     27  C   UNL     1      -4.923   3.129  25.832  0.00  0.00    +0.001 A 
ATOM     28  C   UNL     1      -5.314   3.821  25.608  0.00  0.00    +0.000 A 
ATOM     29  C   UNL     1      -4.981   4.318  25.040  0.00  0.00    +0.001 A 
ATOM     30  C   UNL     1      -4.257   4.123  24.695  0.00  0.00    +0.007 A 
ENDBRANCH  24  25
ENDBRANCH  23  24
ENDBRANCH  15  19
BRANCH  11  10
ATOM     10  O   UNL     1      -0.761  -0.207  24.598  0.00  0.00    -0.432 OA
BRANCH  10   2
ATOM      1  O   UNL     1      -1.144  -1.241  25.507  0.00  0.00    -0.225 OA
ATOM      2  C   UNL     1      -1.235  -0.856  24.783  0.00  0.00    +0.421 C 
ATOM      3  N   UNL     1      -1.801  -1.121  24.243  0.00  0.00    -0.170 NA
BRANCH   3   4
ATOM      4  C   UNL     1      -2.275  -1.770  24.429  0.00  0.00    +0.099 C 
ATOM      5  C   UNL     1      -1.974  -2.535  24.358  0.00  0.00    +0.022 C 
ATOM      6  C   UNL     1      -2.448  -3.184  24.544  0.00  0.00    +0.002 C 
ATOM      7  C   UNL     1      -3.224  -3.068  24.801  0.00  0.00    +0.000 C 
ATOM      8  C   UNL     1      -3.525  -2.303  24.872  0.00  0.00    +0.002 C 
ATOM      9  C   UNL     1      -3.051  -1.655  24.686  0.00  0.00    +0.022 C 
ENDBRANCH   3   4
ENDBRANCH  10   2
ENDBRANCH  11  10
TORSDOF 6
ENDMDL
MODEL 6
REMARK VINA RESULT:     -10.0      1.724      2.085
REMARK  Name = 
REMARK  6 active torsions:
REMARK  status: ('A' for Active; 'I' for Inactive)
REMARK    1  A    between atoms: C_2  and  O_10
REMARK    2  A    between atoms: N_3  and  C_4
REMARK    3  A    between atoms: O_10  and  C_11
REMARK    4  A    between atoms: C_15  and  N_19
REMARK    5  A    between atoms: C_23  and  S_24
REMARK    6  A    between atoms: S_24  and  C_25
REMARK                            x       y       z     vdW  Elec       q    Type
REMARK                         _______ _______ _______ _____ _____    ______ ____
ROOT
ATOM     11  C   UNL     1      -1.989   2.230  24.420  0.00  0.00    +0.229 C 
ATOM     12  C   UNL     1      -2.033   1.973  23.638  0.00  0.00    +0.188 C 
ATOM     13  O   UNL     1      -1.769   1.192  23.612  0.00  0.00    -0.348 OA
ATOM     14  C   UNL     1      -1.563   0.966  24.377  0.00  0.00    +0.171 C 
ATOM     15  C   UNL     1      -1.272   0.345  24.835  0.00  0.00    +0.168 C 
ATOM     16  C   UNL     1      -1.228   0.602  25.617  0.00  0.00    +0.169 C 
ATOM     17  O   UNL     1      -1.492   1.383  25.644  0.00  0.00    -0.348 OA
ATOM     18  C   UNL     1      -1.699   1.608  24.877  0.00  0.00    +0.187 C 
ENDROOT
BRANCH  15  19
ATOM     19  N   UNL     1      -1.062  -0.404  24.558  0.00  0.00    -0.205 N 
ATOM     20  N   UNL     1      -0.370  -0.594  24.150  0.00  0.00    -0.042 NA
ATOM     21  N   UNL     1      -0.387  -1.401  23.981  0.00  0.00    -0.022 NA
ATOM     22  N   UNL     1      -1.089  -1.709  24.283  0.00  0.00    -0.101 NA
ATOM     23  C   UNL     1      -1.506  -1.093  24.640  0.00  0.00    +0.215 A 
BRANCH  23  24
ATOM     24  S   UNL     1      -2.239  -1.157  25.014  0.00  0.00    -0.047 S 
BRANCH  24  25
ATOM     25  C   UNL     1      -2.777  -1.734  24.772  0.00  0.00    +0.032 A 
ATOM     26  C   UNL     1      -2.714  -2.504  25.061  0.00  0.00    +0.007 A 
ATOM     27  C   UNL     1      -3.251  -3.081  24.820  0.00  0.00    +0.001 A 
ATOM     28  C   UNL     1      -3.853  -2.888  24.288  0.00  0.00    +0.000 A 
ATOM     29  C   UNL     1      -3.916  -2.117  23.999  0.00  0.00    +0.001 A 
ATOM     30  C   UNL     1      -3.378  -1.541  24.241  0.00  0.00    +0.007 A 
ENDBRANCH  24  25
ENDBRANCH  23  24
ENDBRANCH  15  19
BRANCH  11  10
ATOM     10  O   UNL     1      -2.200   2.979  24.697  0.00  0.00    -0.432 OA
BRANCH  10   2
ATOM      1  O   UNL     1      -3.395   3.371  24.019  0.00  0.00    -0.225 OA
ATOM      2  C   UNL     1      -2.994   3.203  24.719  0.00  0.00    +0.421 C 
ATOM      3  N   UNL     1      -3.386   3.258  25.444  0.00  0.00    -0.170 NA
BRANCH   3   4
ATOM      4  C   UNL     1      -4.180   3.482  25.466  0.00  0.00    +0.099 C 
ATOM      5  C   UNL     1      -4.386   4.279  25.399  0.00  0.00    +0.022 C 
ATOM      6  C   UNL     1      -5.180   4.502  25.421  0.00  0.00    +0.002 C 
ATOM      7  C   UNL     1      -5.767   3.929  25.510  0.00  0.00    +0.000 C 
ATOM      8  C   UNL     1      -5.561   3.133  25.577  0.00  0.00    +0.002 C 
ATOM      9  C   UNL     1      -4.767   2.910  25.555  0.00  0.00    +0.022 C 
ENDBRANCH   3   4
ENDBRANCH  10   2
ENDBRANCH  11  10
TORSDOF 6
ENDMDL
