MODEL 1
REMARK VINA RESULT:     -10.6      0.000      0.000
REMARK  Name = 
REMARK  6 active torsions:
REMARK  status: ('A' for Active; 'I' for Inactive)
REMARK    1  A    between atoms: N_2  and  C_4
REMARK    2  A    between atoms: C_7  and  C_10
REMARK    3  A    between atoms: N_12  and  C_13
REMARK    4  A    between atoms: C_13  and  C_14
REMARK    5  A    between atoms: C_21  and  C_22
REMARK    6  A    between atoms: C_24  and  C_29
REMARK                            x       y       z     vdW  Elec       q    Type
REMARK                         _______ _______ _______ _____ _____    ______ ____
ROOT
ATOM     14  C   UNL     1       0.232   0.147  23.478  0.00  0.00    +0.079 C 
ATOM     15  C   UNL     1      -0.073   0.070  24.190  0.00  0.00    +0.018 C 
ATOM     16  C   UNL     1      -0.801   0.339  24.422  0.00  0.00    +0.010 C 
ATOM     17  C   UNL     1      -0.967   0.151  25.283  0.00  0.00    +0.018 C 
ATOM     18  C   UNL     1      -0.616   0.157  24.732  0.00  0.00    +0.072 C 
ATOM     19  N   UNL     1      -0.509   0.417  23.723  0.00  0.00    -0.272 NA
ATOM     20  C   UNL     1      -1.172   0.862  23.281  0.00  0.00    +0.078 C 
ATOM     21  C   UNL     1      -1.435   0.767  23.992  0.00  0.00    +0.056 C 
ENDROOT
BRANCH  21  22
ATOM     22  C   UNL     1      -2.163   1.014  24.292  0.00  0.00    +0.063 A 
ATOM     23  C   UNL     1      -2.268   1.799  24.524  0.00  0.00    +0.034 A 
ATOM     24  C   UNL     1      -2.995   2.046  24.824  0.00  0.00    +0.084 A 
ATOM     25  N   UNL     1      -3.618   1.509  24.892  0.00  0.00    -0.231 NA
ATOM     26  C   UNL     1      -3.513   0.724  24.660  0.00  0.00    +0.139 A 
ATOM     27  C   UNL     1      -4.135   0.186  24.728  0.00  0.00    +0.074 C 
ATOM     28  N   UNL     1      -2.784   0.477  24.360  0.00  0.00    -0.235 NA
BRANCH  24  29
ATOM     29  C   UNL     1      -3.101   2.831  25.056  0.00  0.00    +0.024 A 
ATOM     30  C   UNL     1      -3.515   3.352  24.569  0.00  0.00    +0.036 A 
ATOM     31 BR   UNL     1      -3.823   3.090  23.850  0.00  0.00    -0.049 Br
ATOM     32  C   UNL     1      -3.621   4.136  24.800  0.00  0.00    +0.007 A 
ATOM     33  C   UNL     1      -3.314   4.400  25.520  0.00  0.00    +0.001 A 
ATOM     34  C   UNL     1      -2.900   3.878  26.006  0.00  0.00    +0.000 A 
ATOM     35  C   UNL     1      -2.794   3.093  25.775  0.00  0.00    +0.002 A 
ENDBRANCH  24  29
ENDBRANCH  21  22
BRANCH  14  13
ATOM     13  C   UNL     1       0.828   0.041  22.918  0.00  0.00    +0.131 C 
BRANCH  13  12
ATOM     10  C   UNL     1       2.215   0.020  22.577  0.00  0.00    +0.265 C 
ATOM     11  O   UNL     1       2.019  -0.078  21.783  0.00  0.00    -0.268 OA
ATOM     12  N   UNL     1       1.620   0.080  23.145  0.00  0.00    -0.200 NA
BRANCH  10   7
ATOM      4  C   UNL     1       4.591   0.138  23.260  0.00  0.00    +0.048 A 
ATOM      5  C   UNL     1       4.164  -0.559  23.372  0.00  0.00    +0.015 A 
ATOM      6  C   UNL     1       3.372  -0.598  23.145  0.00  0.00    +0.006 A 
ATOM      7  C   UNL     1       3.007   0.060  22.805  0.00  0.00    +0.055 A 
ATOM      8  C   UNL     1       3.435   0.756  22.692  0.00  0.00    +0.006 A 
ATOM      9  C   UNL     1       4.226   0.795  22.920  0.00  0.00    +0.015 A 
BRANCH   4   2
ATOM      1  C   UNL     1       5.591   0.559  24.188  0.00  0.00    +0.112 C 
ATOM      2  N   UNL     1       5.383   0.176  23.487  0.00  0.00    -0.304 N 
ATOM      3  C   UNL     1       5.966  -0.167  23.016  0.00  0.00    +0.112 C 
ENDBRANCH   4   2
ENDBRANCH  10   7
ENDBRANCH  13  12
ENDBRANCH  14  13
TORSDOF 6
ENDMDL
MODEL 2
REMARK VINA RESULT:     -10.4      0.955      1.599
REMARK  Name = 
REMARK  6 active torsions:
REMARK  status: ('A' for Active; 'I' for Inactive)
REMARK    1  A    between atoms: N_2  and  C_4
REMARK    2  A    between atoms: C_7  and  C_10
REMARK    3  A    between atoms: N_12  and  C_13
REMARK    4  A    between atoms: C_13  and  C_14
REMARK    5  A    between atoms: C_21  and  C_22
REMARK    6  A    between atoms: C_24  and  C_29
REMARK                            x       y       z     vdW  Elec       q    Type
REMARK                         _______ _______ _______ _____ _____    ______ ____
ROOT
ATOM     14  C   UNL     1       0.156   0.599  23.718  0.00  0.00    +0.079 C 
ATOM     15  C   UNL     1      -0.181   0.540  24.417  0.00  0.00    +0.018 C 
ATOM     16  C   UNL     1      -0.764   1.024  24.701  0.00  0.00    +0.010 C 
ATOM     17  C   UNL     1      -1.018   0.790  25.529  0.00  0.00    +0.018 C 
ATOM     18  C   UNL     1      -0.671   0.744  24.977  0.00  0.00    +0.072 C 
ATOM     19  N   UNL     1      -0.438   1.088  24.015  0.00  0.00    -0.272 NA
ATOM     20  C   UNL     1      -0.872   1.808  23.658  0.00  0.00    +0.078 C 
ATOM     21  C   UNL     1      -1.176   1.716  24.352  0.00  0.00    +0.056 C 
ENDROOT
BRANCH  21  22
ATOM     22  C   UNL     1      -1.770   2.171  24.701  0.00  0.00    +0.063 A 
ATOM     23  C   UNL     1      -2.561   1.949  24.621  0.00  0.00    +0.034 A 
ATOM     24  C   UNL     1      -3.153   2.404  24.969  0.00  0.00    +0.084 A 
ATOM     25  N   UNL     1      -2.956   3.081  25.397  0.00  0.00    -0.231 NA
ATOM     26  C   UNL     1      -2.166   3.303  25.477  0.00  0.00    +0.139 A 
ATOM     27  C   UNL     1      -1.968   3.980  25.905  0.00  0.00    +0.074 C 
ATOM     28  N   UNL     1      -1.573   2.847  25.128  0.00  0.00    -0.235 NA
BRANCH  24  29
ATOM     29  C   UNL     1      -3.945   2.183  24.890  0.00  0.00    +0.024 A 
ATOM     30  C   UNL     1      -4.428   2.571  24.345  0.00  0.00    +0.036 A 
ATOM     31 BR   UNL     1      -4.122   3.180  23.881  0.00  0.00    -0.049 Br
ATOM     32  C   UNL     1      -5.219   2.350  24.266  0.00  0.00    +0.007 A 
ATOM     33  C   UNL     1      -5.526   1.741  24.730  0.00  0.00    +0.001 A 
ATOM     34  C   UNL     1      -5.042   1.353  25.274  0.00  0.00    +0.000 A 
ATOM     35  C   UNL     1      -4.251   1.574  25.354  0.00  0.00    +0.002 A 
ENDBRANCH  24  29
ENDBRANCH  21  22
BRANCH  14  13
ATOM     13  C   UNL     1       0.690   0.360  23.136  0.00  0.00    +0.131 C 
BRANCH  13  12
ATOM     10  C   UNL     1       2.033   0.137  22.704  0.00  0.00    +0.265 C 
ATOM     11  O   UNL     1       1.757  -0.094  21.962  0.00  0.00    -0.268 OA
ATOM     12  N   UNL     1       1.500   0.364  23.291  0.00  0.00    -0.200 NA
BRANCH  10   7
ATOM      4  C   UNL     1       4.463   0.149  23.171  0.00  0.00    +0.048 A 
ATOM      5  C   UNL     1       4.020  -0.533  23.311  0.00  0.00    +0.015 A 
ATOM      6  C   UNL     1       3.210  -0.537  23.156  0.00  0.00    +0.006 A 
ATOM      7  C   UNL     1       2.843   0.141  22.860  0.00  0.00    +0.055 A 
ATOM      8  C   UNL     1       3.287   0.822  22.720  0.00  0.00    +0.006 A 
ATOM      9  C   UNL     1       4.097   0.826  22.875  0.00  0.00    +0.015 A 
BRANCH   4   2
ATOM      1  C   UNL     1       5.795  -0.215  22.803  0.00  0.00    +0.112 C 
ATOM      2  N   UNL     1       5.274   0.152  23.327  0.00  0.00    -0.304 N 
ATOM      3  C   UNL     1       5.562   0.521  24.005  0.00  0.00    +0.112 C 
ENDBRANCH   4   2
ENDBRANCH  10   7
ENDBRANCH  13  12
ENDBRANCH  14  13
TORSDOF 6
ENDMDL
MODEL 3
REMARK VINA RESULT:      -9.3      1.288      1.639
REMARK  Name = 
REMARK  6 active torsions:
REMARK  status: ('A' for Active; 'I' for Inactive)
REMARK    1  A    between atoms: N_2  and  C_4
REMARK    2  A    between atoms: C_7  and  C_10
REMARK    3  A    between atoms: N_12  and  C_13
REMARK    4  A    between atoms: C_13  and  C_14
REMARK    5  A    between atoms: C_21  and  C_22
REMARK    6  A    between atoms: C_24  and  C_29
REMARK                            x       y       z     vdW  Elec       q    Type
REMARK                         _______ _______ _______ _____ _____    ______ ____
ROOT
ATOM     14  C   UNL     1       0.267   0.391  23.668  0.00  0.00    +0.079 C 
ATOM     15  C   UNL     1       0.002   0.723  24.320  0.00  0.00    +0.018 C 
ATOM     16  C   UNL     1      -0.710   0.568  24.673  0.00  0.00    +0.010 C 
ATOM     17  C   UNL     1      -0.827   1.055  25.416  0.00  0.00    +0.018 C 
ATOM     18  C   UNL     1      -0.508   0.846  24.886  0.00  0.00    +0.072 C 
ATOM     19  N   UNL     1      -0.457   0.238  24.033  0.00  0.00    -0.272 NA
ATOM     20  C   UNL     1      -1.142  -0.326  23.819  0.00  0.00    +0.078 C 
ATOM     21  C   UNL     1      -1.364   0.023  24.460  0.00  0.00    +0.056 C 
ENDROOT
BRANCH  21  22
ATOM     22  C   UNL     1      -2.073  -0.089  24.869  0.00  0.00    +0.063 A 
ATOM     23  C   UNL     1      -2.708   0.422  24.740  0.00  0.00    +0.034 A 
ATOM     24  C   UNL     1      -3.416   0.310  25.148  0.00  0.00    +0.084 A 
ATOM     25  N   UNL     1      -3.489  -0.312  25.685  0.00  0.00    -0.231 NA
ATOM     26  C   UNL     1      -2.854  -0.822  25.814  0.00  0.00    +0.139 A 
ATOM     27  C   UNL     1      -2.927  -1.444  26.351  0.00  0.00    +0.074 C 
ATOM     28  N   UNL     1      -2.146  -0.710  25.405  0.00  0.00    -0.235 NA
BRANCH  24  29
ATOM     29  C   UNL     1      -4.052   0.821  25.019  0.00  0.00    +0.024 A 
ATOM     30  C   UNL     1      -4.692   0.573  24.562  0.00  0.00    +0.036 A 
ATOM     31 BR   UNL     1      -4.697  -0.183  24.233  0.00  0.00    -0.049 Br
ATOM     32  C   UNL     1      -5.328   1.083  24.433  0.00  0.00    +0.007 A 
ATOM     33  C   UNL     1      -5.323   1.840  24.762  0.00  0.00    +0.001 A 
ATOM     34  C   UNL     1      -4.683   2.086  25.219  0.00  0.00    +0.000 A 
ATOM     35  C   UNL     1      -4.047   1.577  25.348  0.00  0.00    +0.002 A 
ENDBRANCH  24  29
ENDBRANCH  21  22
BRANCH  14  13
ATOM     13  C   UNL     1       0.830   0.280  23.075  0.00  0.00    +0.131 C 
BRANCH  13  12
ATOM     10  C   UNL     1       2.195   0.141  22.675  0.00  0.00    +0.265 C 
ATOM     11  O   UNL     1       1.953   0.002  21.899  0.00  0.00    -0.268 OA
ATOM     12  N   UNL     1       1.633   0.280  23.264  0.00  0.00    -0.200 NA
BRANCH  10   7
ATOM      4  C   UNL     1       4.604   0.140  23.240  0.00  0.00    +0.048 A 
ATOM      5  C   UNL     1       4.141  -0.523  23.406  0.00  0.00    +0.015 A 
ATOM      6  C   UNL     1       3.338  -0.523  23.217  0.00  0.00    +0.006 A 
ATOM      7  C   UNL     1       2.998   0.140  22.864  0.00  0.00    +0.055 A 
ATOM      8  C   UNL     1       3.460   0.803  22.699  0.00  0.00    +0.006 A 
ATOM      9  C   UNL     1       4.263   0.803  22.887  0.00  0.00    +0.015 A 
BRANCH   4   2
ATOM      1  C   UNL     1       5.952  -0.198  22.909  0.00  0.00    +0.112 C 
ATOM      2  N   UNL     1       5.407   0.139  23.429  0.00  0.00    -0.304 N 
ATOM      3  C   UNL     1       5.666   0.475  24.137  0.00  0.00    +0.112 C 
ENDBRANCH   4   2
ENDBRANCH  10   7
ENDBRANCH  13  12
ENDBRANCH  14  13
TORSDOF 6
ENDMDL
MODEL 4
REMARK VINA RESULT:      -7.2      2.164      6.998
REMARK  Name = 
REMARK  6 active torsions:
REMARK  status: ('A' for Active; 'I' for Inactive)
REMARK    1  A    between atoms: N_2  and  C_4
REMARK    2  A    between atoms: C_7  and  C_10
REMARK    3  A    between atoms: N_12  and  C_13
REMARK    4  A    between atoms: C_13  and  C_14
REMARK    5  A    between atoms: C_21  and  C_22
REMARK    6  A    between atoms: C_24  and  C_29
REMARK                            x       y       z     vdW  Elec       q    Type
REMARK                         _______ _______ _______ _____ _____    ______ ____
ROOT
ATOM     14  C   UNL     1      -0.400   1.752  24.683  0.00  0.00    +0.079 C 
ATOM     15  C   UNL     1      -0.346   0.987  24.551  0.00  0.00    +0.018 C 
ATOM     16  C   UNL     1       0.203   0.628  24.075  0.00  0.00    +0.010 C 
ATOM     17  C   UNL     1       0.096  -0.262  24.056  0.00  0.00    +0.018 C 
ATOM     18  C   UNL     1      -0.043   0.350  24.237  0.00  0.00    +0.072 C 
ATOM     19  N   UNL     1       0.156   1.379  24.200  0.00  0.00    -0.272 NA
ATOM     20  C   UNL     1       0.844   1.704  23.696  0.00  0.00    +0.078 C 
ATOM     21  C   UNL     1       0.862   0.948  23.593  0.00  0.00    +0.056 C 
ENDROOT
BRANCH  21  22
ATOM     22  C   UNL     1       1.392   0.521  23.125  0.00  0.00    +0.063 A 
ATOM     23  C   UNL     1       2.181   0.452  23.355  0.00  0.00    +0.034 A 
ATOM     24  C   UNL     1       2.709   0.025  22.887  0.00  0.00    +0.084 A 
ATOM     25  N   UNL     1       2.450  -0.332  22.190  0.00  0.00    -0.231 NA
ATOM     26  C   UNL     1       1.660  -0.262  21.961  0.00  0.00    +0.139 A 
ATOM     27  C   UNL     1       1.399  -0.619  21.264  0.00  0.00    +0.074 C 
ATOM     28  N   UNL     1       1.131   0.165  22.429  0.00  0.00    -0.235 NA
BRANCH  24  29
ATOM     29  C   UNL     1       3.500  -0.045  23.116  0.00  0.00    +0.024 A 
ATOM     30  C   UNL     1       4.042   0.542  22.909  0.00  0.00    +0.036 A 
ATOM     31 BR   UNL     1       3.795   1.197  22.474  0.00  0.00    -0.049 Br
ATOM     32  C   UNL     1       4.831   0.472  23.137  0.00  0.00    +0.007 A 
ATOM     33  C   UNL     1       5.078  -0.184  23.572  0.00  0.00    +0.001 A 
ATOM     34  C   UNL     1       4.536  -0.770  23.779  0.00  0.00    +0.000 A 
ATOM     35  C   UNL     1       3.746  -0.701  23.550  0.00  0.00    +0.002 A 
ENDBRANCH  24  29
ENDBRANCH  21  22
BRANCH  14  13
ATOM     13  C   UNL     1      -0.743   2.416  25.031  0.00  0.00    +0.131 C 
BRANCH  13  12
ATOM     10  C   UNL     1      -1.919   3.200  25.237  0.00  0.00    +0.265 C 
ATOM     11  O   UNL     1      -1.456   3.879  25.302  0.00  0.00    -0.268 OA
ATOM     12  N   UNL     1      -1.563   2.468  25.102  0.00  0.00    -0.200 NA
BRANCH  10   7
ATOM      4  C   UNL     1      -4.380   3.355  25.448  0.00  0.00    +0.048 A 
ATOM      5  C   UNL     1      -3.898   3.544  26.091  0.00  0.00    +0.015 A 
ATOM      6  C   UNL     1      -3.078   3.492  26.021  0.00  0.00    +0.006 A 
ATOM      7  C   UNL     1      -2.740   3.251  25.307  0.00  0.00    +0.055 A 
ATOM      8  C   UNL     1      -3.222   3.063  24.665  0.00  0.00    +0.006 A 
ATOM      9  C   UNL     1      -4.042   3.115  24.736  0.00  0.00    +0.015 A 
BRANCH   4   2
ATOM      1  C   UNL     1      -5.645   2.727  25.664  0.00  0.00    +0.112 C 
ATOM      2  N   UNL     1      -5.201   3.407  25.520  0.00  0.00    -0.304 N 
ATOM      3  C   UNL     1      -5.576   4.138  25.447  0.00  0.00    +0.112 C 
ENDBRANCH   4   2
ENDBRANCH  10   7
ENDBRANCH  13  12
ENDBRANCH  14  13
TORSDOF 6
ENDMDL
