REMARK  Name = 
REMARK  8 active torsions:
REMARK  status: ('A' for Active; 'I' for Inactive)
REMARK    1  A    between atoms: O_2  and  C_3
REMARK    2  A    between atoms: C_3  and  C_5
REMARK    3  A    between atoms: N_10  and  S_11
REMARK    4  A    between atoms: S_11  and  C_14
REMARK    5  A    between atoms: C_16  and  C_20
REMARK    6  A    between atoms: N_24  and  C_25
REMARK    7  A    between atoms: C_25  and  C_26
REMARK    8  A    between atoms: C_29  and  O_30
REMARK                            x       y       z     vdW  Elec       q    Type
REMARK                         _______ _______ _______ _____ _____    ______ ____
ROOT
ATOM      5  C   UNL     1       2.070   1.110   0.000  0.00  0.00    +0.184 C 
ATOM      6  C   UNL     1       1.356   0.698   0.000  0.00  0.00    +0.076 C 
ATOM      7  C   UNL     1       0.641   1.110   0.000  0.00  0.00    +0.076 A 
ATOM      8  C   UNL     1       0.641   1.935   0.000  0.00  0.00    +0.070 A 
ATOM      9  C   UNL     1       1.356   2.348   0.000  0.00  0.00    +0.141 C 
ATOM     10  N   UNL     1       2.070   1.935   0.000  0.00  0.00    -0.140 NA
ATOM     24  N   UNL     1      -0.143   2.190   0.000  0.00  0.00    -0.307 N 
ATOM     34  C   UNL     1      -0.628   1.523   0.000  0.00  0.00    +0.178 A 
ATOM     35  N   UNL     1      -0.143   0.856   0.000  0.00  0.00    -0.229 NA
ENDROOT
BRANCH  10  11
ATOM     11  S   UNL     1       2.784   2.348   0.000  0.00  0.00    +0.064 S 
ATOM     12  O   UNL     1       2.372   3.062   0.000  0.00  0.00    -0.153 OA
ATOM     13  O   UNL     1       3.197   1.633   0.000  0.00  0.00    -0.153 OA
BRANCH  11  14
ATOM     14  C   UNL     1       3.499   2.760   0.000  0.00  0.00    +0.122 A 
ATOM     15  C   UNL     1       3.499   3.585   0.000  0.00  0.00    +0.024 A 
ATOM     16  C   UNL     1       4.213   3.998   0.000  0.00  0.00    +0.073 A 
ATOM     17  C   UNL     1       4.928   3.585   0.000  0.00  0.00    +0.004 A 
ATOM     18  C   UNL     1       4.928   2.760   0.000  0.00  0.00    +0.001 A 
ATOM     19  C   UNL     1       4.213   2.348   0.000  0.00  0.00    +0.020 A 
BRANCH  16  20
ATOM     20  C   UNL     1       4.213   4.823   0.000  0.00  0.00    +0.419 C 
ATOM     21  F   UNL     1       4.213   5.648   0.000  0.00  0.00    -0.166 F 
ATOM     22  F   UNL     1       3.389   4.823   0.000  0.00  0.00    -0.166 F 
ATOM     23  F   UNL     1       5.038   4.823   0.000  0.00  0.00    -0.166 F 
ENDBRANCH  16  20
ENDBRANCH  11  14
ENDBRANCH  10  11
BRANCH   5   3
ATOM      3  C   UNL     1       2.784   0.698   0.000  0.00  0.00    +0.334 C 
ATOM      4  O   UNL     1       2.784  -0.127   0.000  0.00  0.00    -0.249 OA
BRANCH   3   2
ATOM      1  C   UNL     1       4.213   0.698   0.000  0.00  0.00    +0.256 C 
ATOM      2  O   UNL     1       3.499   1.110   0.000  0.00  0.00    -0.443 OA
ENDBRANCH   3   2
ENDBRANCH   5   3
BRANCH  24  25
ATOM     25  C   UNL     1      -0.398   2.975   0.000  0.00  0.00    +0.134 C 
BRANCH  25  26
ATOM     26  C   UNL     1       0.154   3.588   0.000  0.00  0.00    +0.001 A 
ATOM     27  C   UNL     1      -0.101   4.373   0.000  0.00  0.00    +0.001 A 
ATOM     28  C   UNL     1       0.451   4.986   0.000  0.00  0.00    +0.037 A 
ATOM     29  C   UNL     1       1.258   4.814   0.000  0.00  0.00    +0.139 A 
ATOM     32  C   UNL     1       1.513   4.030   0.000  0.00  0.00    +0.037 A 
ATOM     33  C   UNL     1       0.961   3.417   0.000  0.00  0.00    +0.001 A 
BRANCH  29  30
ATOM     30  O   UNL     1       1.810   5.427   0.000  0.00  0.00    -0.471 OA
ATOM     31  C   UNL     1       1.555   6.212   0.000  0.00  0.00    +0.252 C 
ENDBRANCH  29  30
ENDBRANCH  25  26
ENDBRANCH  24  25
TORSDOF 8
