MODEL 1
REMARK VINA RESULT:      -9.6      0.000      0.000
REMARK  Name = 
REMARK  4 active torsions:
REMARK  status: ('A' for Active; 'I' for Inactive)
REMARK    1  A    between atoms: N_2  and  C_4
REMARK    2  A    between atoms: C_7  and  C_8
REMARK    3  A    between atoms: C_8  and  N_9
REMARK    4  A    between atoms: C_10  and  C_12
REMARK                            x       y       z     vdW  Elec       q    Type
REMARK                         _______ _______ _______ _____ _____    ______ ____
ROOT
ATOM      8  C   UNL     1      -3.331   1.385  24.783  0.00  0.00    +0.148 C 
ENDROOT
BRANCH   8   7
ATOM      4  C   UNL     1      -1.854   2.889  25.119  0.00  0.00    +0.121 C 
ATOM      5  C   UNL     1      -1.431   2.206  25.305  0.00  0.00    +0.161 C 
ATOM      6  O   UNL     1      -1.932   1.560  25.202  0.00  0.00    -0.350 OA
ATOM      7  C   UNL     1      -2.666   1.843  24.952  0.00  0.00    +0.168 C 
ATOM     19  C   UNL     1      -2.617   2.665  24.901  0.00  0.00    +0.198 C 
ATOM     20  O   UNL     1      -3.225   3.173  24.671  0.00  0.00    -0.219 OA
BRANCH   4   2
ATOM      1  C   UNL     1      -0.912   3.874  24.688  0.00  0.00    +0.090 C 
ATOM      2  N   UNL     1      -1.565   3.661  25.146  0.00  0.00    -0.267 NA
ATOM      3  C   UNL     1      -1.928   4.221  25.631  0.00  0.00    +0.090 C 
ENDBRANCH   4   2
ENDBRANCH   8   7
BRANCH   8   9
ATOM      9  N   UNL     1      -3.266   0.563  24.745  0.00  0.00    -0.199 NA
ATOM     10  C   UNL     1      -3.946   0.098  24.698  0.00  0.00    +0.265 C 
ATOM     11  O   UNL     1      -4.691   0.455  24.688  0.00  0.00    -0.268 OA
BRANCH  10  12
ATOM     12  C   UNL     1      -3.882  -0.724  24.660  0.00  0.00    +0.055 A 
ATOM     13  C   UNL     1      -4.109  -1.124  23.975  0.00  0.00    +0.007 A 
ATOM     14  C   UNL     1      -4.045  -1.945  23.938  0.00  0.00    +0.030 A 
ATOM     15  C   UNL     1      -3.754  -2.367  24.585  0.00  0.00    +0.140 A 
ATOM     16  F   UNL     1      -3.690  -3.189  24.547  0.00  0.00    -0.204 F 
ATOM     17  C   UNL     1      -3.528  -1.966  25.269  0.00  0.00    +0.030 A 
ATOM     18  C   UNL     1      -3.592  -1.145  25.307  0.00  0.00    +0.007 A 
ENDBRANCH  10  12
ENDBRANCH   8   9
TORSDOF 4
ENDMDL
MODEL 2
REMARK VINA RESULT:      -9.5      1.805      2.134
REMARK  Name = 
REMARK  4 active torsions:
REMARK  status: ('A' for Active; 'I' for Inactive)
REMARK    1  A    between atoms: N_2  and  C_4
REMARK    2  A    between atoms: C_7  and  C_8
REMARK    3  A    between atoms: C_8  and  N_9
REMARK    4  A    between atoms: C_10  and  C_12
REMARK                            x       y       z     vdW  Elec       q    Type
REMARK                         _______ _______ _______ _____ _____    ______ ____
ROOT
ATOM      8  C   UNL     1      -4.203   1.046  24.305  0.00  0.00    +0.148 C 
ENDROOT
BRANCH   8   7
ATOM      4  C   UNL     1      -4.937   2.728  25.396  0.00  0.00    +0.121 C 
ATOM      5  C   UNL     1      -5.449   2.134  25.654  0.00  0.00    +0.161 C 
ATOM      6  O   UNL     1      -5.236   1.433  25.277  0.00  0.00    -0.350 OA
ATOM      7  C   UNL     1      -4.593   1.592  24.785  0.00  0.00    +0.168 C 
ATOM     19  C   UNL     1      -4.408   2.392  24.859  0.00  0.00    +0.198 C 
ATOM     20  O   UNL     1      -3.801   2.788  24.464  0.00  0.00    -0.219 OA
BRANCH   4   2
ATOM      1  C   UNL     1      -4.299   3.846  26.017  0.00  0.00    +0.090 C 
ATOM      2  N   UNL     1      -4.952   3.518  25.633  0.00  0.00    -0.267 NA
ATOM      3  C   UNL     1      -5.619   3.981  25.486  0.00  0.00    +0.090 C 
ENDBRANCH   4   2
ENDBRANCH   8   7
BRANCH   8   9
ATOM      9  N   UNL     1      -4.165   0.253  24.529  0.00  0.00    -0.199 NA
ATOM     10  C   UNL     1      -3.777  -0.294  24.047  0.00  0.00    +0.265 C 
ATOM     11  O   UNL     1      -3.429  -0.047  23.341  0.00  0.00    -0.268 OA
BRANCH  10  12
ATOM     12  C   UNL     1      -3.739  -1.087  24.271  0.00  0.00    +0.055 A 
ATOM     13  C   UNL     1      -4.168  -1.654  23.854  0.00  0.00    +0.007 A 
ATOM     14  C   UNL     1      -4.130  -2.447  24.078  0.00  0.00    +0.030 A 
ATOM     15  C   UNL     1      -3.661  -2.673  24.719  0.00  0.00    +0.140 A 
ATOM     16  F   UNL     1      -3.623  -3.466  24.943  0.00  0.00    -0.204 F 
ATOM     17  C   UNL     1      -3.232  -2.105  25.135  0.00  0.00    +0.030 A 
ATOM     18  C   UNL     1      -3.270  -1.312  24.911  0.00  0.00    +0.007 A 
ENDBRANCH  10  12
ENDBRANCH   8   9
TORSDOF 4
ENDMDL
MODEL 3
REMARK VINA RESULT:      -9.2      2.515      5.165
REMARK  Name = 
REMARK  4 active torsions:
REMARK  status: ('A' for Active; 'I' for Inactive)
REMARK    1  A    between atoms: N_2  and  C_4
REMARK    2  A    between atoms: C_7  and  C_8
REMARK    3  A    between atoms: C_8  and  N_9
REMARK    4  A    between atoms: C_10  and  C_12
REMARK                            x       y       z     vdW  Elec       q    Type
REMARK                         _______ _______ _______ _____ _____    ______ ____
ROOT
ATOM      8  C   UNL     1      -1.289   1.117  25.464  0.00  0.00    +0.148 C 
ENDROOT
BRANCH   8   7
ATOM      4  C   UNL     1      -2.359  -0.647  24.914  0.00  0.00    +0.121 C 
ATOM      5  C   UNL     1      -2.628  -0.113  24.345  0.00  0.00    +0.161 C 
ATOM      6  O   UNL     1      -2.260   0.612  24.482  0.00  0.00    -0.350 OA
ATOM      7  C   UNL     1      -1.764   0.527  25.135  0.00  0.00    +0.168 C 
ATOM     19  C   UNL     1      -1.824  -0.251  25.402  0.00  0.00    +0.198 C 
ATOM     20  O   UNL     1      -1.422  -0.576  26.045  0.00  0.00    -0.219 OA
BRANCH   4   2
ATOM      1  C   UNL     1      -3.270  -1.637  25.398  0.00  0.00    +0.090 C 
ATOM      2  N   UNL     1      -2.584  -1.437  24.983  0.00  0.00    -0.267 NA
ATOM      3  C   UNL     1      -2.126  -2.029  24.637  0.00  0.00    +0.090 C 
ENDBRANCH   4   2
ENDBRANCH   8   7
BRANCH   8   9
ATOM      9  N   UNL     1      -1.448   1.911  25.303  0.00  0.00    -0.199 NA
ATOM     10  C   UNL     1      -1.000   2.502  25.664  0.00  0.00    +0.265 C 
ATOM     11  O   UNL     1      -0.393   2.300  26.186  0.00  0.00    -0.268 OA
BRANCH  10  12
ATOM     12  C   UNL     1      -1.158   3.295  25.504  0.00  0.00    +0.055 A 
ATOM     13  C   UNL     1      -1.851   3.643  25.786  0.00  0.00    +0.007 A 
ATOM     14  C   UNL     1      -2.009   4.436  25.626  0.00  0.00    +0.030 A 
ATOM     15  C   UNL     1      -1.475   4.883  25.183  0.00  0.00    +0.140 A 
ATOM     16  F   UNL     1      -1.633   5.677  25.023  0.00  0.00    -0.204 F 
ATOM     17  C   UNL     1      -0.782   4.535  24.901  0.00  0.00    +0.030 A 
ATOM     18  C   UNL     1      -0.624   3.742  25.061  0.00  0.00    +0.007 A 
ENDBRANCH  10  12
ENDBRANCH   8   9
TORSDOF 4
ENDMDL
