MODEL 1
REMARK VINA RESULT:      -8.7      0.000      0.000
REMARK  Name = 
REMARK  5 active torsions:
REMARK  status: ('A' for Active; 'I' for Inactive)
REMARK    1  A    between atoms: C_4  and  C_6
REMARK    2  A    between atoms: C_6  and  O_7
REMARK    3  A    between atoms: O_7  and  C_8
REMARK    4  A    between atoms: N_13  and  C_14
REMARK    5  A    between atoms: C_14  and  C_15
REMARK                            x       y       z     vdW  Elec       q    Type
REMARK                         _______ _______ _______ _____ _____    ______ ____
ROOT
ATOM      8  C   UNL     1      -4.592   1.409  24.770  0.00  0.00    +0.161 C 
ATOM      9  C   UNL     1      -5.216   1.487  25.304  0.00  0.00    +0.173 C 
ATOM     10  O   UNL     1      -5.476   2.165  25.695  0.00  0.00    -0.350 OA
ATOM     11  C   UNL     1      -5.176   2.932  25.650  0.00  0.00    +0.160 C 
ATOM     12  C   UNL     1      -4.543   3.211  25.201  0.00  0.00    +0.105 C 
ATOM     13  N   UNL     1      -4.052   2.791  24.688  0.00  0.00    -0.263 NA
ATOM     21  C   UNL     1      -4.074   1.990  24.496  0.00  0.00    +0.105 C 
ENDROOT
BRANCH   8   7
ATOM      7  O   UNL     1      -4.470   0.649  24.471  0.00  0.00    -0.343 OA
BRANCH   7   6
ATOM      6  C   UNL     1      -4.171   0.056  24.960  0.00  0.00    +0.227 C 
BRANCH   6   4
ATOM      1  C   UNL     1      -3.546  -2.030  24.822  0.00  0.00    +0.115 C 
ATOM      2  N   UNL     1      -3.668  -1.272  25.121  0.00  0.00    -0.274 N 
ATOM      3  C   UNL     1      -3.411  -1.082  25.881  0.00  0.00    +0.115 C 
ATOM      4  C   UNL     1      -4.049  -0.702  24.660  0.00  0.00    +0.256 C 
ATOM      5  O   UNL     1      -4.306  -0.892  23.900  0.00  0.00    -0.272 OA
ENDBRANCH   6   4
ENDBRANCH   7   6
ENDBRANCH   8   7
BRANCH  13  14
ATOM     14  C   UNL     1      -3.461   3.232  24.317  0.00  0.00    +0.119 C 
BRANCH  14  15
ATOM     15  C   UNL     1      -2.767   3.414  24.724  0.00  0.00    +0.075 A 
ATOM     16  N   UNL     1      -2.149   2.868  24.753  0.00  0.00    -0.247 NA
ATOM     17  C   UNL     1      -1.456   3.051  25.160  0.00  0.00    +0.098 A 
ATOM     18  C   UNL     1      -1.378   3.780  25.537  0.00  0.00    +0.021 A 
ATOM     19  C   UNL     1      -1.996   4.327  25.508  0.00  0.00    +0.003 A 
ATOM     20  C   UNL     1      -2.690   4.144  25.101  0.00  0.00    +0.016 A 
ENDBRANCH  14  15
ENDBRANCH  13  14
TORSDOF 5
ENDMDL
MODEL 2
REMARK VINA RESULT:      -8.4      1.964      4.971
REMARK  Name = 
REMARK  5 active torsions:
REMARK  status: ('A' for Active; 'I' for Inactive)
REMARK    1  A    between atoms: C_4  and  C_6
REMARK    2  A    between atoms: C_6  and  O_7
REMARK    3  A    between atoms: O_7  and  C_8
REMARK    4  A    between atoms: N_13  and  C_14
REMARK    5  A    between atoms: C_14  and  C_15
REMARK                            x       y       z     vdW  Elec       q    Type
REMARK                         _______ _______ _______ _____ _____    ______ ____
ROOT
ATOM      8  C   UNL     1      -1.740   0.745  24.719  0.00  0.00    +0.161 C 
ATOM      9  C   UNL     1      -0.933   0.617  24.598  0.00  0.00    +0.173 C 
ATOM     10  O   UNL     1      -0.495  -0.068  24.734  0.00  0.00    -0.350 OA
ATOM     11  C   UNL     1      -0.755  -0.796  25.024  0.00  0.00    +0.160 C 
ATOM     12  C   UNL     1      -1.516  -1.017  25.251  0.00  0.00    +0.105 C 
ATOM     13  N   UNL     1      -2.207  -0.565  25.243  0.00  0.00    -0.263 NA
ATOM     21  C   UNL     1      -2.306   0.218  25.006  0.00  0.00    +0.105 C 
ENDROOT
BRANCH   8   7
ATOM      7  O   UNL     1      -2.015   1.499  24.528  0.00  0.00    -0.343 OA
BRANCH   7   6
ATOM      6  C   UNL     1      -1.835   2.140  25.014  0.00  0.00    +0.227 C 
BRANCH   6   4
ATOM      1  C   UNL     1      -2.306   4.264  25.186  0.00  0.00    +0.115 C 
ATOM      2  N   UNL     1      -1.974   3.525  25.338  0.00  0.00    -0.274 N 
ATOM      3  C   UNL     1      -1.449   3.430  25.967  0.00  0.00    +0.115 C 
ATOM      4  C   UNL     1      -2.167   2.879  24.862  0.00  0.00    +0.256 C 
ATOM      5  O   UNL     1      -2.693   2.973  24.233  0.00  0.00    -0.272 OA
ENDBRANCH   6   4
ENDBRANCH   7   6
ENDBRANCH   8   7
BRANCH  13  14
ATOM     14  C   UNL     1      -2.888  -0.949  25.506  0.00  0.00    +0.119 C 
BRANCH  14  15
ATOM     15  C   UNL     1      -3.316  -1.430  24.990  0.00  0.00    +0.075 A 
ATOM     16  N   UNL     1      -3.840  -1.093  24.449  0.00  0.00    -0.247 NA
ATOM     17  C   UNL     1      -4.267  -1.574  23.934  0.00  0.00    +0.098 A 
ATOM     18  C   UNL     1      -4.171  -2.393  23.958  0.00  0.00    +0.021 A 
ATOM     19  C   UNL     1      -3.646  -2.731  24.499  0.00  0.00    +0.003 A 
ATOM     20  C   UNL     1      -3.219  -2.249  25.015  0.00  0.00    +0.016 A 
ENDBRANCH  14  15
ENDBRANCH  13  14
TORSDOF 5
ENDMDL
MODEL 3
REMARK VINA RESULT:      -8.3      2.016      3.153
REMARK  Name = 
REMARK  5 active torsions:
REMARK  status: ('A' for Active; 'I' for Inactive)
REMARK    1  A    between atoms: C_4  and  C_6
REMARK    2  A    between atoms: C_6  and  O_7
REMARK    3  A    between atoms: O_7  and  C_8
REMARK    4  A    between atoms: N_13  and  C_14
REMARK    5  A    between atoms: C_14  and  C_15
REMARK                            x       y       z     vdW  Elec       q    Type
REMARK                         _______ _______ _______ _____ _____    ______ ____
ROOT
ATOM      8  C   UNL     1      -1.770   2.443  24.859  0.00  0.00    +0.161 C 
ATOM      9  C   UNL     1      -1.337   2.850  25.432  0.00  0.00    +0.173 C 
ATOM     10  O   UNL     1      -1.563   3.508  25.875  0.00  0.00    -0.350 OA
ATOM     11  C   UNL     1      -2.277   3.921  25.856  0.00  0.00    +0.160 C 
ATOM     12  C   UNL     1      -2.941   3.778  25.388  0.00  0.00    +0.105 C 
ATOM     13  N   UNL     1      -3.056   3.187  24.824  0.00  0.00    -0.263 NA
ATOM     21  C   UNL     1      -2.535   2.593  24.589  0.00  0.00    +0.105 C 
ENDROOT
BRANCH   8   7
ATOM      7  O   UNL     1      -1.386   1.800  24.511  0.00  0.00    -0.343 OA
BRANCH   7   6
ATOM      6  C   UNL     1      -1.265   1.109  24.943  0.00  0.00    +0.227 C 
BRANCH   6   4
ATOM      1  C   UNL     1      -0.508  -0.912  24.615  0.00  0.00    +0.115 C 
ATOM      2  N   UNL     1      -0.893  -0.271  24.962  0.00  0.00    -0.274 N 
ATOM      3  C   UNL     1      -1.292  -0.369  25.678  0.00  0.00    +0.115 C 
ATOM      4  C   UNL     1      -0.880   0.468  24.595  0.00  0.00    +0.256 C 
ATOM      5  O   UNL     1      -0.480   0.565  23.880  0.00  0.00    -0.272 OA
ENDBRANCH   6   4
ENDBRANCH   7   6
ENDBRANCH   8   7
BRANCH  13  14
ATOM     14  C   UNL     1      -3.789   3.191  24.446  0.00  0.00    +0.119 C 
BRANCH  14  15
ATOM     15  C   UNL     1      -4.436   2.818  24.796  0.00  0.00    +0.075 A 
ATOM     16  N   UNL     1      -4.853   3.194  25.400  0.00  0.00    -0.247 NA
ATOM     17  C   UNL     1      -5.500   2.821  25.750  0.00  0.00    +0.098 A 
ATOM     18  C   UNL     1      -5.729   2.070  25.497  0.00  0.00    +0.021 A 
ATOM     19  C   UNL     1      -5.312   1.692  24.894  0.00  0.00    +0.003 A 
ATOM     20  C   UNL     1      -4.665   2.066  24.543  0.00  0.00    +0.016 A 
ENDBRANCH  14  15
ENDBRANCH  13  14
TORSDOF 5
ENDMDL
MODEL 4
REMARK VINA RESULT:      -8.0      1.319      3.951
REMARK  Name = 
REMARK  5 active torsions:
REMARK  status: ('A' for Active; 'I' for Inactive)
REMARK    1  A    between atoms: C_4  and  C_6
REMARK    2  A    between atoms: C_6  and  O_7
REMARK    3  A    between atoms: O_7  and  C_8
REMARK    4  A    between atoms: N_13  and  C_14
REMARK    5  A    between atoms: C_14  and  C_15
REMARK                            x       y       z     vdW  Elec       q    Type
REMARK                         _______ _______ _______ _____ _____    ______ ____
ROOT
ATOM      8  C   UNL     1      -4.006   2.732  24.869  0.00  0.00    +0.161 C 
ATOM      9  C   UNL     1      -4.634   2.983  25.342  0.00  0.00    +0.173 C 
ATOM     10  O   UNL     1      -5.278   2.547  25.616  0.00  0.00    -0.350 OA
ATOM     11  C   UNL     1      -5.454   1.751  25.486  0.00  0.00    +0.160 C 
ATOM     12  C   UNL     1      -5.029   1.196  25.049  0.00  0.00    +0.105 C 
ATOM     13  N   UNL     1      -4.323   1.298  24.634  0.00  0.00    -0.263 NA
ATOM     21  C   UNL     1      -3.868   1.982  24.554  0.00  0.00    +0.105 C 
ENDROOT
BRANCH   8   7
ATOM      7  O   UNL     1      -3.443   3.307  24.687  0.00  0.00    -0.343 OA
BRANCH   7   6
ATOM      6  C   UNL     1      -2.803   3.431  25.192  0.00  0.00    +0.227 C 
BRANCH   6   4
ATOM      1  C   UNL     1      -0.947   4.578  25.160  0.00  0.00    +0.115 C 
ATOM      2  N   UNL     1      -1.490   3.980  25.323  0.00  0.00    -0.274 N 
ATOM      3  C   UNL     1      -1.264   3.332  25.780  0.00  0.00    +0.115 C 
ATOM      4  C   UNL     1      -2.259   4.029  25.029  0.00  0.00    +0.256 C 
ATOM      5  O   UNL     1      -2.485   4.678  24.571  0.00  0.00    -0.272 OA
ENDBRANCH   6   4
ENDBRANCH   7   6
ENDBRANCH   8   7
BRANCH  13  14
ATOM     14  C   UNL     1      -4.034   0.629  24.248  0.00  0.00    +0.119 C 
BRANCH  14  15
ATOM     15  C   UNL     1      -3.651   0.039  24.678  0.00  0.00    +0.075 A 
ATOM     16  N   UNL     1      -2.852   0.119  24.869  0.00  0.00    -0.247 NA
ATOM     17  C   UNL     1      -2.470  -0.472  25.299  0.00  0.00    +0.098 A 
ATOM     18  C   UNL     1      -2.885  -1.142  25.540  0.00  0.00    +0.021 A 
ATOM     19  C   UNL     1      -3.684  -1.223  25.349  0.00  0.00    +0.003 A 
ATOM     20  C   UNL     1      -4.067  -0.632  24.918  0.00  0.00    +0.016 A 
ENDBRANCH  14  15
ENDBRANCH  13  14
TORSDOF 5
ENDMDL
