MODEL 1
REMARK VINA RESULT:     -10.7      0.000      0.000
REMARK  Name = 
REMARK  6 active torsions:
REMARK  status: ('A' for Active; 'I' for Inactive)
REMARK    1  A    between atoms: O_2  and  C_3
REMARK    2  A    between atoms: C_9  and  C_10
REMARK    3  A    between atoms: C_10  and  C_11
REMARK    4  A    between atoms: C_16  and  C_17
REMARK    5  A    between atoms: C_17  and  C_18
REMARK    6  A    between atoms: C_21  and  C_23
REMARK                            x       y       z     vdW  Elec       q    Type
REMARK                         _______ _______ _______ _____ _____    ______ ____
ROOT
ATOM     11  C   UNL     1      -3.713   1.256  24.865  0.00  0.00    +0.026 C 
ATOM     12  C   UNL     1      -3.200   0.613  24.820  0.00  0.00    +0.094 C 
ATOM     13  N   UNL     1      -3.503  -0.155  24.792  0.00  0.00    -0.276 N 
ATOM     14  C   UNL     1      -4.318  -0.277  24.809  0.00  0.00    +0.094 C 
ATOM     15  C   UNL     1      -4.831   0.366  24.854  0.00  0.00    +0.022 C 
ATOM     16  C   UNL     1      -4.529   1.133  24.882  0.00  0.00    +0.015 C 
ATOM     21  C   UNL     1      -2.989  -0.799  24.747  0.00  0.00    +0.255 C 
ATOM     22  O   UNL     1      -2.173  -0.676  24.731  0.00  0.00    -0.269 OA
ENDROOT
BRANCH  21  23
ATOM     23  C   UNL     1      -3.291  -1.566  24.719  0.00  0.00    +0.083 A 
ATOM     24  C   UNL     1      -3.639  -1.927  24.064  0.00  0.00    +0.012 A 
ATOM     25  C   UNL     1      -3.862  -2.691  24.281  0.00  0.00    +0.008 A 
ATOM     26  C   UNL     1      -3.652  -2.802  25.071  0.00  0.00    +0.036 A 
ATOM     27  S   UNL     1      -3.300  -2.107  25.342  0.00  0.00    -0.082 S 
ENDBRANCH  21  23
BRANCH  11  10
ATOM     10  C   UNL     1      -3.411   2.024  24.893  0.00  0.00    +0.047 C 
BRANCH  10   9
ATOM      3  C   UNL     1      -1.186   3.996  24.988  0.00  0.00    +0.138 A 
ATOM      4  C   UNL     1      -1.157   3.654  24.237  0.00  0.00    +0.033 A 
ATOM      5  C   UNL     1      -1.706   3.075  24.025  0.00  0.00    -0.016 A 
ATOM      6  C   UNL     1      -2.285   2.838  24.565  0.00  0.00    +0.009 A 
ATOM      7  C   UNL     1      -2.314   3.181  25.315  0.00  0.00    +0.004 A 
ATOM      8  C   UNL     1      -1.765   3.759  25.527  0.00  0.00    +0.037 A 
ATOM      9  C   UNL     1      -2.833   2.260  24.354  0.00  0.00    +0.053 C 
ATOM     28  N   UNL     1      -2.804   1.918  23.604  0.00  0.00    -0.274 NA
ATOM     29  C   UNL     1      -2.225   2.155  23.065  0.00  0.00    +0.130 C 
ATOM     30  C   UNL     1      -1.677   2.733  23.276  0.00  0.00    +0.053 C 
BRANCH   3   2
ATOM      1  C   UNL     1      -0.757   5.358  24.974  0.00  0.00    +0.252 C 
ATOM      2  O   UNL     1      -0.637   4.574  25.199  0.00  0.00    -0.471 OA
ENDBRANCH   3   2
ENDBRANCH  10   9
ENDBRANCH  11  10
BRANCH  16  17
ATOM     17  C   UNL     1      -5.043   1.778  24.926  0.00  0.00    +0.114 C 
BRANCH  17  18
ATOM     18  C   UNL     1      -5.812   1.673  25.205  0.00  0.00    +0.365 C 
ATOM     19  O   UNL     1      -6.428   1.534  24.674  0.00  0.00    -0.246 OA
ATOM     20  O   UNL     1      -5.965   1.708  26.015  0.00  0.00    -0.246 OA
ENDBRANCH  17  18
ENDBRANCH  16  17
TORSDOF 6
ENDMDL
MODEL 2
REMARK VINA RESULT:     -10.7      1.550      4.785
REMARK  Name = 
REMARK  6 active torsions:
REMARK  status: ('A' for Active; 'I' for Inactive)
REMARK    1  A    between atoms: O_2  and  C_3
REMARK    2  A    between atoms: C_9  and  C_10
REMARK    3  A    between atoms: C_10  and  C_11
REMARK    4  A    between atoms: C_16  and  C_17
REMARK    5  A    between atoms: C_17  and  C_18
REMARK    6  A    between atoms: C_21  and  C_23
REMARK                            x       y       z     vdW  Elec       q    Type
REMARK                         _______ _______ _______ _____ _____    ______ ____
ROOT
ATOM     11  C   UNL     1      -3.763   1.073  24.837  0.00  0.00    +0.026 C 
ATOM     12  C   UNL     1      -2.952   1.187  24.743  0.00  0.00    +0.094 C 
ATOM     13  N   UNL     1      -2.625   1.937  24.853  0.00  0.00    -0.276 N 
ATOM     14  C   UNL     1      -3.110   2.572  25.056  0.00  0.00    +0.094 C 
ATOM     15  C   UNL     1      -3.921   2.458  25.150  0.00  0.00    +0.022 C 
ATOM     16  C   UNL     1      -4.248   1.709  25.040  0.00  0.00    +0.015 C 
ATOM     21  C   UNL     1      -1.813   2.050  24.759  0.00  0.00    +0.255 C 
ATOM     22  O   UNL     1      -1.329   1.414  24.556  0.00  0.00    -0.269 OA
ENDROOT
BRANCH  21  23
ATOM     23  C   UNL     1      -1.487   2.799  24.869  0.00  0.00    +0.083 A 
ATOM     24  C   UNL     1      -1.309   3.150  25.594  0.00  0.00    +0.012 A 
ATOM     25  C   UNL     1      -0.992   3.898  25.447  0.00  0.00    +0.008 A 
ATOM     26  C   UNL     1      -0.975   4.009  24.629  0.00  0.00    +0.036 A 
ATOM     27  S   UNL     1      -1.280   3.331  24.272  0.00  0.00    -0.082 S 
ENDBRANCH  21  23
BRANCH  11  10
ATOM     10  C   UNL     1      -4.090   0.324  24.727  0.00  0.00    +0.047 C 
BRANCH  10   9
ATOM      3  C   UNL     1      -3.846  -2.577  24.112  0.00  0.00    +0.138 A 
ATOM      4  C   UNL     1      -3.521  -2.473  24.864  0.00  0.00    +0.033 A 
ATOM      5  C   UNL     1      -3.500  -1.723  25.206  0.00  0.00    -0.016 A 
ATOM      6  C   UNL     1      -3.806  -1.074  24.796  0.00  0.00    +0.009 A 
ATOM      7  C   UNL     1      -4.130  -1.178  24.044  0.00  0.00    +0.004 A 
ATOM      8  C   UNL     1      -4.151  -1.928  23.702  0.00  0.00    +0.037 A 
ATOM      9  C   UNL     1      -3.785  -0.324  25.137  0.00  0.00    +0.053 C 
ATOM     28  N   UNL     1      -3.461  -0.221  25.888  0.00  0.00    -0.274 NA
ATOM     29  C   UNL     1      -3.156  -0.870  26.298  0.00  0.00    +0.130 C 
ATOM     30  C   UNL     1      -3.176  -1.620  25.957  0.00  0.00    +0.053 C 
BRANCH   3   2
ATOM      1  C   UNL     1      -4.527  -3.567  23.340  0.00  0.00    +0.252 C 
ATOM      2  O   UNL     1      -3.866  -3.327  23.771  0.00  0.00    -0.471 OA
ENDBRANCH   3   2
ENDBRANCH  10   9
ENDBRANCH  11  10
BRANCH  16  17
ATOM     17  C   UNL     1      -5.060   1.595  25.134  0.00  0.00    +0.114 C 
BRANCH  17  18
ATOM     18  C   UNL     1      -5.547   2.234  25.319  0.00  0.00    +0.365 C 
ATOM     19  O   UNL     1      -5.687   2.433  26.108  0.00  0.00    -0.246 OA
ATOM     20  O   UNL     1      -5.895   2.677  24.714  0.00  0.00    -0.246 OA
ENDBRANCH  17  18
ENDBRANCH  16  17
TORSDOF 6
ENDMDL
MODEL 3
REMARK VINA RESULT:      -9.9      1.537      2.781
REMARK  Name = 
REMARK  6 active torsions:
REMARK  status: ('A' for Active; 'I' for Inactive)
REMARK    1  A    between atoms: O_2  and  C_3
REMARK    2  A    between atoms: C_9  and  C_10
REMARK    3  A    between atoms: C_10  and  C_11
REMARK    4  A    between atoms: C_16  and  C_17
REMARK    5  A    between atoms: C_17  and  C_18
REMARK    6  A    between atoms: C_21  and  C_23
REMARK                            x       y       z     vdW  Elec       q    Type
REMARK                         _______ _______ _______ _____ _____    ______ ____
ROOT
ATOM     11  C   UNL     1      -1.753   0.486  24.661  0.00  0.00    +0.026 C 
ATOM     12  C   UNL     1      -2.483   0.161  24.862  0.00  0.00    +0.094 C 
ATOM     13  N   UNL     1      -2.625  -0.643  24.740  0.00  0.00    -0.276 N 
ATOM     14  C   UNL     1      -2.035  -1.120  24.417  0.00  0.00    +0.094 C 
ATOM     15  C   UNL     1      -1.305  -0.796  24.216  0.00  0.00    +0.022 C 
ATOM     16  C   UNL     1      -1.163   0.008  24.337  0.00  0.00    +0.015 C 
ATOM     21  C   UNL     1      -3.356  -0.968  24.941  0.00  0.00    +0.255 C 
ATOM     22  O   UNL     1      -3.945  -0.489  25.264  0.00  0.00    -0.269 OA
ENDROOT
BRANCH  21  23
ATOM     23  C   UNL     1      -3.497  -1.771  24.819  0.00  0.00    +0.083 A 
ATOM     24  C   UNL     1      -3.279  -2.385  25.326  0.00  0.00    +0.012 A 
ATOM     25  C   UNL     1      -3.528  -3.096  24.989  0.00  0.00    +0.008 A 
ATOM     26  C   UNL     1      -3.901  -2.921  24.274  0.00  0.00    +0.036 A 
ATOM     27  S   UNL     1      -3.882  -2.103  24.169  0.00  0.00    -0.082 S 
ENDBRANCH  21  23
BRANCH  11  10
ATOM     10  C   UNL     1      -1.611   1.290  24.783  0.00  0.00    +0.047 C 
BRANCH  10   9
ATOM      3  C   UNL     1      -2.099   4.176  25.318  0.00  0.00    +0.138 A 
ATOM      4  C   UNL     1      -2.617   3.964  24.711  0.00  0.00    +0.033 A 
ATOM      5  C   UNL     1      -2.625   3.190  24.425  0.00  0.00    -0.016 A 
ATOM      6  C   UNL     1      -2.114   2.626  24.747  0.00  0.00    +0.009 A 
ATOM      7  C   UNL     1      -1.596   2.838  25.353  0.00  0.00    +0.004 A 
ATOM      8  C   UNL     1      -1.588   3.612  25.639  0.00  0.00    +0.037 A 
ATOM      9  C   UNL     1      -2.122   1.853  24.462  0.00  0.00    +0.053 C 
ATOM     28  N   UNL     1      -2.639   1.642  23.856  0.00  0.00    -0.274 NA
ATOM     29  C   UNL     1      -3.150   2.206  23.534  0.00  0.00    +0.130 C 
ATOM     30  C   UNL     1      -3.142   2.979  23.820  0.00  0.00    +0.053 C 
BRANCH   3   2
ATOM      1  C   UNL     1      -1.648   5.527  25.217  0.00  0.00    +0.252 C 
ATOM      2  O   UNL     1      -2.091   4.949  25.603  0.00  0.00    -0.471 OA
ENDBRANCH   3   2
ENDBRANCH  10   9
ENDBRANCH  11  10
BRANCH  16  17
ATOM     17  C   UNL     1      -0.432   0.333  24.136  0.00  0.00    +0.114 C 
BRANCH  17  18
ATOM     18  C   UNL     1       0.141  -0.135  23.773  0.00  0.00    +0.365 C 
ATOM     19  O   UNL     1       0.293  -0.050  22.966  0.00  0.00    -0.246 OA
ATOM     20  O   UNL     1       0.564  -0.688  24.216  0.00  0.00    -0.246 OA
ENDBRANCH  17  18
ENDBRANCH  16  17
TORSDOF 6
ENDMDL
MODEL 4
REMARK VINA RESULT:      -9.9      1.823      2.965
REMARK  Name = 
REMARK  6 active torsions:
REMARK  status: ('A' for Active; 'I' for Inactive)
REMARK    1  A    between atoms: O_2  and  C_3
REMARK    2  A    between atoms: C_9  and  C_10
REMARK    3  A    between atoms: C_10  and  C_11
REMARK    4  A    between atoms: C_16  and  C_17
REMARK    5  A    between atoms: C_17  and  C_18
REMARK    6  A    between atoms: C_21  and  C_23
REMARK                            x       y       z     vdW  Elec       q    Type
REMARK                         _______ _______ _______ _____ _____    ______ ____
ROOT
ATOM     11  C   UNL     1      -2.352   0.828  24.527  0.00  0.00    +0.026 C 
ATOM     12  C   UNL     1      -3.056   0.405  24.590  0.00  0.00    +0.094 C 
ATOM     13  N   UNL     1      -3.049  -0.419  24.531  0.00  0.00    -0.276 N 
ATOM     14  C   UNL     1      -2.337  -0.817  24.407  0.00  0.00    +0.094 C 
ATOM     15  C   UNL     1      -1.633  -0.393  24.344  0.00  0.00    +0.022 C 
ATOM     16  C   UNL     1      -1.639   0.430  24.404  0.00  0.00    +0.015 C 
ATOM     21  C   UNL     1      -3.753  -0.843  24.594  0.00  0.00    +0.255 C 
ATOM     22  O   UNL     1      -4.465  -0.444  24.717  0.00  0.00    -0.269 OA
ENDROOT
BRANCH  21  23
ATOM     23  C   UNL     1      -3.746  -1.665  24.534  0.00  0.00    +0.083 A 
ATOM     24  C   UNL     1      -3.515  -2.193  25.126  0.00  0.00    +0.012 A 
ATOM     25  C   UNL     1      -3.594  -2.959  24.830  0.00  0.00    +0.008 A 
ATOM     26  C   UNL     1      -3.875  -2.905  24.056  0.00  0.00    +0.036 A 
ATOM     27  S   UNL     1      -3.969  -2.106  23.874  0.00  0.00    -0.082 S 
ENDBRANCH  21  23
BRANCH  11  10
ATOM     10  C   UNL     1      -2.358   1.651  24.586  0.00  0.00    +0.047 C 
BRANCH  10   9
ATOM      3  C   UNL     1      -4.367   3.797  25.052  0.00  0.00    +0.138 A 
ATOM      4  C   UNL     1      -4.344   3.676  24.236  0.00  0.00    +0.033 A 
ATOM      5  C   UNL     1      -3.837   3.110  23.915  0.00  0.00    -0.016 A 
ATOM      6  C   UNL     1      -3.351   2.663  24.411  0.00  0.00    +0.009 A 
ATOM      7  C   UNL     1      -3.373   2.784  25.227  0.00  0.00    +0.004 A 
ATOM      8  C   UNL     1      -3.880   3.350  25.548  0.00  0.00    +0.037 A 
ATOM      9  C   UNL     1      -2.844   2.097  24.091  0.00  0.00    +0.053 C 
ATOM     28  N   UNL     1      -2.822   1.977  23.276  0.00  0.00    -0.274 NA
ATOM     29  C   UNL     1      -3.308   2.424  22.779  0.00  0.00    +0.130 C 
ATOM     30  C   UNL     1      -3.815   2.990  23.099  0.00  0.00    +0.053 C 
BRANCH   3   2
ATOM      1  C   UNL     1      -5.568   4.128  25.749  0.00  0.00    +0.252 C 
ATOM      2  O   UNL     1      -4.873   4.362  25.372  0.00  0.00    -0.471 OA
ENDBRANCH   3   2
ENDBRANCH  10   9
ENDBRANCH  11  10
BRANCH  16  17
ATOM     17  C   UNL     1      -0.935   0.854  24.340  0.00  0.00    +0.114 C 
BRANCH  17  18
ATOM     18  C   UNL     1      -0.219   0.454  24.252  0.00  0.00    +0.365 C 
ATOM     19  O   UNL     1       0.156   0.127  24.910  0.00  0.00    -0.246 OA
ATOM     20  O   UNL     1       0.122   0.380  23.503  0.00  0.00    -0.246 OA
ENDBRANCH  17  18
ENDBRANCH  16  17
TORSDOF 6
ENDMDL
MODEL 5
REMARK VINA RESULT:      -9.8      2.303      3.671
REMARK  Name = 
REMARK  6 active torsions:
REMARK  status: ('A' for Active; 'I' for Inactive)
REMARK    1  A    between atoms: O_2  and  C_3
REMARK    2  A    between atoms: C_9  and  C_10
REMARK    3  A    between atoms: C_10  and  C_11
REMARK    4  A    between atoms: C_16  and  C_17
REMARK    5  A    between atoms: C_17  and  C_18
REMARK    6  A    between atoms: C_21  and  C_23
REMARK                            x       y       z     vdW  Elec       q    Type
REMARK                         _______ _______ _______ _____ _____    ______ ____
ROOT
ATOM     11  C   UNL     1      -2.746   0.232  24.746  0.00  0.00    +0.026 C 
ATOM     12  C   UNL     1      -3.071   0.979  24.615  0.00  0.00    +0.094 C 
ATOM     13  N   UNL     1      -3.849   1.136  24.841  0.00  0.00    -0.276 N 
ATOM     14  C   UNL     1      -4.302   0.545  25.198  0.00  0.00    +0.094 C 
ATOM     15  C   UNL     1      -3.977  -0.201  25.329  0.00  0.00    +0.022 C 
ATOM     16  C   UNL     1      -3.200  -0.358  25.103  0.00  0.00    +0.015 C 
ATOM     21  C   UNL     1      -4.174   1.883  24.711  0.00  0.00    +0.255 C 
ATOM     22  O   UNL     1      -3.721   2.473  24.354  0.00  0.00    -0.269 OA
ENDROOT
BRANCH  21  23
ATOM     23  C   UNL     1      -4.951   2.039  24.937  0.00  0.00    +0.083 A 
ATOM     24  C   UNL     1      -5.632   1.750  24.570  0.00  0.00    +0.012 A 
ATOM     25  C   UNL     1      -6.287   2.044  24.975  0.00  0.00    +0.008 A 
ATOM     26  C   UNL     1      -6.011   2.516  25.594  0.00  0.00    +0.036 A 
ATOM     27  S   UNL     1      -5.187   2.513  25.570  0.00  0.00    -0.082 S 
ENDBRANCH  21  23
BRANCH  11  10
ATOM     10  C   UNL     1      -1.969   0.075  24.520  0.00  0.00    +0.047 C 
BRANCH  10   9
ATOM      3  C   UNL     1       0.752   0.658  23.468  0.00  0.00    +0.138 A 
ATOM      4  C   UNL     1       0.657   1.135  24.134  0.00  0.00    +0.033 A 
ATOM      5  C   UNL     1      -0.047   1.109  24.564  0.00  0.00    -0.016 A 
ATOM      6  C   UNL     1      -0.657   0.605  24.327  0.00  0.00    +0.009 A 
ATOM      7  C   UNL     1      -0.561   0.128  23.661  0.00  0.00    +0.004 A 
ATOM      8  C   UNL     1       0.143   0.154  23.231  0.00  0.00    +0.037 A 
ATOM      9  C   UNL     1      -1.360   0.579  24.757  0.00  0.00    +0.053 C 
ATOM     28  N   UNL     1      -1.455   1.055  25.422  0.00  0.00    -0.274 NA
ATOM     29  C   UNL     1      -0.845   1.560  25.659  0.00  0.00    +0.130 C 
ATOM     30  C   UNL     1      -0.142   1.586  25.230  0.00  0.00    +0.053 C 
BRANCH   3   2
ATOM      1  C   UNL     1       1.739   0.004  22.669  0.00  0.00    +0.252 C 
ATOM      2  O   UNL     1       1.456   0.685  23.038  0.00  0.00    -0.471 OA
ENDBRANCH   3   2
ENDBRANCH  10   9
ENDBRANCH  11  10
BRANCH  16  17
ATOM     17  C   UNL     1      -2.875  -1.105  25.234  0.00  0.00    +0.114 C 
BRANCH  17  18
ATOM     18  C   UNL     1      -3.363  -1.737  25.438  0.00  0.00    +0.365 C 
ATOM     19  O   UNL     1      -3.519  -1.898  26.232  0.00  0.00    -0.246 OA
ATOM     20  O   UNL     1      -3.697  -2.209  24.848  0.00  0.00    -0.246 OA
ENDBRANCH  17  18
ENDBRANCH  16  17
TORSDOF 6
ENDMDL
MODEL 6
REMARK VINA RESULT:      -9.6      2.051      5.015
REMARK  Name = 
REMARK  6 active torsions:
REMARK  status: ('A' for Active; 'I' for Inactive)
REMARK    1  A    between atoms: O_2  and  C_3
REMARK    2  A    between atoms: C_9  and  C_10
REMARK    3  A    between atoms: C_10  and  C_11
REMARK    4  A    between atoms: C_16  and  C_17
REMARK    5  A    between atoms: C_17  and  C_18
REMARK    6  A    between atoms: C_21  and  C_23
REMARK                            x       y       z     vdW  Elec       q    Type
REMARK                         _______ _______ _______ _____ _____    ______ ____
ROOT
ATOM     11  C   UNL     1      -3.569   1.044  24.006  0.00  0.00    +0.026 C 
ATOM     12  C   UNL     1      -4.117   1.228  24.593  0.00  0.00    +0.094 C 
ATOM     13  N   UNL     1      -4.316   2.016  24.740  0.00  0.00    -0.276 N 
ATOM     14  C   UNL     1      -3.964   2.619  24.300  0.00  0.00    +0.094 C 
ATOM     15  C   UNL     1      -3.416   2.435  23.714  0.00  0.00    +0.022 C 
ATOM     16  C   UNL     1      -3.217   1.648  23.566  0.00  0.00    +0.015 C 
ATOM     21  C   UNL     1      -4.865   2.200  25.328  0.00  0.00    +0.255 C 
ATOM     22  O   UNL     1      -5.216   1.596  25.768  0.00  0.00    -0.269 OA
ENDROOT
BRANCH  21  23
ATOM     23  C   UNL     1      -5.063   2.987  25.475  0.00  0.00    +0.083 A 
ATOM     24  C   UNL     1      -4.562   3.563  25.789  0.00  0.00    +0.012 A 
ATOM     25  C   UNL     1      -4.986   4.269  25.843  0.00  0.00    +0.008 A 
ATOM     26  C   UNL     1      -5.749   4.129  25.562  0.00  0.00    +0.036 A 
ATOM     27  S   UNL     1      -5.796   3.337  25.335  0.00  0.00    -0.082 S 
ENDBRANCH  21  23
BRANCH  11  10
ATOM     10  C   UNL     1      -3.370   0.257  23.858  0.00  0.00    +0.047 C 
BRANCH  10   9
ATOM      3  C   UNL     1      -3.684  -2.616  24.562  0.00  0.00    +0.138 A 
ATOM      4  C   UNL     1      -3.193  -2.291  25.140  0.00  0.00    +0.033 A 
ATOM      5  C   UNL     1      -2.992  -1.491  25.109  0.00  0.00    -0.016 A 
ATOM      6  C   UNL     1      -3.282  -1.016  24.499  0.00  0.00    +0.009 A 
ATOM      7  C   UNL     1      -3.772  -1.342  23.921  0.00  0.00    +0.004 A 
ATOM      8  C   UNL     1      -3.974  -2.141  23.951  0.00  0.00    +0.037 A 
ATOM      9  C   UNL     1      -3.081  -0.217  24.468  0.00  0.00    +0.053 C 
ATOM     28  N   UNL     1      -2.591   0.108  25.046  0.00  0.00    -0.274 NA
ATOM     29  C   UNL     1      -2.301  -0.367  25.656  0.00  0.00    +0.130 C 
ATOM     30  C   UNL     1      -2.502  -1.166  25.687  0.00  0.00    +0.053 C 
BRANCH   3   2
ATOM      1  C   UNL     1      -3.945  -3.853  23.897  0.00  0.00    +0.252 C 
ATOM      2  O   UNL     1      -3.885  -3.415  24.593  0.00  0.00    -0.471 OA
ENDBRANCH   3   2
ENDBRANCH  10   9
ENDBRANCH  11  10
BRANCH  16  17
ATOM     17  C   UNL     1      -2.668   1.464  22.978  0.00  0.00    +0.114 C 
BRANCH  17  18
ATOM     18  C   UNL     1      -2.330   2.065  22.527  0.00  0.00    +0.365 C 
ATOM     19  O   UNL     1      -2.654   2.265  21.795  0.00  0.00    -0.246 OA
ATOM     20  O   UNL     1      -1.666   2.469  22.809  0.00  0.00    -0.246 OA
ENDBRANCH  17  18
ENDBRANCH  16  17
TORSDOF 6
ENDMDL
MODEL 7
REMARK VINA RESULT:      -9.5      2.044      3.296
REMARK  Name = 
REMARK  6 active torsions:
REMARK  status: ('A' for Active; 'I' for Inactive)
REMARK    1  A    between atoms: O_2  and  C_3
REMARK    2  A    between atoms: C_9  and  C_10
REMARK    3  A    between atoms: C_10  and  C_11
REMARK    4  A    between atoms: C_16  and  C_17
REMARK    5  A    between atoms: C_17  and  C_18
REMARK    6  A    between atoms: C_21  and  C_23
REMARK                            x       y       z     vdW  Elec       q    Type
REMARK                         _______ _______ _______ _____ _____    ______ ____
ROOT
ATOM     11  C   UNL     1      -3.517  -0.406  24.607  0.00  0.00    +0.026 C 
ATOM     12  C   UNL     1      -2.779  -0.158  24.875  0.00  0.00    +0.094 C 
ATOM     13  N   UNL     1      -2.135  -0.675  24.850  0.00  0.00    -0.276 N 
ATOM     14  C   UNL     1      -2.233  -1.439  24.556  0.00  0.00    +0.094 C 
ATOM     15  C   UNL     1      -2.971  -1.687  24.287  0.00  0.00    +0.022 C 
ATOM     16  C   UNL     1      -3.614  -1.171  24.312  0.00  0.00    +0.015 C 
ATOM     21  C   UNL     1      -1.396  -0.427  25.118  0.00  0.00    +0.255 C 
ATOM     22  O   UNL     1      -1.300   0.338  25.412  0.00  0.00    -0.269 OA
ENDROOT
BRANCH  21  23
ATOM     23  C   UNL     1      -0.754  -0.943  25.093  0.00  0.00    +0.083 A 
ATOM     24  C   UNL     1      -0.583  -1.533  25.645  0.00  0.00    +0.012 A 
ATOM     25  C   UNL     1       0.107  -1.916  25.405  0.00  0.00    +0.008 A 
ATOM     26  C   UNL     1       0.363  -1.563  24.705  0.00  0.00    +0.036 A 
ATOM     27  S   UNL     1      -0.168  -0.962  24.512  0.00  0.00    -0.082 S 
ENDBRANCH  21  23
BRANCH  11  10
ATOM     10  C   UNL     1      -4.160   0.110  24.632  0.00  0.00    +0.047 C 
BRANCH  10   9
ATOM      3  C   UNL     1      -5.408   2.719  25.335  0.00  0.00    +0.138 A 
ATOM      4  C   UNL     1      -4.892   2.872  24.709  0.00  0.00    +0.033 A 
ATOM      5  C   UNL     1      -4.451   2.259  24.376  0.00  0.00    -0.016 A 
ATOM      6  C   UNL     1      -4.526   1.491  24.670  0.00  0.00    +0.009 A 
ATOM      7  C   UNL     1      -5.041   1.337  25.296  0.00  0.00    +0.004 A 
ATOM      8  C   UNL     1      -5.482   1.950  25.629  0.00  0.00    +0.037 A 
ATOM      9  C   UNL     1      -4.086   0.878  24.338  0.00  0.00    +0.053 C 
ATOM     28  N   UNL     1      -3.571   1.031  23.713  0.00  0.00    -0.274 NA
ATOM     29  C   UNL     1      -3.496   1.800  23.419  0.00  0.00    +0.130 C 
ATOM     30  C   UNL     1      -3.936   2.412  23.751  0.00  0.00    +0.053 C 
BRANCH   3   2
ATOM      1  C   UNL     1      -5.549   4.100  25.669  0.00  0.00    +0.252 C 
ATOM      2  O   UNL     1      -5.848   3.331  25.667  0.00  0.00    -0.471 OA
ENDBRANCH   3   2
ENDBRANCH  10   9
ENDBRANCH  11  10
BRANCH  16  17
ATOM     17  C   UNL     1      -4.354  -1.419  24.044  0.00  0.00    +0.114 C 
BRANCH  17  18
ATOM     18  C   UNL     1      -4.460  -2.196  23.789  0.00  0.00    +0.365 C 
ATOM     19  O   UNL     1      -4.512  -2.808  24.339  0.00  0.00    -0.246 OA
ATOM     20  O   UNL     1      -4.515  -2.361  22.981  0.00  0.00    -0.246 OA
ENDBRANCH  17  18
ENDBRANCH  16  17
TORSDOF 6
ENDMDL
MODEL 8
REMARK VINA RESULT:      -9.4      2.130      3.903
REMARK  Name = 
REMARK  6 active torsions:
REMARK  status: ('A' for Active; 'I' for Inactive)
REMARK    1  A    between atoms: O_2  and  C_3
REMARK    2  A    between atoms: C_9  and  C_10
REMARK    3  A    between atoms: C_10  and  C_11
REMARK    4  A    between atoms: C_16  and  C_17
REMARK    5  A    between atoms: C_17  and  C_18
REMARK    6  A    between atoms: C_21  and  C_23
REMARK                            x       y       z     vdW  Elec       q    Type
REMARK                         _______ _______ _______ _____ _____    ______ ____
ROOT
ATOM     11  C   UNL     1      -2.170   2.080  24.865  0.00  0.00    +0.026 C 
ATOM     12  C   UNL     1      -2.816   1.599  24.692  0.00  0.00    +0.094 C 
ATOM     13  N   UNL     1      -3.580   1.852  24.875  0.00  0.00    -0.276 N 
ATOM     14  C   UNL     1      -3.697   2.587  25.231  0.00  0.00    +0.094 C 
ATOM     15  C   UNL     1      -3.051   3.068  25.403  0.00  0.00    +0.022 C 
ATOM     16  C   UNL     1      -2.287   2.816  25.221  0.00  0.00    +0.015 C 
ATOM     21  C   UNL     1      -4.227   1.369  24.702  0.00  0.00    +0.255 C 
ATOM     22  O   UNL     1      -4.109   0.634  24.347  0.00  0.00    -0.269 OA
ENDROOT
BRANCH  21  23
ATOM     23  C   UNL     1      -4.990   1.622  24.885  0.00  0.00    +0.083 A 
ATOM     24  C   UNL     1      -5.449   2.142  24.438  0.00  0.00    +0.012 A 
ATOM     25  C   UNL     1      -6.172   2.242  24.824  0.00  0.00    +0.008 A 
ATOM     26  C   UNL     1      -6.159   1.782  25.509  0.00  0.00    +0.036 A 
ATOM     27  S   UNL     1      -5.430   1.400  25.547  0.00  0.00    -0.082 S 
ENDBRANCH  21  23
BRANCH  11  10
ATOM     10  C   UNL     1      -1.406   1.828  24.682  0.00  0.00    +0.047 C 
BRANCH  10   9
ATOM      3  C   UNL     1       0.425  -0.125  23.384  0.00  0.00    +0.138 A 
ATOM      4  C   UNL     1       0.127  -0.501  24.055  0.00  0.00    +0.033 A 
ATOM      5  C   UNL     1      -0.405  -0.107  24.548  0.00  0.00    -0.016 A 
ATOM      6  C   UNL     1      -0.640   0.664  24.369  0.00  0.00    +0.009 A 
ATOM      7  C   UNL     1      -0.342   1.040  23.698  0.00  0.00    +0.004 A 
ATOM      8  C   UNL     1       0.190   0.646  23.205  0.00  0.00    +0.037 A 
ATOM      9  C   UNL     1      -1.172   1.058  24.861  0.00  0.00    +0.053 C 
ATOM     28  N   UNL     1      -1.469   0.682  25.532  0.00  0.00    -0.274 NA
ATOM     29  C   UNL     1      -1.234  -0.090  25.711  0.00  0.00    +0.130 C 
ATOM     30  C   UNL     1      -0.703  -0.483  25.219  0.00  0.00    +0.053 C 
BRANCH   3   2
ATOM      1  C   UNL     1       1.600  -0.115  22.573  0.00  0.00    +0.252 C 
ATOM      2  O   UNL     1       0.956  -0.519  22.892  0.00  0.00    -0.471 OA
ENDBRANCH   3   2
ENDBRANCH  10   9
ENDBRANCH  11  10
BRANCH  16  17
ATOM     17  C   UNL     1      -1.640   3.299  25.394  0.00  0.00    +0.114 C 
BRANCH  17  18
ATOM     18  C   UNL     1      -1.749   4.108  25.507  0.00  0.00    +0.365 C 
ATOM     19  O   UNL     1      -1.550   4.640  24.909  0.00  0.00    -0.246 OA
ATOM     20  O   UNL     1      -2.057   4.387  26.221  0.00  0.00    -0.246 OA
ENDBRANCH  17  18
ENDBRANCH  16  17
TORSDOF 6
ENDMDL
MODEL 9
REMARK VINA RESULT:      -9.2      1.958      5.067
REMARK  Name = 
REMARK  6 active torsions:
REMARK  status: ('A' for Active; 'I' for Inactive)
REMARK    1  A    between atoms: O_2  and  C_3
REMARK    2  A    between atoms: C_9  and  C_10
REMARK    3  A    between atoms: C_10  and  C_11
REMARK    4  A    between atoms: C_16  and  C_17
REMARK    5  A    between atoms: C_17  and  C_18
REMARK    6  A    between atoms: C_21  and  C_23
REMARK                            x       y       z     vdW  Elec       q    Type
REMARK                         _______ _______ _______ _____ _____    ______ ____
ROOT
ATOM     11  C   UNL     1      -2.520   1.613  23.827  0.00  0.00    +0.026 C 
ATOM     12  C   UNL     1      -2.244   1.970  24.516  0.00  0.00    +0.094 C 
ATOM     13  N   UNL     1      -2.019   2.765  24.508  0.00  0.00    -0.276 N 
ATOM     14  C   UNL     1      -2.070   3.200  23.810  0.00  0.00    +0.094 C 
ATOM     15  C   UNL     1      -2.346   2.843  23.120  0.00  0.00    +0.022 C 
ATOM     16  C   UNL     1      -2.571   2.050  23.128  0.00  0.00    +0.015 C 
ATOM     21  C   UNL     1      -1.743   3.122  25.199  0.00  0.00    +0.255 C 
ATOM     22  O   UNL     1      -1.692   2.685  25.897  0.00  0.00    -0.269 OA
ENDROOT
BRANCH  21  23
ATOM     23  C   UNL     1      -1.518   3.915  25.191  0.00  0.00    +0.083 A 
ATOM     24  C   UNL     1      -0.772   4.206  24.991  0.00  0.00    +0.012 A 
ATOM     25  C   UNL     1      -0.792   5.029  25.058  0.00  0.00    +0.008 A 
ATOM     26  C   UNL     1      -1.551   5.246  25.299  0.00  0.00    +0.036 A 
ATOM     27  S   UNL     1      -1.999   4.558  25.381  0.00  0.00    -0.082 S 
ENDBRANCH  21  23
BRANCH  11  10
ATOM     10  C   UNL     1      -2.745   0.820  23.834  0.00  0.00    +0.047 C 
BRANCH  10   9
ATOM      3  C   UNL     1      -3.407  -1.781  25.119  0.00  0.00    +0.138 A 
ATOM      4  C   UNL     1      -3.993  -1.251  25.358  0.00  0.00    +0.033 A 
ATOM      5  C   UNL     1      -3.975  -0.468  25.096  0.00  0.00    -0.016 A 
ATOM      6  C   UNL     1      -3.369  -0.215  24.596  0.00  0.00    +0.009 A 
ATOM      7  C   UNL     1      -2.783  -0.745  24.357  0.00  0.00    +0.004 A 
ATOM      8  C   UNL     1      -2.801  -1.527  24.619  0.00  0.00    +0.037 A 
ATOM      9  C   UNL     1      -3.350   0.567  24.334  0.00  0.00    +0.053 C 
ATOM     28  N   UNL     1      -3.936   1.095  24.573  0.00  0.00    -0.274 NA
ATOM     29  C   UNL     1      -4.542   0.842  25.073  0.00  0.00    +0.130 C 
ATOM     30  C   UNL     1      -4.561   0.060  25.335  0.00  0.00    +0.053 C 
BRANCH   3   2
ATOM      1  C   UNL     1      -3.333  -3.180  24.842  0.00  0.00    +0.252 C 
ATOM      2  O   UNL     1      -3.426  -2.562  25.381  0.00  0.00    -0.471 OA
ENDBRANCH   3   2
ENDBRANCH  10   9
ENDBRANCH  11  10
BRANCH  16  17
ATOM     17  C   UNL     1      -2.847   1.692  22.437  0.00  0.00    +0.114 C 
BRANCH  17  18
ATOM     18  C   UNL     1      -2.744   2.067  21.710  0.00  0.00    +0.365 C 
ATOM     19  O   UNL     1      -2.125   1.841  21.213  0.00  0.00    -0.246 OA
ATOM     20  O   UNL     1      -3.261   2.668  21.478  0.00  0.00    -0.246 OA
ENDBRANCH  17  18
ENDBRANCH  16  17
TORSDOF 6
ENDMDL
MODEL 10
REMARK VINA RESULT:      -9.0      1.911      5.200
REMARK  Name = 
REMARK  6 active torsions:
REMARK  status: ('A' for Active; 'I' for Inactive)
REMARK    1  A    between atoms: O_2  and  C_3
REMARK    2  A    between atoms: C_9  and  C_10
REMARK    3  A    between atoms: C_10  and  C_11
REMARK    4  A    between atoms: C_16  and  C_17
REMARK    5  A    between atoms: C_17  and  C_18
REMARK    6  A    between atoms: C_21  and  C_23
REMARK                            x       y       z     vdW  Elec       q    Type
REMARK                         _______ _______ _______ _____ _____    ______ ____
ROOT
ATOM     11  C   UNL     1      -2.178   0.746  24.798  0.00  0.00    +0.026 C 
ATOM     12  C   UNL     1      -2.951   1.027  24.756  0.00  0.00    +0.094 C 
ATOM     13  N   UNL     1      -3.100   1.838  24.804  0.00  0.00    -0.276 N 
ATOM     14  C   UNL     1      -2.473   2.366  24.895  0.00  0.00    +0.094 C 
ATOM     15  C   UNL     1      -1.700   2.086  24.937  0.00  0.00    +0.022 C 
ATOM     16  C   UNL     1      -1.551   1.276  24.889  0.00  0.00    +0.015 C 
ATOM     21  C   UNL     1      -3.875   2.118  24.761  0.00  0.00    +0.255 C 
ATOM     22  O   UNL     1      -4.501   1.588  24.670  0.00  0.00    -0.269 OA
ENDROOT
BRANCH  21  23
ATOM     23  C   UNL     1      -4.023   2.928  24.809  0.00  0.00    +0.083 A 
ATOM     24  C   UNL     1      -3.937   3.475  24.197  0.00  0.00    +0.012 A 
ATOM     25  C   UNL     1      -4.143   4.219  24.487  0.00  0.00    +0.008 A 
ATOM     26  C   UNL     1      -4.357   4.132  25.279  0.00  0.00    +0.036 A 
ATOM     27  S   UNL     1      -4.283   3.335  25.478  0.00  0.00    -0.082 S 
ENDBRANCH  21  23
BRANCH  11  10
ATOM     10  C   UNL     1      -2.029  -0.064  24.750  0.00  0.00    +0.047 C 
BRANCH  10   9
ATOM      3  C   UNL     1      -3.518  -2.601  24.311  0.00  0.00    +0.138 A 
ATOM      4  C   UNL     1      -3.552  -2.453  25.122  0.00  0.00    +0.033 A 
ATOM      5  C   UNL     1      -3.188  -1.782  25.435  0.00  0.00    -0.016 A 
ATOM      6  C   UNL     1      -2.790  -1.258  24.936  0.00  0.00    +0.009 A 
ATOM      7  C   UNL     1      -2.757  -1.406  24.125  0.00  0.00    +0.004 A 
ATOM      8  C   UNL     1      -3.120  -2.077  23.811  0.00  0.00    +0.037 A 
ATOM      9  C   UNL     1      -2.426  -0.587  25.248  0.00  0.00    +0.053 C 
ATOM     28  N   UNL     1      -2.460  -0.439  26.059  0.00  0.00    -0.274 NA
ATOM     29  C   UNL     1      -2.858  -0.963  26.558  0.00  0.00    +0.130 C 
ATOM     30  C   UNL     1      -3.222  -1.634  26.245  0.00  0.00    +0.053 C 
BRANCH   3   2
ATOM      1  C   UNL     1      -4.521  -3.193  23.483  0.00  0.00    +0.252 C 
ATOM      2  O   UNL     1      -3.882  -3.272  23.998  0.00  0.00    -0.471 OA
ENDBRANCH   3   2
ENDBRANCH  10   9
ENDBRANCH  11  10
BRANCH  16  17
ATOM     17  C   UNL     1      -0.776   0.995  24.932  0.00  0.00    +0.114 C 
BRANCH  17  18
ATOM     18  C   UNL     1      -0.144   1.521  24.874  0.00  0.00    +0.365 C 
ATOM     19  O   UNL     1       0.207   1.666  24.141  0.00  0.00    -0.246 OA
ATOM     20  O   UNL     1       0.139   1.902  25.550  0.00  0.00    -0.246 OA
ENDBRANCH  17  18
ENDBRANCH  16  17
TORSDOF 6
ENDMDL
