MODEL 1
REMARK VINA RESULT:     -11.2      0.000      0.000
REMARK  Name = 
REMARK  9 active torsions:
REMARK  status: ('A' for Active; 'I' for Inactive)
REMARK    1  A    between atoms: C_2  and  C_4
REMARK    2  A    between atoms: C_6  and  C_7
REMARK    3  A    between atoms: C_7  and  C_8
REMARK    4  A    between atoms: N_10  and  C_11
REMARK    5  A    between atoms: C_11  and  C_12
REMARK    6  A    between atoms: C_17  and  C_18
REMARK    7  A    between atoms: C_18  and  N_19
REMARK    8  A    between atoms: N_19  and  S_20
REMARK    9  A    between atoms: S_20  and  C_23
REMARK                            x       y       z     vdW  Elec       q    Type
REMARK                         _______ _______ _______ _____ _____    ______ ____
ROOT
ATOM      4  C   UNL     1      -3.216   2.117  24.148  0.00  0.00    +0.006 C 
ATOM      5  C   UNL     1      -3.216   2.913  24.367  0.00  0.00    +0.005 C 
ATOM      6  C   UNL     1      -3.791   3.198  24.887  0.00  0.00    +0.027 C 
ATOM     14  C   UNL     1      -4.365   2.687  25.188  0.00  0.00    -0.048 C 
ATOM     15  C   UNL     1      -4.938   2.971  25.707  0.00  0.00    +0.026 C 
ATOM     16  C   UNL     1      -4.364   1.892  24.968  0.00  0.00    -0.033 C 
ATOM     17  C   UNL     1      -3.790   1.606  24.448  0.00  0.00    +0.041 C 
ENDROOT
BRANCH   4   2
ATOM      1  C   UNL     1      -2.787   1.832  22.816  0.00  0.00    +0.000 C 
ATOM      2  C   UNL     1      -2.642   1.833  23.628  0.00  0.00    +0.000 C 
ATOM      3  C   UNL     1      -1.924   1.552  23.920  0.00  0.00    +0.000 C 
ENDBRANCH   4   2
BRANCH   6   7
ATOM      7  C   UNL     1      -3.791   3.993  25.105  0.00  0.00    +0.091 C 
BRANCH   7   8
ATOM      8  C   UNL     1      -3.137   4.313  25.493  0.00  0.00    +0.243 C 
ATOM      9  O   UNL     1      -3.034   4.189  26.302  0.00  0.00    -0.273 OA
ATOM     10  N   UNL     1      -2.585   4.758  25.070  0.00  0.00    -0.191 NA
BRANCH  10  11
ATOM     11  C   UNL     1      -1.930   5.078  25.457  0.00  0.00    +0.191 C 
BRANCH  11  12
ATOM     12  C   UNL     1      -1.231   5.216  25.040  0.00  0.00    -0.054 C 
ATOM     13  C   UNL     1      -0.533   5.354  24.623  0.00  0.00    -0.012 C 
ENDBRANCH  11  12
ENDBRANCH  10  11
ENDBRANCH   7   8
ENDBRANCH   6   7
BRANCH  17  18
ATOM     18  C   UNL     1      -3.789   0.812  24.229  0.00  0.00    +0.120 C 
BRANCH  18  19
ATOM     19  N   UNL     1      -4.268   0.273  24.631  0.00  0.00    -0.077 NA
BRANCH  19  20
ATOM     20  S   UNL     1      -4.114  -0.535  24.578  0.00  0.00    +0.077 S 
ATOM     21  O   UNL     1      -3.774  -0.521  25.329  0.00  0.00    -0.152 OA
ATOM     22  O   UNL     1      -4.454  -0.551  23.826  0.00  0.00    -0.152 OA
BRANCH  20  23
ATOM     23  C   UNL     1      -3.959  -1.344  24.524  0.00  0.00    +0.124 A 
ATOM     24  C   UNL     1      -3.523  -1.721  25.114  0.00  0.00    +0.020 A 
ATOM     25  C   UNL     1      -3.369  -2.529  25.060  0.00  0.00    -0.003 A 
ATOM     26  C   UNL     1      -3.651  -2.962  24.416  0.00  0.00    -0.022 A 
ATOM     27  C   UNL     1      -3.497  -3.770  24.362  0.00  0.00    +0.031 C 
ATOM     28  C   UNL     1      -4.087  -2.585  23.826  0.00  0.00    -0.003 A 
ATOM     29  C   UNL     1      -4.242  -1.775  23.880  0.00  0.00    +0.020 A 
ENDBRANCH  20  23
ENDBRANCH  19  20
ENDBRANCH  18  19
ENDBRANCH  17  18
TORSDOF 9
ENDMDL
MODEL 2
REMARK VINA RESULT:     -10.0      1.857      5.925
REMARK  Name = 
REMARK  9 active torsions:
REMARK  status: ('A' for Active; 'I' for Inactive)
REMARK    1  A    between atoms: C_2  and  C_4
REMARK    2  A    between atoms: C_6  and  C_7
REMARK    3  A    between atoms: C_7  and  C_8
REMARK    4  A    between atoms: N_10  and  C_11
REMARK    5  A    between atoms: C_11  and  C_12
REMARK    6  A    between atoms: C_17  and  C_18
REMARK    7  A    between atoms: C_18  and  N_19
REMARK    8  A    between atoms: N_19  and  S_20
REMARK    9  A    between atoms: S_20  and  C_23
REMARK                            x       y       z     vdW  Elec       q    Type
REMARK                         _______ _______ _______ _____ _____    ______ ____
ROOT
ATOM      4  C   UNL     1      -2.695   0.360  24.853  0.00  0.00    +0.006 C 
ATOM      5  C   UNL     1      -2.735  -0.458  24.962  0.00  0.00    +0.005 C 
ATOM      6  C   UNL     1      -2.116  -0.855  25.338  0.00  0.00    +0.027 C 
ATOM     14  C   UNL     1      -1.458  -0.435  25.604  0.00  0.00    -0.048 C 
ATOM     15  C   UNL     1      -0.840  -0.831  25.979  0.00  0.00    +0.026 C 
ATOM     16  C   UNL     1      -1.418   0.382  25.495  0.00  0.00    -0.033 C 
ATOM     17  C   UNL     1      -2.036   0.780  25.119  0.00  0.00    +0.041 C 
ENDROOT
BRANCH   4   2
ATOM      1  C   UNL     1      -3.277   0.901  23.667  0.00  0.00    +0.000 C 
ATOM      2  C   UNL     1      -3.313   0.756  24.478  0.00  0.00    +0.000 C 
ATOM      3  C   UNL     1      -3.968   1.007  24.913  0.00  0.00    +0.000 C 
ENDBRANCH   4   2
BRANCH   6   7
ATOM      7  C   UNL     1      -2.156  -1.671  25.446  0.00  0.00    +0.091 C 
BRANCH   7   8
ATOM      8  C   UNL     1      -2.363  -2.161  24.815  0.00  0.00    +0.243 C 
ATOM      9  O   UNL     1      -1.813  -2.323  24.221  0.00  0.00    -0.273 OA
ATOM     10  N   UNL     1      -3.120  -2.488  24.778  0.00  0.00    -0.191 NA
BRANCH  10  11
ATOM     11  C   UNL     1      -3.326  -2.977  24.146  0.00  0.00    +0.191 C 
BRANCH  11  12
ATOM     12  C   UNL     1      -4.093  -2.956  23.842  0.00  0.00    -0.054 C 
ATOM     13  C   UNL     1      -4.860  -2.935  23.538  0.00  0.00    -0.012 C 
ENDBRANCH  11  12
ENDBRANCH  10  11
ENDBRANCH   7   8
ENDBRANCH   6   7
BRANCH  17  18
ATOM     18  C   UNL     1      -1.997   1.596  25.010  0.00  0.00    +0.120 C 
BRANCH  18  19
ATOM     19  N   UNL     1      -1.362   2.023  25.320  0.00  0.00    -0.077 NA
BRANCH  19  20
ATOM     20  S   UNL     1      -1.338   2.843  25.237  0.00  0.00    +0.077 S 
ATOM     21  O   UNL     1      -1.668   2.929  25.988  0.00  0.00    -0.152 OA
ATOM     22  O   UNL     1      -1.007   2.757  24.485  0.00  0.00    -0.152 OA
BRANCH  20  23
ATOM     23  C   UNL     1      -1.313   3.664  25.153  0.00  0.00    +0.124 A 
ATOM     24  C   UNL     1      -0.657   4.024  24.806  0.00  0.00    +0.020 A 
ATOM     25  C   UNL     1      -0.632   4.843  24.723  0.00  0.00    -0.003 A 
ATOM     26  C   UNL     1      -1.264   5.305  24.987  0.00  0.00    -0.022 A 
ATOM     27  C   UNL     1      -1.239   6.124  24.904  0.00  0.00    +0.031 C 
ATOM     28  C   UNL     1      -1.920   4.945  25.334  0.00  0.00    -0.003 A 
ATOM     29  C   UNL     1      -1.945   4.124  25.417  0.00  0.00    +0.020 A 
ENDBRANCH  20  23
ENDBRANCH  19  20
ENDBRANCH  18  19
ENDBRANCH  17  18
TORSDOF 9
ENDMDL
MODEL 3
REMARK VINA RESULT:      -9.7      1.445      2.055
REMARK  Name = 
REMARK  9 active torsions:
REMARK  status: ('A' for Active; 'I' for Inactive)
REMARK    1  A    between atoms: C_2  and  C_4
REMARK    2  A    between atoms: C_6  and  C_7
REMARK    3  A    between atoms: C_7  and  C_8
REMARK    4  A    between atoms: N_10  and  C_11
REMARK    5  A    between atoms: C_11  and  C_12
REMARK    6  A    between atoms: C_17  and  C_18
REMARK    7  A    between atoms: C_18  and  N_19
REMARK    8  A    between atoms: N_19  and  S_20
REMARK    9  A    between atoms: S_20  and  C_23
REMARK                            x       y       z     vdW  Elec       q    Type
REMARK                         _______ _______ _______ _____ _____    ______ ____
ROOT
ATOM      4  C   UNL     1      -2.331   1.977  24.784  0.00  0.00    +0.006 C 
ATOM      5  C   UNL     1      -1.844   2.616  24.974  0.00  0.00    +0.005 C 
ATOM      6  C   UNL     1      -1.145   2.492  25.396  0.00  0.00    +0.027 C 
ATOM     14  C   UNL     1      -0.934   1.729  25.629  0.00  0.00    -0.048 C 
ATOM     15  C   UNL     1      -0.237   1.605  26.051  0.00  0.00    +0.026 C 
ATOM     16  C   UNL     1      -1.422   1.091  25.439  0.00  0.00    -0.033 C 
ATOM     17  C   UNL     1      -2.120   1.214  25.017  0.00  0.00    +0.041 C 
ENDROOT
BRANCH   4   2
ATOM      1  C   UNL     1      -3.024   2.055  23.538  0.00  0.00    +0.000 C 
ATOM      2  C   UNL     1      -3.028   2.102  24.362  0.00  0.00    +0.000 C 
ATOM      3  C   UNL     1      -3.729   2.274  24.762  0.00  0.00    +0.000 C 
ENDBRANCH   4   2
BRANCH   6   7
ATOM      7  C   UNL     1      -0.659   3.131  25.585  0.00  0.00    +0.091 C 
BRANCH   7   8
ATOM      8  C   UNL     1      -0.621   3.782  25.081  0.00  0.00    +0.243 C 
ATOM      9  O   UNL     1      -0.243   3.718  24.351  0.00  0.00    -0.273 OA
ATOM     10  N   UNL     1      -0.962   4.499  25.308  0.00  0.00    -0.191 NA
BRANCH  10  11
ATOM     11  C   UNL     1      -0.925   5.151  24.803  0.00  0.00    +0.191 C 
BRANCH  11  12
ATOM     12  C   UNL     1      -1.469   5.767  24.883  0.00  0.00    -0.054 C 
ATOM     13  C   UNL     1      -2.013   6.381  24.964  0.00  0.00    -0.012 C 
ENDBRANCH  11  12
ENDBRANCH  10  11
ENDBRANCH   7   8
ENDBRANCH   6   7
BRANCH  17  18
ATOM     18  C   UNL     1      -2.606   0.576  24.827  0.00  0.00    +0.120 C 
BRANCH  18  19
ATOM     19  N   UNL     1      -2.474  -0.160  25.175  0.00  0.00    -0.077 NA
BRANCH  19  20
ATOM     20  S   UNL     1      -2.871  -0.826  24.893  0.00  0.00    +0.077 S 
ATOM     21  O   UNL     1      -2.297  -0.921  24.309  0.00  0.00    -0.152 OA
ATOM     22  O   UNL     1      -3.446  -0.731  25.478  0.00  0.00    -0.152 OA
BRANCH  20  23
ATOM     23  C   UNL     1      -3.269  -1.492  24.611  0.00  0.00    +0.124 A 
ATOM     24  C   UNL     1      -3.033  -2.245  24.852  0.00  0.00    +0.020 A 
ATOM     25  C   UNL     1      -3.431  -2.911  24.571  0.00  0.00    -0.003 A 
ATOM     26  C   UNL     1      -4.063  -2.824  24.048  0.00  0.00    -0.022 A 
ATOM     27  C   UNL     1      -4.460  -3.489  23.766  0.00  0.00    +0.031 C 
ATOM     28  C   UNL     1      -4.298  -2.071  23.807  0.00  0.00    -0.003 A 
ATOM     29  C   UNL     1      -3.901  -1.404  24.089  0.00  0.00    +0.020 A 
ENDBRANCH  20  23
ENDBRANCH  19  20
ENDBRANCH  18  19
ENDBRANCH  17  18
TORSDOF 9
ENDMDL
MODEL 4
REMARK VINA RESULT:      -9.5      2.886      4.868
REMARK  Name = 
REMARK  9 active torsions:
REMARK  status: ('A' for Active; 'I' for Inactive)
REMARK    1  A    between atoms: C_2  and  C_4
REMARK    2  A    between atoms: C_6  and  C_7
REMARK    3  A    between atoms: C_7  and  C_8
REMARK    4  A    between atoms: N_10  and  C_11
REMARK    5  A    between atoms: C_11  and  C_12
REMARK    6  A    between atoms: C_17  and  C_18
REMARK    7  A    between atoms: C_18  and  N_19
REMARK    8  A    between atoms: N_19  and  S_20
REMARK    9  A    between atoms: S_20  and  C_23
REMARK                            x       y       z     vdW  Elec       q    Type
REMARK                         _______ _______ _______ _____ _____    ______ ____
ROOT
ATOM      4  C   UNL     1      -0.606   1.300  24.227  0.00  0.00    +0.006 C 
ATOM      5  C   UNL     1       0.067   0.865  24.029  0.00  0.00    +0.005 C 
ATOM      6  C   UNL     1       0.011   0.049  23.912  0.00  0.00    +0.027 C 
ATOM     14  C   UNL     1      -0.717  -0.331  23.993  0.00  0.00    -0.048 C 
ATOM     15  C   UNL     1      -0.772  -1.145  23.875  0.00  0.00    +0.026 C 
ATOM     16  C   UNL     1      -1.389   0.105  24.191  0.00  0.00    -0.033 C 
ATOM     17  C   UNL     1      -1.334   0.920  24.308  0.00  0.00    +0.041 C 
ENDROOT
BRANCH   4   2
ATOM      1  C   UNL     1      -0.370   2.411  25.093  0.00  0.00    +0.000 C 
ATOM      2  C   UNL     1      -0.550   2.114  24.344  0.00  0.00    +0.000 C 
ATOM      3  C   UNL     1      -0.674   2.632  23.714  0.00  0.00    +0.000 C 
ENDBRANCH   4   2
BRANCH   6   7
ATOM      7  C   UNL     1       0.684  -0.385  23.714  0.00  0.00    +0.091 C 
BRANCH   7   8
ATOM      8  C   UNL     1       1.141  -0.163  23.064  0.00  0.00    +0.243 C 
ATOM      9  O   UNL     1       0.801  -0.129  22.313  0.00  0.00    -0.273 OA
ATOM     10  N   UNL     1       1.938   0.026  23.166  0.00  0.00    -0.191 NA
BRANCH  10  11
ATOM     11  C   UNL     1       2.395   0.248  22.516  0.00  0.00    +0.191 C 
BRANCH  11  12
ATOM     12  C   UNL     1       3.172   0.505  22.627  0.00  0.00    -0.054 C 
ATOM     13  C   UNL     1       3.948   0.762  22.738  0.00  0.00    -0.012 C 
ENDBRANCH  11  12
ENDBRANCH  10  11
ENDBRANCH   7   8
ENDBRANCH   6   7
BRANCH  17  18
ATOM     18  C   UNL     1      -2.006   1.355  24.506  0.00  0.00    +0.120 C 
BRANCH  18  19
ATOM     19  N   UNL     1      -2.754   1.018  24.423  0.00  0.00    -0.077 NA
BRANCH  19  20
ATOM     20  S   UNL     1      -3.423   1.433  24.669  0.00  0.00    +0.077 S 
ATOM     21  O   UNL     1      -3.558   1.676  23.893  0.00  0.00    -0.152 OA
ATOM     22  O   UNL     1      -3.288   1.190  25.446  0.00  0.00    -0.152 OA
BRANCH  20  23
ATOM     23  C   UNL     1      -4.092   1.849  24.916  0.00  0.00    +0.124 A 
ATOM     24  C   UNL     1      -4.059   2.668  25.004  0.00  0.00    +0.020 A 
ATOM     25  C   UNL     1      -4.728   3.083  25.251  0.00  0.00    -0.003 A 
ATOM     26  C   UNL     1      -5.430   2.679  25.410  0.00  0.00    -0.022 A 
ATOM     27  C   UNL     1      -6.098   3.094  25.656  0.00  0.00    +0.031 C 
ATOM     28  C   UNL     1      -5.462   1.860  25.321  0.00  0.00    -0.003 A 
ATOM     29  C   UNL     1      -4.793   1.444  25.075  0.00  0.00    +0.020 A 
ENDBRANCH  20  23
ENDBRANCH  19  20
ENDBRANCH  18  19
ENDBRANCH  17  18
TORSDOF 9
ENDMDL
