MODEL 1
REMARK VINA RESULT:     -13.6      0.000      0.000
REMARK  Name = 
REMARK  4 active torsions:
REMARK  status: ('A' for Active; 'I' for Inactive)
REMARK    1  A    between atoms: N_3  and  C_4
REMARK    2  A    between atoms: C_8  and  N_12
REMARK    3  A    between atoms: C_16  and  C_17
REMARK    4  A    between atoms: N_23  and  C_24
REMARK                            x       y       z     vdW  Elec       q    Type
REMARK                         _______ _______ _______ _____ _____    ______ ____
ROOT
ATOM      4  C   UNL     1      -1.367   1.354  24.299  0.00  0.00    +0.156 C 
ATOM      5  C   UNL     1      -1.387   1.764  23.583  0.00  0.00    +0.166 C 
ATOM      6  O   UNL     1      -1.304   2.568  23.749  0.00  0.00    -0.350 OA
ATOM      7  C   UNL     1      -1.233   2.655  24.567  0.00  0.00    +0.169 C 
ATOM      8  C   UNL     1      -1.138   3.205  25.173  0.00  0.00    +0.167 C 
ATOM      9  C   UNL     1      -1.118   2.794  25.888  0.00  0.00    +0.169 C 
ATOM     10  O   UNL     1      -1.201   1.990  25.723  0.00  0.00    -0.350 OA
ATOM     11  C   UNL     1      -1.272   1.904  24.907  0.00  0.00    +0.167 C 
ENDROOT
BRANCH   8  12
ATOM     12  N   UNL     1      -1.074   4.022  25.082  0.00  0.00    -0.210 N 
ATOM     13  N   UNL     1      -0.400   4.430  24.833  0.00  0.00    -0.043 NA
ATOM     14  N   UNL     1      -0.581   5.235  24.821  0.00  0.00    -0.023 NA
ATOM     15  N   UNL     1      -1.365   5.325  25.061  0.00  0.00    -0.108 NA
ATOM     16  C   UNL     1      -1.669   4.574  25.222  0.00  0.00    +0.184 A 
BRANCH  16  17
ATOM     17  C   UNL     1      -2.435   4.407  25.479  0.00  0.00    +0.037 A 
ATOM     18  C   UNL     1      -2.591   4.320  26.285  0.00  0.00    +0.003 A 
ATOM     19  C   UNL     1      -3.357   4.153  26.541  0.00  0.00    +0.000 A 
ATOM     20  C   UNL     1      -3.967   4.072  25.992  0.00  0.00    +0.000 A 
ATOM     21  C   UNL     1      -3.812   4.159  25.186  0.00  0.00    +0.000 A 
ATOM     22  C   UNL     1      -3.045   4.327  24.930  0.00  0.00    +0.003 A 
ENDBRANCH  16  17
ENDBRANCH   8  12
BRANCH   4   3
ATOM      1  O   UNL     1      -2.824   0.610  24.079  0.00  0.00    -0.249 OA
ATOM      2  C   UNL     1      -2.159   0.164  24.281  0.00  0.00    +0.344 C 
ATOM      3  N   UNL     1      -1.432   0.536  24.391  0.00  0.00    -0.184 NA
ATOM     23  N   UNL     1      -2.224  -0.653  24.373  0.00  0.00    -0.161 NA
BRANCH  23  24
ATOM     24  C   UNL     1      -2.952  -1.025  24.263  0.00  0.00    +0.075 A 
ATOM     25  C   UNL     1      -3.612  -0.581  24.047  0.00  0.00    +0.017 A 
ATOM     26  C   UNL     1      -4.341  -0.954  23.937  0.00  0.00    +0.001 A 
ATOM     27  C   UNL     1      -4.408  -1.768  24.044  0.00  0.00    +0.000 A 
ATOM     28  C   UNL     1      -3.748  -2.211  24.260  0.00  0.00    +0.001 A 
ATOM     29  C   UNL     1      -3.815  -3.027  24.367  0.00  0.00    +0.000 A 
ATOM     30  C   UNL     1      -3.154  -3.470  24.584  0.00  0.00    +0.000 A 
ATOM     31  C   UNL     1      -2.425  -3.098  24.694  0.00  0.00    +0.000 A 
ATOM     32  C   UNL     1      -2.358  -2.283  24.587  0.00  0.00    +0.001 A 
ATOM     33  C   UNL     1      -3.019  -1.839  24.370  0.00  0.00    +0.015 A 
ENDBRANCH  23  24
ENDBRANCH   4   3
TORSDOF 4
ENDMDL
MODEL 2
REMARK VINA RESULT:     -13.3      1.388      2.305
REMARK  Name = 
REMARK  4 active torsions:
REMARK  status: ('A' for Active; 'I' for Inactive)
REMARK    1  A    between atoms: N_3  and  C_4
REMARK    2  A    between atoms: C_8  and  N_12
REMARK    3  A    between atoms: C_16  and  C_17
REMARK    4  A    between atoms: N_23  and  C_24
REMARK                            x       y       z     vdW  Elec       q    Type
REMARK                         _______ _______ _______ _____ _____    ______ ____
ROOT
ATOM      4  C   UNL     1      -3.865   1.847  24.846  0.00  0.00    +0.156 C 
ATOM      5  C   UNL     1      -4.116   2.294  25.493  0.00  0.00    +0.166 C 
ATOM      6  O   UNL     1      -3.650   2.973  25.529  0.00  0.00    -0.350 OA
ATOM      7  C   UNL     1      -3.110   2.947  24.904  0.00  0.00    +0.169 C 
ATOM      8  C   UNL     1      -2.490   3.350  24.541  0.00  0.00    +0.167 C 
ATOM      9  C   UNL     1      -2.239   2.903  23.895  0.00  0.00    +0.169 C 
ATOM     10  O   UNL     1      -2.706   2.223  23.858  0.00  0.00    -0.350 OA
ATOM     11  C   UNL     1      -3.244   2.250  24.482  0.00  0.00    +0.167 C 
ENDROOT
BRANCH   8  12
ATOM     12  N   UNL     1      -2.174   4.073  24.782  0.00  0.00    -0.210 N 
ATOM     13  N   UNL     1      -2.547   4.807  24.725  0.00  0.00    -0.043 NA
ATOM     14  N   UNL     1      -2.034   5.377  25.029  0.00  0.00    -0.023 NA
ATOM     15  N   UNL     1      -1.344   4.996  25.273  0.00  0.00    -0.108 NA
ATOM     16  C   UNL     1      -1.431   4.190  25.120  0.00  0.00    +0.184 A 
BRANCH  16  17
ATOM     17  C   UNL     1      -0.873   3.604  25.278  0.00  0.00    +0.037 A 
ATOM     18  C   UNL     1      -0.345   3.366  24.689  0.00  0.00    +0.003 A 
ATOM     19  C   UNL     1       0.213   2.780  24.848  0.00  0.00    +0.000 A 
ATOM     20  C   UNL     1       0.245   2.432  25.595  0.00  0.00    +0.000 A 
ATOM     21  C   UNL     1      -0.282   2.669  26.184  0.00  0.00    +0.000 A 
ATOM     22  C   UNL     1      -0.841   3.255  26.025  0.00  0.00    +0.003 A 
ENDBRANCH  16  17
ENDBRANCH   8  12
BRANCH   4   3
ATOM      1  O   UNL     1      -3.277   0.440  25.475  0.00  0.00    -0.249 OA
ATOM      2  C   UNL     1      -3.887   0.420  24.919  0.00  0.00    +0.344 C 
ATOM      3  N   UNL     1      -4.181   1.123  24.605  0.00  0.00    -0.184 NA
ATOM     23  N   UNL     1      -4.202  -0.303  24.678  0.00  0.00    -0.161 NA
BRANCH  23  24
ATOM     24  C   UNL     1      -3.908  -1.007  24.993  0.00  0.00    +0.075 A 
ATOM     25  C   UNL     1      -3.586  -1.016  25.752  0.00  0.00    +0.017 A 
ATOM     26  C   UNL     1      -3.291  -1.721  26.067  0.00  0.00    +0.001 A 
ATOM     27  C   UNL     1      -3.319  -2.414  25.622  0.00  0.00    +0.000 A 
ATOM     28  C   UNL     1      -3.641  -2.405  24.863  0.00  0.00    +0.001 A 
ATOM     29  C   UNL     1      -3.669  -3.099  24.417  0.00  0.00    +0.000 A 
ATOM     30  C   UNL     1      -3.991  -3.089  23.658  0.00  0.00    +0.000 A 
ATOM     31  C   UNL     1      -4.285  -2.385  23.344  0.00  0.00    +0.000 A 
ATOM     32  C   UNL     1      -4.258  -1.691  23.788  0.00  0.00    +0.001 A 
ATOM     33  C   UNL     1      -3.936  -1.700  24.548  0.00  0.00    +0.015 A 
ENDBRANCH  23  24
ENDBRANCH   4   3
TORSDOF 4
ENDMDL
MODEL 3
REMARK VINA RESULT:     -12.9      1.343      5.647
REMARK  Name = 
REMARK  4 active torsions:
REMARK  status: ('A' for Active; 'I' for Inactive)
REMARK    1  A    between atoms: N_3  and  C_4
REMARK    2  A    between atoms: C_8  and  N_12
REMARK    3  A    between atoms: C_16  and  C_17
REMARK    4  A    between atoms: N_23  and  C_24
REMARK                            x       y       z     vdW  Elec       q    Type
REMARK                         _______ _______ _______ _____ _____    ______ ____
ROOT
ATOM      4  C   UNL     1      -0.706   0.890  24.954  0.00  0.00    +0.156 C 
ATOM      5  C   UNL     1      -0.603   0.735  24.149  0.00  0.00    +0.166 C 
ATOM      6  O   UNL     1      -0.817  -0.050  24.013  0.00  0.00    -0.350 OA
ATOM      7  C   UNL     1      -1.053  -0.380  24.733  0.00  0.00    +0.169 C 
ATOM      8  C   UNL     1      -1.330  -1.068  25.092  0.00  0.00    +0.167 C 
ATOM      9  C   UNL     1      -1.432  -0.912  25.895  0.00  0.00    +0.169 C 
ATOM     10  O   UNL     1      -1.218  -0.127  26.032  0.00  0.00    -0.350 OA
ATOM     11  C   UNL     1      -0.984   0.202  25.314  0.00  0.00    +0.167 C 
ENDROOT
BRANCH   8  12
ATOM     12  N   UNL     1      -1.479  -1.786  24.715  0.00  0.00    -0.210 N 
ATOM     13  N   UNL     1      -0.910  -2.337  24.479  0.00  0.00    -0.043 NA
ATOM     14  N   UNL     1      -1.302  -2.971  24.126  0.00  0.00    -0.023 NA
ATOM     15  N   UNL     1      -2.112  -2.814  24.143  0.00  0.00    -0.108 NA
ATOM     16  C   UNL     1      -2.220  -2.081  24.508  0.00  0.00    +0.184 A 
BRANCH  16  17
ATOM     17  C   UNL     1      -2.944  -1.709  24.640  0.00  0.00    +0.037 A 
ATOM     18  C   UNL     1      -3.286  -1.726  25.392  0.00  0.00    +0.003 A 
ATOM     19  C   UNL     1      -4.010  -1.354  25.524  0.00  0.00    +0.000 A 
ATOM     20  C   UNL     1      -4.393  -0.965  24.905  0.00  0.00    +0.000 A 
ATOM     21  C   UNL     1      -4.052  -0.948  24.154  0.00  0.00    +0.000 A 
ATOM     22  C   UNL     1      -3.327  -1.320  24.022  0.00  0.00    +0.003 A 
ENDBRANCH  16  17
ENDBRANCH   8  12
BRANCH   4   3
ATOM      1  O   UNL     1      -1.842   2.087  24.929  0.00  0.00    -0.249 OA
ATOM      2  C   UNL     1      -1.124   2.207  25.319  0.00  0.00    +0.344 C 
ATOM      3  N   UNL     1      -0.557   1.609  25.332  0.00  0.00    -0.184 NA
ATOM     23  N   UNL     1      -0.976   2.925  25.697  0.00  0.00    -0.161 NA
BRANCH  23  24
ATOM     24  C   UNL     1      -1.544   3.523  25.684  0.00  0.00    +0.075 A 
ATOM     25  C   UNL     1      -2.295   3.385  25.994  0.00  0.00    +0.017 A 
ATOM     26  C   UNL     1      -2.864   3.983  25.982  0.00  0.00    +0.001 A 
ATOM     27  C   UNL     1      -2.680   4.719  25.660  0.00  0.00    +0.000 A 
ATOM     28  C   UNL     1      -1.929   4.858  25.349  0.00  0.00    +0.001 A 
ATOM     29  C   UNL     1      -1.745   5.595  25.026  0.00  0.00    +0.000 A 
ATOM     30  C   UNL     1      -0.994   5.733  24.716  0.00  0.00    +0.000 A 
ATOM     31  C   UNL     1      -0.425   5.134  24.729  0.00  0.00    +0.000 A 
ATOM     32  C   UNL     1      -0.609   4.398  25.051  0.00  0.00    +0.001 A 
ATOM     33  C   UNL     1      -1.360   4.259  25.362  0.00  0.00    +0.015 A 
ENDBRANCH  23  24
ENDBRANCH   4   3
TORSDOF 4
ENDMDL
MODEL 4
REMARK VINA RESULT:     -12.3      1.454      6.060
REMARK  Name = 
REMARK  4 active torsions:
REMARK  status: ('A' for Active; 'I' for Inactive)
REMARK    1  A    between atoms: N_3  and  C_4
REMARK    2  A    between atoms: C_8  and  N_12
REMARK    3  A    between atoms: C_16  and  C_17
REMARK    4  A    between atoms: N_23  and  C_24
REMARK                            x       y       z     vdW  Elec       q    Type
REMARK                         _______ _______ _______ _____ _____    ______ ____
ROOT
ATOM      4  C   UNL     1      -3.476   1.087  24.592  0.00  0.00    +0.156 C 
ATOM      5  C   UNL     1      -3.534   0.996  23.773  0.00  0.00    +0.166 C 
ATOM      6  O   UNL     1      -3.701   0.203  23.617  0.00  0.00    -0.350 OA
ATOM      7  C   UNL     1      -3.747  -0.196  24.338  0.00  0.00    +0.169 C 
ATOM      8  C   UNL     1      -3.878  -0.931  24.686  0.00  0.00    +0.167 C 
ATOM      9  C   UNL     1      -3.820  -0.840  25.504  0.00  0.00    +0.169 C 
ATOM     10  O   UNL     1      -3.653  -0.048  25.661  0.00  0.00    -0.350 OA
ATOM     11  C   UNL     1      -3.608   0.350  24.941  0.00  0.00    +0.167 C 
ENDROOT
BRANCH   8  12
ATOM     12  N   UNL     1      -4.039  -1.636  24.288  0.00  0.00    -0.210 N 
ATOM     13  N   UNL     1      -4.746  -1.826  23.907  0.00  0.00    -0.043 NA
ATOM     14  N   UNL     1      -4.665  -2.581  23.584  0.00  0.00    -0.023 NA
ATOM     15  N   UNL     1      -3.909  -2.857  23.764  0.00  0.00    -0.108 NA
ATOM     16  C   UNL     1      -3.522  -2.272  24.199  0.00  0.00    +0.184 A 
BRANCH  16  17
ATOM     17  C   UNL     1      -2.753  -2.317  24.494  0.00  0.00    +0.037 A 
ATOM     18  C   UNL     1      -2.623  -2.548  25.276  0.00  0.00    +0.003 A 
ATOM     19  C   UNL     1      -1.854  -2.593  25.570  0.00  0.00    +0.000 A 
ATOM     20  C   UNL     1      -1.214  -2.408  25.083  0.00  0.00    +0.000 A 
ATOM     21  C   UNL     1      -1.344  -2.177  24.301  0.00  0.00    +0.000 A 
ATOM     22  C   UNL     1      -2.114  -2.132  24.007  0.00  0.00    +0.003 A 
ENDBRANCH  16  17
ENDBRANCH   8  12
BRANCH   4   3
ATOM      1  O   UNL     1      -2.004   1.812  24.425  0.00  0.00    -0.249 OA
ATOM      2  C   UNL     1      -2.580   2.153  24.908  0.00  0.00    +0.344 C 
ATOM      3  N   UNL     1      -3.315   1.791  24.991  0.00  0.00    -0.184 NA
ATOM     23  N   UNL     1      -2.419   2.857  25.307  0.00  0.00    -0.161 NA
BRANCH  23  24
ATOM     24  C   UNL     1      -1.682   3.220  25.224  0.00  0.00    +0.075 A 
ATOM     25  C   UNL     1      -0.997   2.761  25.205  0.00  0.00    +0.017 A 
ATOM     26  C   UNL     1      -0.260   3.124  25.122  0.00  0.00    +0.001 A 
ATOM     27  C   UNL     1      -0.209   3.945  25.058  0.00  0.00    +0.000 A 
ATOM     28  C   UNL     1      -0.895   4.403  25.077  0.00  0.00    +0.001 A 
ATOM     29  C   UNL     1      -0.845   5.224  25.013  0.00  0.00    +0.000 A 
ATOM     30  C   UNL     1      -1.530   5.682  25.031  0.00  0.00    +0.000 A 
ATOM     31  C   UNL     1      -2.267   5.319  25.115  0.00  0.00    +0.000 A 
ATOM     32  C   UNL     1      -2.317   4.499  25.179  0.00  0.00    +0.001 A 
ATOM     33  C   UNL     1      -1.632   4.040  25.160  0.00  0.00    +0.015 A 
ENDBRANCH  23  24
ENDBRANCH   4   3
TORSDOF 4
ENDMDL
MODEL 5
REMARK VINA RESULT:     -11.0      2.045      2.745
REMARK  Name = 
REMARK  4 active torsions:
REMARK  status: ('A' for Active; 'I' for Inactive)
REMARK    1  A    between atoms: N_3  and  C_4
REMARK    2  A    between atoms: C_8  and  N_12
REMARK    3  A    between atoms: C_16  and  C_17
REMARK    4  A    between atoms: N_23  and  C_24
REMARK                            x       y       z     vdW  Elec       q    Type
REMARK                         _______ _______ _______ _____ _____    ______ ____
ROOT
ATOM      4  C   UNL     1      -4.244   0.918  24.408  0.00  0.00    +0.156 C 
ATOM      5  C   UNL     1      -4.705   0.822  25.085  0.00  0.00    +0.166 C 
ATOM      6  O   UNL     1      -4.907   1.572  25.364  0.00  0.00    -0.350 OA
ATOM      7  C   UNL     1      -4.570   2.131  24.859  0.00  0.00    +0.169 C 
ATOM      8  C   UNL     1      -4.487   2.940  24.720  0.00  0.00    +0.167 C 
ATOM      9  C   UNL     1      -4.026   3.036  24.043  0.00  0.00    +0.169 C 
ATOM     10  O   UNL     1      -3.824   2.286  23.763  0.00  0.00    -0.350 OA
ATOM     11  C   UNL     1      -4.161   1.727  24.268  0.00  0.00    +0.167 C 
ENDROOT
BRANCH   8  12
ATOM     12  N   UNL     1      -4.808   3.547  25.178  0.00  0.00    -0.210 N 
ATOM     13  N   UNL     1      -5.612   3.700  25.284  0.00  0.00    -0.043 NA
ATOM     14  N   UNL     1      -5.683   4.355  25.781  0.00  0.00    -0.023 NA
ATOM     15  N   UNL     1      -4.924   4.607  25.981  0.00  0.00    -0.108 NA
ATOM     16  C   UNL     1      -4.383   4.106  25.608  0.00  0.00    +0.184 A 
BRANCH  16  17
ATOM     17  C   UNL     1      -3.561   4.159  25.658  0.00  0.00    +0.037 A 
ATOM     18  C   UNL     1      -3.137   4.567  25.079  0.00  0.00    +0.003 A 
ATOM     19  C   UNL     1      -2.316   4.619  25.130  0.00  0.00    +0.000 A 
ATOM     20  C   UNL     1      -1.918   4.262  25.758  0.00  0.00    +0.000 A 
ATOM     21  C   UNL     1      -2.341   3.854  26.337  0.00  0.00    +0.000 A 
ATOM     22  C   UNL     1      -3.163   3.802  26.286  0.00  0.00    +0.003 A 
ENDBRANCH  16  17
ENDBRANCH   8  12
BRANCH   4   3
ATOM      1  O   UNL     1      -3.944  -0.556  25.084  0.00  0.00    -0.249 OA
ATOM      2  C   UNL     1      -3.773  -0.425  24.287  0.00  0.00    +0.344 C 
ATOM      3  N   UNL     1      -3.922   0.311  23.949  0.00  0.00    -0.184 NA
ATOM     23  N   UNL     1      -3.451  -1.032  23.830  0.00  0.00    -0.161 NA
BRANCH  23  24
ATOM     24  C   UNL     1      -3.301  -1.769  24.168  0.00  0.00    +0.075 A 
ATOM     25  C   UNL     1      -3.927  -2.274  24.351  0.00  0.00    +0.017 A 
ATOM     26  C   UNL     1      -3.777  -3.012  24.690  0.00  0.00    +0.001 A 
ATOM     27  C   UNL     1      -3.001  -3.244  24.845  0.00  0.00    +0.000 A 
ATOM     28  C   UNL     1      -2.375  -2.739  24.663  0.00  0.00    +0.001 A 
ATOM     29  C   UNL     1      -1.599  -2.971  24.818  0.00  0.00    +0.000 A 
ATOM     30  C   UNL     1      -0.973  -2.466  24.636  0.00  0.00    +0.000 A 
ATOM     31  C   UNL     1      -1.123  -1.728  24.297  0.00  0.00    +0.000 A 
ATOM     32  C   UNL     1      -1.899  -1.496  24.141  0.00  0.00    +0.001 A 
ATOM     33  C   UNL     1      -2.525  -2.001  24.324  0.00  0.00    +0.015 A 
ENDBRANCH  23  24
ENDBRANCH   4   3
TORSDOF 4
ENDMDL
