MODEL 1
REMARK VINA RESULT:      -9.4      0.000      0.000
REMARK  Name = 
REMARK  9 active torsions:
REMARK  status: ('A' for Active; 'I' for Inactive)
REMARK    1  A    between atoms: C_2  and  C_4
REMARK    2  A    between atoms: C_6  and  C_7
REMARK    3  A    between atoms: C_7  and  C_8
REMARK    4  A    between atoms: N_10  and  C_12
REMARK    5  A    between atoms: C_12  and  C_13
REMARK    6  A    between atoms: C_22  and  C_23
REMARK    7  A    between atoms: C_23  and  N_24
REMARK    8  A    between atoms: N_27  and  C_28
REMARK    9  A    between atoms: C_28  and  C_29
REMARK                            x       y       z     vdW  Elec       q    Type
REMARK                         _______ _______ _______ _____ _____    ______ ____
ROOT
ATOM      4  C   UNL     1      -1.258   1.232  24.652  0.00  0.00    +0.006 C 
ATOM      5  C   UNL     1      -1.780   1.820  24.903  0.00  0.00    +0.005 C 
ATOM      6  C   UNL     1      -1.582   2.616  24.804  0.00  0.00    +0.027 C 
ATOM     19  C   UNL     1      -0.864   2.822  24.455  0.00  0.00    -0.048 C 
ATOM     20  C   UNL     1      -0.667   3.617  24.356  0.00  0.00    +0.026 C 
ATOM     21  C   UNL     1      -0.343   2.234  24.205  0.00  0.00    -0.033 C 
ATOM     22  C   UNL     1      -0.540   1.439  24.303  0.00  0.00    +0.043 C 
ENDROOT
BRANCH   4   2
ATOM      1  C   UNL     1      -1.229   0.039  25.437  0.00  0.00    +0.000 C 
ATOM      2  C   UNL     1      -1.456   0.437  24.751  0.00  0.00    +0.000 C 
ATOM      3  C   UNL     1      -1.878   0.041  24.165  0.00  0.00    +0.000 C 
ENDBRANCH   4   2
BRANCH   6   7
ATOM      7  C   UNL     1      -2.104   3.204  25.055  0.00  0.00    +0.089 C 
BRANCH   7   8
ATOM      8  C   UNL     1      -2.855   3.261  24.716  0.00  0.00    +0.226 C 
ATOM      9  O   UNL     1      -2.946   3.177  23.900  0.00  0.00    -0.275 OA
ATOM     10  N   UNL     1      -3.513   3.401  25.193  0.00  0.00    -0.274 N 
ATOM     11  C   UNL     1      -3.421   3.484  26.008  0.00  0.00    +0.115 C 
BRANCH  10  12
ATOM     12  C   UNL     1      -4.263   3.458  24.854  0.00  0.00    +0.120 C 
BRANCH  12  13
ATOM     13  C   UNL     1      -4.872   2.968  25.117  0.00  0.00    -0.002 A 
ATOM     14  C   UNL     1      -5.241   3.119  25.838  0.00  0.00    -0.003 A 
ATOM     15  C   UNL     1      -5.851   2.627  26.100  0.00  0.00    -0.000 A 
ATOM     16  C   UNL     1      -6.090   1.985  25.640  0.00  0.00    -0.000 A 
ATOM     17  C   UNL     1      -5.720   1.834  24.919  0.00  0.00    -0.000 A 
ATOM     18  C   UNL     1      -5.111   2.325  24.657  0.00  0.00    -0.003 A 
ENDBRANCH  12  13
ENDBRANCH  10  12
ENDBRANCH   7   8
ENDBRANCH   6   7
BRANCH  22  23
ATOM     23  C   UNL     1      -0.019   0.850  24.053  0.00  0.00    +0.121 C 
BRANCH  23  24
ATOM     24  N   UNL     1       0.751   1.046  23.833  0.00  0.00    -0.187 NA
ATOM     25  C   UNL     1       1.204   0.513  23.397  0.00  0.00    +0.339 C 
ATOM     26  O   UNL     1       0.886  -0.218  23.180  0.00  0.00    -0.249 OA
ATOM     27  N   UNL     1       1.975   0.708  23.177  0.00  0.00    -0.184 NA
BRANCH  27  28
ATOM     28  C   UNL     1       2.428   0.175  22.740  0.00  0.00    +0.152 C 
BRANCH  28  29
ATOM     29  C   UNL     1       3.132   0.422  22.388  0.00  0.00    +0.205 C 
ATOM     30  O   UNL     1       3.850   0.302  22.774  0.00  0.00    -0.218 OA
ENDBRANCH  28  29
ENDBRANCH  27  28
ENDBRANCH  23  24
ENDBRANCH  22  23
TORSDOF 9
ENDMDL
MODEL 2
REMARK VINA RESULT:      -8.6      1.176      2.089
REMARK  Name = 
REMARK  9 active torsions:
REMARK  status: ('A' for Active; 'I' for Inactive)
REMARK    1  A    between atoms: C_2  and  C_4
REMARK    2  A    between atoms: C_6  and  C_7
REMARK    3  A    between atoms: C_7  and  C_8
REMARK    4  A    between atoms: N_10  and  C_12
REMARK    5  A    between atoms: C_12  and  C_13
REMARK    6  A    between atoms: C_22  and  C_23
REMARK    7  A    between atoms: C_23  and  N_24
REMARK    8  A    between atoms: N_27  and  C_28
REMARK    9  A    between atoms: C_28  and  C_29
REMARK                            x       y       z     vdW  Elec       q    Type
REMARK                         _______ _______ _______ _____ _____    ______ ____
ROOT
ATOM      4  C   UNL     1      -1.125   1.306  24.532  0.00  0.00    +0.006 C 
ATOM      5  C   UNL     1      -1.885   1.036  24.705  0.00  0.00    +0.005 C 
ATOM      6  C   UNL     1      -2.071   0.238  24.607  0.00  0.00    +0.027 C 
ATOM     19  C   UNL     1      -1.497  -0.290  24.336  0.00  0.00    -0.048 C 
ATOM     20  C   UNL     1      -1.683  -1.087  24.238  0.00  0.00    +0.026 C 
ATOM     21  C   UNL     1      -0.737  -0.018  24.164  0.00  0.00    -0.033 C 
ATOM     22  C   UNL     1      -0.551   0.779  24.262  0.00  0.00    +0.043 C 
ENDROOT
BRANCH   4   2
ATOM      1  C   UNL     1      -0.654   2.374  25.356  0.00  0.00    +0.000 C 
ATOM      2  C   UNL     1      -0.939   2.104  24.631  0.00  0.00    +0.000 C 
ATOM      3  C   UNL     1      -1.039   2.631  24.005  0.00  0.00    +0.000 C 
ENDBRANCH   4   2
BRANCH   6   7
ATOM      7  C   UNL     1      -2.831  -0.032  24.780  0.00  0.00    +0.089 C 
BRANCH   7   8
ATOM      8  C   UNL     1      -3.487   0.340  24.444  0.00  0.00    +0.226 C 
ATOM      9  O   UNL     1      -3.488   0.530  23.641  0.00  0.00    -0.275 OA
ATOM     10  N   UNL     1      -4.142   0.522  24.912  0.00  0.00    -0.274 N 
ATOM     11  C   UNL     1      -4.141   0.333  25.714  0.00  0.00    +0.115 C 
BRANCH  10  12
ATOM     12  C   UNL     1      -4.797   0.895  24.577  0.00  0.00    +0.120 C 
BRANCH  12  13
ATOM     13  C   UNL     1      -5.127   1.557  24.942  0.00  0.00    -0.002 A 
ATOM     14  C   UNL     1      -4.881   2.313  24.726  0.00  0.00    -0.003 A 
ATOM     15  C   UNL     1      -5.212   2.975  25.092  0.00  0.00    -0.000 A 
ATOM     16  C   UNL     1      -5.787   2.879  25.675  0.00  0.00    -0.000 A 
ATOM     17  C   UNL     1      -6.033   2.123  25.892  0.00  0.00    -0.000 A 
ATOM     18  C   UNL     1      -5.703   1.461  25.526  0.00  0.00    -0.003 A 
ENDBRANCH  12  13
ENDBRANCH  10  12
ENDBRANCH   7   8
ENDBRANCH   6   7
BRANCH  22  23
ATOM     23  C   UNL     1       0.209   1.050  24.089  0.00  0.00    +0.121 C 
BRANCH  23  24
ATOM     24  N   UNL     1       0.708   0.603  23.608  0.00  0.00    -0.187 NA
ATOM     25  C   UNL     1       1.481   0.853  23.472  0.00  0.00    +0.339 C 
ATOM     26  O   UNL     1       1.757   1.551  23.817  0.00  0.00    -0.249 OA
ATOM     27  N   UNL     1       1.981   0.406  22.991  0.00  0.00    -0.184 NA
BRANCH  27  28
ATOM     28  C   UNL     1       2.756   0.655  22.854  0.00  0.00    +0.152 C 
BRANCH  28  29
ATOM     29  C   UNL     1       3.252   0.212  22.367  0.00  0.00    +0.205 C 
ATOM     30  O   UNL     1       3.990   0.509  22.152  0.00  0.00    -0.218 OA
ENDBRANCH  28  29
ENDBRANCH  27  28
ENDBRANCH  23  24
ENDBRANCH  22  23
TORSDOF 9
ENDMDL
MODEL 3
REMARK VINA RESULT:      -8.4      2.950      4.498
REMARK  Name = 
REMARK  9 active torsions:
REMARK  status: ('A' for Active; 'I' for Inactive)
REMARK    1  A    between atoms: C_2  and  C_4
REMARK    2  A    between atoms: C_6  and  C_7
REMARK    3  A    between atoms: C_7  and  C_8
REMARK    4  A    between atoms: N_10  and  C_12
REMARK    5  A    between atoms: C_12  and  C_13
REMARK    6  A    between atoms: C_22  and  C_23
REMARK    7  A    between atoms: C_23  and  N_24
REMARK    8  A    between atoms: N_27  and  C_28
REMARK    9  A    between atoms: C_28  and  C_29
REMARK                            x       y       z     vdW  Elec       q    Type
REMARK                         _______ _______ _______ _____ _____    ______ ____
ROOT
ATOM      4  C   UNL     1      -3.470   1.440  23.977  0.00  0.00    +0.006 C 
ATOM      5  C   UNL     1      -3.567   2.199  24.286  0.00  0.00    +0.005 C 
ATOM      6  C   UNL     1      -4.200   2.360  24.792  0.00  0.00    +0.027 C 
ATOM     19  C   UNL     1      -4.734   1.763  24.988  0.00  0.00    -0.048 C 
ATOM     20  C   UNL     1      -5.365   1.924  25.493  0.00  0.00    +0.026 C 
ATOM     21  C   UNL     1      -4.635   1.004  24.679  0.00  0.00    -0.033 C 
ATOM     22  C   UNL     1      -4.004   0.842  24.174  0.00  0.00    +0.043 C 
ENDROOT
BRANCH   4   2
ATOM      1  C   UNL     1      -2.921   1.394  22.659  0.00  0.00    +0.000 C 
ATOM      2  C   UNL     1      -2.838   1.279  23.471  0.00  0.00    +0.000 C 
ATOM      3  C   UNL     1      -2.125   1.003  23.778  0.00  0.00    +0.000 C 
ENDBRANCH   4   2
BRANCH   6   7
ATOM      7  C   UNL     1      -4.297   3.119  25.100  0.00  0.00    +0.089 C 
BRANCH   7   8
ATOM      8  C   UNL     1      -3.705   3.452  25.570  0.00  0.00    +0.226 C 
ATOM      9  O   UNL     1      -3.473   3.077  26.267  0.00  0.00    -0.275 OA
ATOM     10  N   UNL     1      -3.348   4.159  25.342  0.00  0.00    -0.274 N 
ATOM     11  C   UNL     1      -3.580   4.533  24.646  0.00  0.00    +0.115 C 
BRANCH  10  12
ATOM     12  C   UNL     1      -2.756   4.492  25.812  0.00  0.00    +0.120 C 
BRANCH  12  13
ATOM     13  C   UNL     1      -2.027   4.686  25.480  0.00  0.00    -0.002 A 
ATOM     14  C   UNL     1      -1.909   5.434  25.153  0.00  0.00    -0.003 A 
ATOM     15  C   UNL     1      -1.178   5.628  24.820  0.00  0.00    -0.000 A 
ATOM     16  C   UNL     1      -0.567   5.074  24.815  0.00  0.00    -0.000 A 
ATOM     17  C   UNL     1      -0.685   4.327  25.142  0.00  0.00    -0.000 A 
ATOM     18  C   UNL     1      -1.415   4.132  25.475  0.00  0.00    -0.003 A 
ENDBRANCH  12  13
ENDBRANCH  10  12
ENDBRANCH   7   8
ENDBRANCH   6   7
BRANCH  22  23
ATOM     23  C   UNL     1      -3.906   0.084  23.865  0.00  0.00    +0.121 C 
BRANCH  23  24
ATOM     24  N   UNL     1      -3.860  -0.566  24.371  0.00  0.00    -0.187 NA
ATOM     25  C   UNL     1      -3.930  -1.329  24.069  0.00  0.00    +0.339 C 
ATOM     26  O   UNL     1      -4.046  -1.444  23.259  0.00  0.00    -0.249 OA
ATOM     27  N   UNL     1      -3.884  -1.980  24.575  0.00  0.00    -0.184 NA
BRANCH  27  28
ATOM     28  C   UNL     1      -3.954  -2.745  24.273  0.00  0.00    +0.152 C 
BRANCH  28  29
ATOM     29  C   UNL     1      -3.457  -3.343  24.544  0.00  0.00    +0.205 C 
ATOM     30  O   UNL     1      -3.421  -3.517  25.349  0.00  0.00    -0.218 OA
ENDBRANCH  28  29
ENDBRANCH  27  28
ENDBRANCH  23  24
ENDBRANCH  22  23
TORSDOF 9
ENDMDL
