REMARK  Name = 
REMARK  4 active torsions:
REMARK  status: ('A' for Active; 'I' for Inactive)
REMARK    1  A    between atoms: C_4  and  C_19
REMARK    2  A    between atoms: C_5  and  N_6
REMARK    3  A    between atoms: C_7  and  C_9
REMARK    4  A    between atoms: C_11  and  C_15
REMARK                            x       y       z     vdW  Elec       q    Type
REMARK                         _______ _______ _______ _____ _____    ______ ____
ROOT
ATOM      1  O   UNL     1       0.715  -0.412   0.000  0.00  0.00    -0.220 OA
ATOM      2  C   UNL     1       0.715  -1.238   0.000  0.00  0.00    +0.184 C 
ATOM      3  C   UNL     1       1.382  -1.722   0.000  0.00  0.00    +0.042 C 
ATOM      4  C   UNL     1       1.127  -2.507   0.000  0.00  0.00    +0.049 C 
ATOM      5  C   UNL     1       0.302  -2.507   0.000  0.00  0.00    +0.133 C 
ATOM     17  C   UNL     1       0.047  -1.722   0.000  0.00  0.00    +0.202 C 
ATOM     18  O   UNL     1      -0.738  -1.468   0.000  0.00  0.00    -0.219 OA
ENDROOT
BRANCH   4  19
ATOM     19  C   UNL     1       1.612  -3.175   0.000  0.00  0.00    -0.002 A 
ATOM     20  C   UNL     1       2.432  -3.088   0.000  0.00  0.00    -0.001 A 
ATOM     21  C   UNL     1       2.917  -3.756   0.000  0.00  0.00    +0.020 A 
ATOM     22  C   UNL     1       2.582  -4.509   0.000  0.00  0.00    +0.099 A 
ATOM     23  N   UNL     1       1.761  -4.596   0.000  0.00  0.00    -0.243 NA
ATOM     24  C   UNL     1       1.276  -3.928   0.000  0.00  0.00    +0.095 A 
ENDBRANCH   4  19
BRANCH   5   6
ATOM      6  N   UNL     1      -0.183  -3.175   0.000  0.00  0.00    -0.200 NA
ATOM      7  C   UNL     1      -1.003  -3.088   0.000  0.00  0.00    +0.265 C 
ATOM      8  O   UNL     1      -1.339  -2.335   0.000  0.00  0.00    -0.268 OA
BRANCH   7   9
ATOM      9  C   UNL     1      -1.488  -3.756   0.000  0.00  0.00    +0.056 A 
ATOM     10  C   UNL     1      -1.153  -4.509   0.000  0.00  0.00    +0.015 A 
ATOM     11  C   UNL     1      -1.638  -5.177   0.000  0.00  0.00    +0.069 A 
ATOM     12  C   UNL     1      -2.458  -5.091   0.000  0.00  0.00    +0.010 A 
ATOM     13  C   UNL     1      -2.794  -4.337   0.000  0.00  0.00    +0.001 A 
ATOM     14  C   UNL     1      -2.309  -3.670   0.000  0.00  0.00    +0.005 A 
BRANCH  11  15
ATOM     15  C   UNL     1      -1.302  -5.931   0.000  0.00  0.00    +0.100 C 
ATOM     16  N   UNL     1      -0.967  -6.684   0.000  0.00  0.00    -0.191 NA
ENDBRANCH  11  15
ENDBRANCH   7   9
ENDBRANCH   5   6
TORSDOF 4
