MODEL 1
REMARK VINA RESULT:     -11.1      0.000      0.000
REMARK  Name = 
REMARK  2 active torsions:
REMARK  status: ('A' for Active; 'I' for Inactive)
REMARK    1  A    between atoms: S_2  and  N_5
REMARK    2  A    between atoms: N_5  and  C_6
REMARK                            x       y       z     vdW  Elec       q    Type
REMARK                         _______ _______ _______ _____ _____    ______ ____
ROOT
ATOM      6  C   UNL     1      -3.929  -0.262  24.566  0.00  0.00    +0.101 C 
ATOM      7  C   UNL     1      -3.107  -0.261  24.502  0.00  0.00    +0.041 C 
ATOM      8  C   UNL     1      -2.685   0.441  24.597  0.00  0.00    +0.096 C 
ATOM      9  N   UNL     1      -3.087   1.145  24.756  0.00  0.00    -0.269 N 
ATOM     10  C   UNL     1      -3.910   1.144  24.820  0.00  0.00    +0.155 C 
ATOM     11  C   UNL     1      -4.331   0.441  24.725  0.00  0.00    +0.049 C 
ATOM     12  C   UNL     1      -4.413   1.780  24.975  0.00  0.00    +0.264 C 
ATOM     13  O   UNL     1      -5.217   1.599  25.005  0.00  0.00    -0.271 OA
ATOM     14  N   UNL     1      -4.219   2.571  25.103  0.00  0.00    -0.178 NA
ATOM     15  C   UNL     1      -3.473   2.923  25.109  0.00  0.00    +0.078 A 
ATOM     16  C   UNL     1      -3.523   3.733  25.260  0.00  0.00    +0.017 A 
ATOM     17  C   UNL     1      -2.837   4.189  25.290  0.00  0.00    +0.008 A 
ATOM     18  C   UNL     1      -2.101   3.838  25.169  0.00  0.00    +0.035 A 
ATOM     19 BR   UNL     1      -1.415   4.295  25.198  0.00  0.00    -0.049 Br
ATOM     20  C   UNL     1      -2.050   3.027  25.018  0.00  0.00    +0.013 A 
ATOM     21  C   UNL     1      -2.737   2.571  24.988  0.00  0.00    +0.069 A 
ATOM     22  C   UNL     1      -2.565   1.779  24.831  0.00  0.00    +0.251 C 
ATOM     23  O   UNL     1      -1.766   1.598  24.736  0.00  0.00    -0.270 OA
ENDROOT
BRANCH   6   5
ATOM      5  N   UNL     1      -4.350  -0.964  24.471  0.00  0.00    -0.083 NA
BRANCH   5   2
ATOM      1  C   UNL     1      -3.543  -2.386  24.247  0.00  0.00    +0.197 C 
ATOM      2  S   UNL     1      -3.947  -1.676  24.360  0.00  0.00    +0.059 S 
ATOM      3  O   UNL     1      -3.858  -1.754  25.176  0.00  0.00    -0.156 OA
ATOM      4  O   UNL     1      -4.036  -1.597  23.543  0.00  0.00    -0.156 OA
ENDBRANCH   5   2
ENDBRANCH   6   5
TORSDOF 2
ENDMDL
MODEL 2
REMARK VINA RESULT:     -11.1      2.203      4.143
REMARK  Name = 
REMARK  2 active torsions:
REMARK  status: ('A' for Active; 'I' for Inactive)
REMARK    1  A    between atoms: S_2  and  N_5
REMARK    2  A    between atoms: N_5  and  C_6
REMARK                            x       y       z     vdW  Elec       q    Type
REMARK                         _______ _______ _______ _____ _____    ______ ____
ROOT
ATOM      6  C   UNL     1      -3.071   2.694  24.892  0.00  0.00    +0.101 C 
ATOM      7  C   UNL     1      -2.318   2.364  24.955  0.00  0.00    +0.041 C 
ATOM      8  C   UNL     1      -2.218   1.547  24.900  0.00  0.00    +0.096 C 
ATOM      9  N   UNL     1      -2.874   1.059  24.781  0.00  0.00    -0.269 N 
ATOM     10  C   UNL     1      -3.627   1.389  24.718  0.00  0.00    +0.155 C 
ATOM     11  C   UNL     1      -3.726   2.206  24.773  0.00  0.00    +0.049 C 
ATOM     12  C   UNL     1      -4.348   1.005  24.600  0.00  0.00    +0.264 C 
ATOM     13  O   UNL     1      -5.011   1.493  24.561  0.00  0.00    -0.271 OA
ATOM     14  N   UNL     1      -4.493   0.197  24.516  0.00  0.00    -0.178 NA
ATOM     15  C   UNL     1      -3.953  -0.426  24.530  0.00  0.00    +0.078 A 
ATOM     16  C   UNL     1      -4.329  -1.154  24.425  0.00  0.00    +0.017 A 
ATOM     17  C   UNL     1      -3.887  -1.850  24.421  0.00  0.00    +0.008 A 
ATOM     18  C   UNL     1      -3.069  -1.820  24.521  0.00  0.00    +0.035 A 
ATOM     19 BR   UNL     1      -2.627  -2.517  24.517  0.00  0.00    -0.049 Br
ATOM     20  C   UNL     1      -2.692  -1.093  24.626  0.00  0.00    +0.013 A 
ATOM     21  C   UNL     1      -3.135  -0.397  24.630  0.00  0.00    +0.069 A 
ATOM     22  C   UNL     1      -2.654   0.265  24.742  0.00  0.00    +0.251 C 
ATOM     23  O   UNL     1      -1.848   0.112  24.826  0.00  0.00    -0.270 OA
ENDROOT
BRANCH   6   5
ATOM      5  N   UNL     1      -3.170   3.511  24.947  0.00  0.00    -0.083 NA
BRANCH   5   2
ATOM      1  C   UNL     1      -2.032   4.430  25.709  0.00  0.00    +0.197 C 
ATOM      2  S   UNL     1      -2.601   3.971  25.329  0.00  0.00    +0.059 S 
ATOM      3  O   UNL     1      -3.001   3.873  26.043  0.00  0.00    -0.156 OA
ATOM      4  O   UNL     1      -2.201   4.068  24.613  0.00  0.00    -0.156 OA
ENDBRANCH   5   2
ENDBRANCH   6   5
TORSDOF 2
ENDMDL
