MODEL 1
REMARK VINA RESULT:     -12.9      0.000      0.000
REMARK  Name = 
REMARK  5 active torsions:
REMARK  status: ('A' for Active; 'I' for Inactive)
REMARK    1  A    between atoms: C_5  and  C_6
REMARK    2  A    between atoms: C_6  and  N_7
REMARK    3  A    between atoms: C_12  and  C_13
REMARK    4  A    between atoms: C_15  and  C_16
REMARK    5  A    between atoms: C_16  and  C_17
REMARK                            x       y       z     vdW  Elec       q    Type
REMARK                         _______ _______ _______ _____ _____    ______ ____
ROOT
ATOM      7  N   UNL     1      -1.818   0.255  24.689  0.00  0.00    -0.257 NA
ATOM      8  C   UNL     1      -1.321  -0.367  24.474  0.00  0.00    +0.121 C 
ATOM      9  C   UNL     1      -0.608  -0.213  24.090  0.00  0.00    +0.090 A 
ATOM     10  C   UNL     1      -0.391   0.565  23.920  0.00  0.00    +0.077 A 
ATOM     11  C   UNL     1      -0.888   1.189  24.135  0.00  0.00    +0.073 C 
ATOM     12  C   UNL     1      -1.601   1.033  24.519  0.00  0.00    +0.144 C 
ATOM     25  N   UNL     1       0.340   0.549  23.539  0.00  0.00    -0.227 NA
ATOM     26  C   UNL     1       0.575  -0.239  23.473  0.00  0.00    +0.198 A 
ATOM     27  N   UNL     1      -0.011  -0.709  23.813  0.00  0.00    -0.226 NA
ENDROOT
BRANCH  12  13
ATOM     13  C   UNL     1      -2.097   1.656  24.734  0.00  0.00    +0.251 A 
ATOM     14  N   UNL     1      -2.757   1.918  24.315  0.00  0.00    -0.193 NA
ATOM     15  C   UNL     1      -3.088   2.551  24.728  0.00  0.00    +0.185 A 
ATOM     23  N   UNL     1      -2.632   2.681  25.402  0.00  0.00    -0.060 NA
ATOM     24  O   UNL     1      -2.019   2.128  25.407  0.00  0.00    -0.336 OA
BRANCH  15  16
ATOM     16  C   UNL     1      -3.757   2.979  24.504  0.00  0.00    +0.095 C 
BRANCH  16  17
ATOM     17  C   UNL     1      -4.491   2.800  24.838  0.00  0.00    -0.014 A 
ATOM     18  C   UNL     1      -4.996   2.267  24.462  0.00  0.00    -0.004 A 
ATOM     19  C   UNL     1      -5.729   2.089  24.796  0.00  0.00    -0.000 A 
ATOM     20  C   UNL     1      -5.957   2.443  25.505  0.00  0.00    -0.000 A 
ATOM     21  C   UNL     1      -5.452   2.976  25.881  0.00  0.00    -0.000 A 
ATOM     22  C   UNL     1      -4.719   3.155  25.548  0.00  0.00    -0.004 A 
ENDBRANCH  16  17
ENDBRANCH  15  16
ENDBRANCH  12  13
BRANCH   7   6
ATOM      6  C   UNL     1      -2.531   0.101  25.073  0.00  0.00    +0.100 C 
BRANCH   6   5
ATOM      1  F   UNL     1      -3.797  -2.946  25.035  0.00  0.00    -0.204 F 
ATOM      2  C   UNL     1      -3.480  -2.185  25.045  0.00  0.00    +0.140 A 
ATOM      3  C   UNL     1      -3.050  -1.926  25.698  0.00  0.00    +0.029 A 
ATOM      4  C   UNL     1      -2.733  -1.164  25.707  0.00  0.00    -0.001 A 
ATOM      5  C   UNL     1      -2.847  -0.661  25.064  0.00  0.00    -0.006 A 
ATOM     28  C   UNL     1      -3.279  -0.921  24.409  0.00  0.00    -0.001 A 
ATOM     29  C   UNL     1      -3.596  -1.683  24.400  0.00  0.00    +0.029 A 
ENDBRANCH   6   5
ENDBRANCH   7   6
TORSDOF 5
ENDMDL
MODEL 2
REMARK VINA RESULT:     -12.5      2.345      4.120
REMARK  Name = 
REMARK  5 active torsions:
REMARK  status: ('A' for Active; 'I' for Inactive)
REMARK    1  A    between atoms: C_5  and  C_6
REMARK    2  A    between atoms: C_6  and  N_7
REMARK    3  A    between atoms: C_12  and  C_13
REMARK    4  A    between atoms: C_15  and  C_16
REMARK    5  A    between atoms: C_16  and  C_17
REMARK                            x       y       z     vdW  Elec       q    Type
REMARK                         _______ _______ _______ _____ _____    ______ ____
ROOT
ATOM      7  N   UNL     1      -1.461   1.844  24.526  0.00  0.00    -0.257 NA
ATOM      8  C   UNL     1      -0.707   2.175  24.557  0.00  0.00    +0.121 C 
ATOM      9  C   UNL     1      -0.059   1.756  24.267  0.00  0.00    +0.090 A 
ATOM     10  C   UNL     1      -0.166   1.004  23.945  0.00  0.00    +0.077 A 
ATOM     11  C   UNL     1      -0.921   0.671  23.913  0.00  0.00    +0.073 C 
ATOM     12  C   UNL     1      -1.568   1.092  24.204  0.00  0.00    +0.144 C 
ATOM     25  N   UNL     1       0.570   0.723  23.703  0.00  0.00    -0.227 NA
ATOM     26  C   UNL     1       1.133   1.301  23.875  0.00  0.00    +0.198 A 
ATOM     27  N   UNL     1       0.744   1.939  24.223  0.00  0.00    -0.226 NA
ENDROOT
BRANCH  12  13
ATOM     13  C   UNL     1      -2.323   0.760  24.173  0.00  0.00    +0.251 A 
ATOM     14  N   UNL     1      -2.635   0.214  24.706  0.00  0.00    -0.193 NA
ATOM     15  C   UNL     1      -3.403   0.032  24.465  0.00  0.00    +0.185 A 
ATOM     23  N   UNL     1      -3.565   0.466  23.783  0.00  0.00    -0.060 NA
ATOM     24  O   UNL     1      -2.898   0.916  23.602  0.00  0.00    -0.336 OA
BRANCH  15  16
ATOM     16  C   UNL     1      -3.918  -0.492  24.841  0.00  0.00    +0.095 C 
BRANCH  16  17
ATOM     17  C   UNL     1      -3.883  -1.299  24.669  0.00  0.00    -0.014 A 
ATOM     18  C   UNL     1      -3.479  -1.811  25.174  0.00  0.00    -0.004 A 
ATOM     19  C   UNL     1      -3.444  -2.617  25.002  0.00  0.00    -0.000 A 
ATOM     20  C   UNL     1      -3.813  -2.911  24.325  0.00  0.00    -0.000 A 
ATOM     21  C   UNL     1      -4.216  -2.399  23.820  0.00  0.00    -0.000 A 
ATOM     22  C   UNL     1      -4.251  -1.593  23.991  0.00  0.00    -0.004 A 
ENDBRANCH  16  17
ENDBRANCH  15  16
ENDBRANCH  12  13
BRANCH   7   6
ATOM      6  C   UNL     1      -2.108   2.264  24.817  0.00  0.00    +0.100 C 
BRANCH   6   5
ATOM      1  F   UNL     1      -1.773   5.436  25.661  0.00  0.00    -0.204 F 
ATOM      2  C   UNL     1      -1.857   4.643  25.450  0.00  0.00    +0.140 A 
ATOM      3  C   UNL     1      -2.040   4.441  24.672  0.00  0.00    +0.029 A 
ATOM      4  C   UNL     1      -2.124   3.648  24.461  0.00  0.00    -0.001 A 
ATOM      5  C   UNL     1      -2.024   3.057  25.028  0.00  0.00    -0.006 A 
ATOM     28  C   UNL     1      -1.841   3.260  25.807  0.00  0.00    -0.001 A 
ATOM     29  C   UNL     1      -1.757   4.053  26.018  0.00  0.00    +0.029 A 
ENDBRANCH   6   5
ENDBRANCH   7   6
TORSDOF 5
ENDMDL
MODEL 3
REMARK VINA RESULT:     -12.4      1.571      3.841
REMARK  Name = 
REMARK  5 active torsions:
REMARK  status: ('A' for Active; 'I' for Inactive)
REMARK    1  A    between atoms: C_5  and  C_6
REMARK    2  A    between atoms: C_6  and  N_7
REMARK    3  A    between atoms: C_12  and  C_13
REMARK    4  A    between atoms: C_15  and  C_16
REMARK    5  A    between atoms: C_16  and  C_17
REMARK                            x       y       z     vdW  Elec       q    Type
REMARK                         _______ _______ _______ _____ _____    ______ ____
ROOT
ATOM      7  N   UNL     1      -3.981   1.055  24.538  0.00  0.00    -0.257 NA
ATOM      8  C   UNL     1      -4.702   0.812  24.856  0.00  0.00    +0.121 C 
ATOM      9  C   UNL     1      -5.287   1.369  25.027  0.00  0.00    +0.090 A 
ATOM     10  C   UNL     1      -5.150   2.169  24.879  0.00  0.00    +0.077 A 
ATOM     11  C   UNL     1      -4.428   2.412  24.561  0.00  0.00    +0.073 C 
ATOM     12  C   UNL     1      -3.845   1.855  24.391  0.00  0.00    +0.144 C 
ATOM     25  N   UNL     1      -5.824   2.588  25.102  0.00  0.00    -0.227 NA
ATOM     26  C   UNL     1      -6.378   2.048  25.387  0.00  0.00    +0.198 A 
ATOM     27  N   UNL     1      -6.046   1.294  25.340  0.00  0.00    -0.226 NA
ENDROOT
BRANCH  12  13
ATOM     13  C   UNL     1      -3.123   2.099  24.073  0.00  0.00    +0.251 A 
ATOM     14  N   UNL     1      -2.536   2.521  24.469  0.00  0.00    -0.193 NA
ATOM     15  C   UNL     1      -1.912   2.646  23.943  0.00  0.00    +0.185 A 
ATOM     23  N   UNL     1      -2.115   2.302  23.222  0.00  0.00    -0.060 NA
ATOM     24  O   UNL     1      -2.864   1.964  23.301  0.00  0.00    -0.336 OA
BRANCH  15  16
ATOM     16  C   UNL     1      -1.210   3.046  24.110  0.00  0.00    +0.095 C 
BRANCH  16  17
ATOM     17  C   UNL     1      -0.729   2.792  24.732  0.00  0.00    -0.014 A 
ATOM     18  C   UNL     1      -0.795   3.145  25.474  0.00  0.00    -0.004 A 
ATOM     19  C   UNL     1      -0.314   2.891  26.095  0.00  0.00    -0.000 A 
ATOM     20  C   UNL     1       0.231   2.284  25.973  0.00  0.00    -0.000 A 
ATOM     21  C   UNL     1       0.296   1.931  25.231  0.00  0.00    -0.000 A 
ATOM     22  C   UNL     1      -0.184   2.184  24.610  0.00  0.00    -0.004 A 
ENDBRANCH  16  17
ENDBRANCH  15  16
ENDBRANCH  12  13
BRANCH   7   6
ATOM      6  C   UNL     1      -3.397   0.499  24.368  0.00  0.00    +0.100 C 
BRANCH   6   5
ATOM      1  F   UNL     1      -3.708  -2.603  25.450  0.00  0.00    -0.204 F 
ATOM      2  C   UNL     1      -3.630  -1.828  25.179  0.00  0.00    +0.140 A 
ATOM      3  C   UNL     1      -3.903  -1.624  24.429  0.00  0.00    +0.029 A 
ATOM      4  C   UNL     1      -3.826  -0.848  24.158  0.00  0.00    -0.001 A 
ATOM      5  C   UNL     1      -3.475  -0.277  24.638  0.00  0.00    -0.006 A 
ATOM     28  C   UNL     1      -3.201  -0.481  25.390  0.00  0.00    -0.001 A 
ATOM     29  C   UNL     1      -3.279  -1.257  25.661  0.00  0.00    +0.029 A 
ENDBRANCH   6   5
ENDBRANCH   7   6
TORSDOF 5
ENDMDL
MODEL 4
REMARK VINA RESULT:     -12.2      2.245      5.129
REMARK  Name = 
REMARK  5 active torsions:
REMARK  status: ('A' for Active; 'I' for Inactive)
REMARK    1  A    between atoms: C_5  and  C_6
REMARK    2  A    between atoms: C_6  and  N_7
REMARK    3  A    between atoms: C_12  and  C_13
REMARK    4  A    between atoms: C_15  and  C_16
REMARK    5  A    between atoms: C_16  and  C_17
REMARK                            x       y       z     vdW  Elec       q    Type
REMARK                         _______ _______ _______ _____ _____    ______ ____
ROOT
ATOM      7  N   UNL     1      -3.599   2.506  24.993  0.00  0.00    -0.257 NA
ATOM      8  C   UNL     1      -4.020   3.145  25.301  0.00  0.00    +0.121 C 
ATOM      9  C   UNL     1      -4.828   3.074  25.453  0.00  0.00    +0.090 A 
ATOM     10  C   UNL     1      -5.215   2.362  25.295  0.00  0.00    +0.077 A 
ATOM     11  C   UNL     1      -4.794   1.722  24.987  0.00  0.00    +0.073 C 
ATOM     12  C   UNL     1      -3.987   1.795  24.836  0.00  0.00    +0.144 C 
ATOM     25  N   UNL     1      -6.009   2.454  25.499  0.00  0.00    -0.227 NA
ATOM     26  C   UNL     1      -6.113   3.222  25.782  0.00  0.00    +0.198 A 
ATOM     27  N   UNL     1      -5.382   3.604  25.753  0.00  0.00    -0.226 NA
ENDROOT
BRANCH  12  13
ATOM     13  C   UNL     1      -3.567   1.155  24.528  0.00  0.00    +0.251 A 
ATOM     14  N   UNL     1      -3.199   0.560  24.964  0.00  0.00    -0.193 NA
ATOM     15  C   UNL     1      -2.846   0.035  24.434  0.00  0.00    +0.185 A 
ATOM     23  N   UNL     1      -2.996   0.306  23.670  0.00  0.00    -0.060 NA
ATOM     24  O   UNL     1      -3.442   0.998  23.727  0.00  0.00    -0.336 OA
BRANCH  15  16
ATOM     16  C   UNL     1      -2.418  -0.641  24.635  0.00  0.00    +0.095 C 
BRANCH  16  17
ATOM     17  C   UNL     1      -2.810  -1.359  24.744  0.00  0.00    -0.014 A 
ATOM     18  C   UNL     1      -3.028  -1.598  25.504  0.00  0.00    -0.004 A 
ATOM     19  C   UNL     1      -3.420  -2.316  25.613  0.00  0.00    -0.000 A 
ATOM     20  C   UNL     1      -3.594  -2.794  24.964  0.00  0.00    -0.000 A 
ATOM     21  C   UNL     1      -3.376  -2.555  24.205  0.00  0.00    -0.000 A 
ATOM     22  C   UNL     1      -2.985  -1.838  24.095  0.00  0.00    -0.004 A 
ENDBRANCH  16  17
ENDBRANCH  15  16
ENDBRANCH  12  13
BRANCH   7   6
ATOM      6  C   UNL     1      -2.792   2.578  24.842  0.00  0.00    +0.100 C 
BRANCH   6   5
ATOM      1  F   UNL     1      -1.252   5.437  25.425  0.00  0.00    -0.204 F 
ATOM      2  C   UNL     1      -1.637   4.723  25.280  0.00  0.00    +0.140 A 
ATOM      3  C   UNL     1      -2.016   4.598  24.558  0.00  0.00    +0.029 A 
ATOM      4  C   UNL     1      -2.401   3.883  24.412  0.00  0.00    -0.001 A 
ATOM      5  C   UNL     1      -2.407   3.293  24.988  0.00  0.00    -0.006 A 
ATOM     28  C   UNL     1      -2.028   3.418  25.711  0.00  0.00    -0.001 A 
ATOM     29  C   UNL     1      -1.643   4.133  25.857  0.00  0.00    +0.029 A 
ENDBRANCH   6   5
ENDBRANCH   7   6
TORSDOF 5
ENDMDL
MODEL 5
REMARK VINA RESULT:     -12.1      1.631      4.084
REMARK  Name = 
REMARK  5 active torsions:
REMARK  status: ('A' for Active; 'I' for Inactive)
REMARK    1  A    between atoms: C_5  and  C_6
REMARK    2  A    between atoms: C_6  and  N_7
REMARK    3  A    between atoms: C_12  and  C_13
REMARK    4  A    between atoms: C_15  and  C_16
REMARK    5  A    between atoms: C_16  and  C_17
REMARK                            x       y       z     vdW  Elec       q    Type
REMARK                         _______ _______ _______ _____ _____    ______ ____
ROOT
ATOM      7  N   UNL     1      -2.534   2.237  24.711  0.00  0.00    -0.257 NA
ATOM      8  C   UNL     1      -2.676   3.041  24.824  0.00  0.00    +0.121 C 
ATOM      9  C   UNL     1      -2.054   3.548  25.015  0.00  0.00    +0.090 A 
ATOM     10  C   UNL     1      -1.288   3.249  25.093  0.00  0.00    +0.077 A 
ATOM     11  C   UNL     1      -1.145   2.444  24.979  0.00  0.00    +0.073 C 
ATOM     12  C   UNL     1      -1.768   1.938  24.788  0.00  0.00    +0.144 C 
ATOM     25  N   UNL     1      -0.788   3.876  25.284  0.00  0.00    -0.227 NA
ATOM     26  C   UNL     1      -1.244   4.563  25.324  0.00  0.00    +0.198 A 
ATOM     27  N   UNL     1      -2.026   4.359  25.158  0.00  0.00    -0.226 NA
ENDROOT
BRANCH  12  13
ATOM     13  C   UNL     1      -1.625   1.134  24.675  0.00  0.00    +0.251 A 
ATOM     14  N   UNL     1      -1.695   0.543  25.245  0.00  0.00    -0.193 NA
ATOM     15  C   UNL     1      -1.500  -0.177  24.893  0.00  0.00    +0.185 A 
ATOM     23  N   UNL     1      -1.309  -0.031  24.105  0.00  0.00    -0.060 NA
ATOM     24  O   UNL     1      -1.386   0.779  23.969  0.00  0.00    -0.336 OA
BRANCH  15  16
ATOM     16  C   UNL     1      -1.496  -0.914  25.265  0.00  0.00    +0.095 C 
BRANCH  16  17
ATOM     17  C   UNL     1      -2.135  -1.428  25.167  0.00  0.00    -0.014 A 
ATOM     18  C   UNL     1      -2.135  -1.970  24.545  0.00  0.00    -0.004 A 
ATOM     19  C   UNL     1      -2.773  -2.484  24.446  0.00  0.00    -0.000 A 
ATOM     20  C   UNL     1      -3.410  -2.456  24.970  0.00  0.00    -0.000 A 
ATOM     21  C   UNL     1      -3.409  -1.914  25.592  0.00  0.00    -0.000 A 
ATOM     22  C   UNL     1      -2.772  -1.400  25.691  0.00  0.00    -0.004 A 
ENDBRANCH  16  17
ENDBRANCH  15  16
ENDBRANCH  12  13
BRANCH   7   6
ATOM      6  C   UNL     1      -3.156   1.730  24.520  0.00  0.00    +0.100 C 
BRANCH   6   5
ATOM      1  F   UNL     1      -6.272   2.664  25.077  0.00  0.00    -0.204 F 
ATOM      2  C   UNL     1      -5.493   2.431  24.938  0.00  0.00    +0.140 A 
ATOM      3  C   UNL     1      -5.126   2.623  24.225  0.00  0.00    +0.029 A 
ATOM      4  C   UNL     1      -4.347   2.390  24.086  0.00  0.00    -0.001 A 
ATOM      5  C   UNL     1      -3.935   1.964  24.659  0.00  0.00    -0.006 A 
ATOM     28  C   UNL     1      -4.302   1.771  25.373  0.00  0.00    -0.001 A 
ATOM     29  C   UNL     1      -5.081   2.005  25.512  0.00  0.00    +0.029 A 
ENDBRANCH   6   5
ENDBRANCH   7   6
TORSDOF 5
ENDMDL
