REMARK  Name = 
REMARK  3 active torsions:
REMARK  status: ('A' for Active; 'I' for Inactive)
REMARK    1  A    between atoms: O_2  and  C_3
REMARK    2  A    between atoms: C_6  and  O_7
REMARK    3  A    between atoms: O_7  and  C_8
REMARK                            x       y       z     vdW  Elec       q    Type
REMARK                         _______ _______ _______ _____ _____    ______ ____
ROOT
ATOM      8  C   UNL     1      -0.401  -3.868   0.000  0.00  0.00    +0.215 C 
ATOM      9  C   UNL     1       0.281  -3.403   0.000  0.00  0.00    +0.187 C 
ATOM     10  O   UNL     1       1.069  -3.646   0.000  0.00  0.00    -0.348 OA
ATOM     11  C   UNL     1       1.371  -4.414   0.000  0.00  0.00    +0.164 C 
ATOM     12  C   UNL     1       0.958  -5.128   0.000  0.00  0.00    +0.126 C 
ATOM     13  N   UNL     1       0.142  -5.251   0.000  0.00  0.00    -0.273 N 
ATOM     14  C   UNL     1      -0.462  -4.690   0.000  0.00  0.00    +0.139 C 
ATOM     15  C   UNL     1      -0.101  -6.040   0.000  0.00  0.00    +0.226 C 
ATOM     16  C   UNL     1       0.460  -6.644   0.000  0.00  0.00    +0.095 C 
ATOM     17  O   UNL     1      -0.905  -6.223   0.000  0.00  0.00    -0.275 OA
ENDROOT
BRANCH   8   7
ATOM      7  O   UNL     1      -1.115  -3.455   0.000  0.00  0.00    -0.475 OA
BRANCH   7   6
ATOM      3  C   UNL     1      -1.115  -0.980   0.000  0.00  0.00    +0.139 A 
ATOM      4  C   UNL     1      -0.401  -1.393   0.000  0.00  0.00    +0.040 A 
ATOM      5  C   UNL     1      -0.401  -2.217   0.000  0.00  0.00    +0.040 A 
ATOM      6  C   UNL     1      -1.115  -2.630   0.000  0.00  0.00    +0.139 A 
ATOM     18  C   UNL     1      -1.830  -2.217   0.000  0.00  0.00    +0.040 A 
ATOM     19  C   UNL     1      -1.830  -1.393   0.000  0.00  0.00    +0.040 A 
BRANCH   3   2
ATOM      1  C   UNL     1      -1.830   0.258   0.000  0.00  0.00    +0.252 C 
ATOM      2  O   UNL     1      -1.115  -0.155   0.000  0.00  0.00    -0.471 OA
ENDBRANCH   3   2
ENDBRANCH   7   6
ENDBRANCH   8   7
TORSDOF 3
