MODEL 1
REMARK VINA RESULT:     -15.2      0.000      0.000
REMARK  Name = 
REMARK  4 active torsions:
REMARK  status: ('A' for Active; 'I' for Inactive)
REMARK    1  A    between atoms: C_8  and  C_10
REMARK    2  A    between atoms: C_10  and  C_11
REMARK    3  A    between atoms: C_16  and  C_18
REMARK    4  A    between atoms: C_29  and  C_31
REMARK                            x       y       z     vdW  Elec       q    Type
REMARK                         _______ _______ _______ _____ _____    ______ ____
ROOT
ATOM     11  C   UNL     1      -3.749   1.151  24.616  0.00  0.00    +0.050 C 
ATOM     12  C   UNL     1      -2.982   1.434  24.498  0.00  0.00    +0.063 A 
ATOM     13  C   UNL     1      -2.809   2.228  24.637  0.00  0.00    +0.023 A 
ATOM     14  C   UNL     1      -3.403   2.740  24.893  0.00  0.00    +0.034 C 
ATOM     15  C   UNL     1      -4.169   2.459  25.010  0.00  0.00    +0.010 C 
ATOM     16  C   UNL     1      -4.763   2.971  25.266  0.00  0.00    +0.059 C 
ATOM     17  C   UNL     1      -4.126   3.494  25.234  0.00  0.00    +0.005 C 
ATOM     20  C   UNL     1      -5.529   2.689  25.384  0.00  0.00    +0.154 C 
ATOM     21  O   UNL     1      -6.123   3.201  25.640  0.00  0.00    -0.223 OA
ATOM     22  C   UNL     1      -5.702   1.894  25.245  0.00  0.00    +0.033 C 
ATOM     23  C   UNL     1      -5.108   1.381  24.989  0.00  0.00    +0.003 C 
ATOM     24  C   UNL     1      -4.342   1.664  24.872  0.00  0.00    +0.006 C 
ATOM     25  C   UNL     1      -4.515   0.869  24.733  0.00  0.00    +0.000 C 
ATOM     26  S   UNL     1      -2.009   2.347  24.475  0.00  0.00    -0.054 S 
ATOM     27  C   UNL     1      -1.688   1.627  24.236  0.00  0.00    +0.186 A 
ATOM     28  N   UNL     1      -0.903   1.494  24.021  0.00  0.00    -0.148 NA
ATOM     29  C   UNL     1      -0.659   0.738  23.793  0.00  0.00    +0.305 C 
ATOM     30  O   UNL     1      -1.202   0.117  23.781  0.00  0.00    -0.265 OA
ATOM     36  N   UNL     1      -2.288   1.061  24.250  0.00  0.00    -0.227 NA
ENDROOT
BRANCH  29  31
ATOM     31  C   UNL     1       0.126   0.605  23.577  0.00  0.00    +0.201 A 
ATOM     32  C   UNL     1       0.412  -0.050  23.166  0.00  0.00    +0.046 A 
ATOM     33  C   UNL     1       1.226   0.043  23.069  0.00  0.00    +0.044 A 
ATOM     34  C   UNL     1       1.443   0.757  23.421  0.00  0.00    +0.180 A 
ATOM     35  O   UNL     1       0.763   1.104  23.735  0.00  0.00    -0.446 OA
ENDBRANCH  29  31
BRANCH  16  18
ATOM     18  C   UNL     1      -5.136   3.665  25.511  0.00  0.00    +0.184 C 
ATOM     19  O   UNL     1      -4.776   4.395  25.380  0.00  0.00    -0.220 OA
ENDBRANCH  16  18
BRANCH  11  10
ATOM     10  C   UNL     1      -3.921   0.357  24.477  0.00  0.00    +0.091 C 
BRANCH  10   8
ATOM      1  C   UNL     1      -3.767  -3.411  24.206  0.00  0.00    +0.000 C 
ATOM      2  C   UNL     1      -3.750  -2.612  24.411  0.00  0.00    +0.003 C 
ATOM      3  C   UNL     1      -3.971  -2.039  23.861  0.00  0.00    +0.022 C 
ATOM      4  C   UNL     1      -3.955  -1.240  24.066  0.00  0.00    +0.093 C 
ATOM      5  N   UNL     1      -3.717  -1.014  24.823  0.00  0.00    -0.280 N 
ATOM      6  C   UNL     1      -3.496  -1.586  25.374  0.00  0.00    +0.093 C 
ATOM      7  C   UNL     1      -3.513  -2.385  25.168  0.00  0.00    +0.022 C 
ATOM      8  C   UNL     1      -3.700  -0.216  25.028  0.00  0.00    +0.226 C 
ATOM      9  O   UNL     1      -3.463   0.011  25.785  0.00  0.00    -0.275 OA
ENDBRANCH  10   8
ENDBRANCH  11  10
TORSDOF 4
ENDMDL
MODEL 2
REMARK VINA RESULT:     -13.4      1.701      5.138
REMARK  Name = 
REMARK  4 active torsions:
REMARK  status: ('A' for Active; 'I' for Inactive)
REMARK    1  A    between atoms: C_8  and  C_10
REMARK    2  A    between atoms: C_10  and  C_11
REMARK    3  A    between atoms: C_16  and  C_18
REMARK    4  A    between atoms: C_29  and  C_31
REMARK                            x       y       z     vdW  Elec       q    Type
REMARK                         _______ _______ _______ _____ _____    ______ ____
ROOT
ATOM     11  C   UNL     1      -2.726  -0.187  24.979  0.00  0.00    +0.050 C 
ATOM     12  C   UNL     1      -3.445   0.216  24.924  0.00  0.00    +0.063 A 
ATOM     13  C   UNL     1      -4.122  -0.181  24.670  0.00  0.00    +0.023 A 
ATOM     14  C   UNL     1      -4.081  -0.981  24.471  0.00  0.00    +0.034 C 
ATOM     15  C   UNL     1      -3.363  -1.383  24.525  0.00  0.00    +0.010 C 
ATOM     16  C   UNL     1      -3.322  -2.182  24.326  0.00  0.00    +0.059 C 
ATOM     17  C   UNL     1      -4.122  -2.041  24.185  0.00  0.00    +0.005 C 
ATOM     20  C   UNL     1      -2.604  -2.586  24.380  0.00  0.00    +0.154 C 
ATOM     21  O   UNL     1      -2.563  -3.385  24.181  0.00  0.00    -0.223 OA
ATOM     22  C   UNL     1      -1.927  -2.189  24.634  0.00  0.00    +0.033 C 
ATOM     23  C   UNL     1      -1.968  -1.388  24.834  0.00  0.00    +0.003 C 
ATOM     24  C   UNL     1      -2.686  -0.987  24.779  0.00  0.00    +0.006 C 
ATOM     25  C   UNL     1      -2.009  -0.590  25.033  0.00  0.00    +0.000 C 
ATOM     26  S   UNL     1      -4.748   0.356  24.671  0.00  0.00    -0.054 S 
ATOM     27  C   UNL     1      -4.458   1.084  24.926  0.00  0.00    +0.186 A 
ATOM     28  N   UNL     1      -4.896   1.778  25.009  0.00  0.00    -0.148 NA
ATOM     29  C   UNL     1      -4.529   2.470  25.271  0.00  0.00    +0.305 C 
ATOM     30  O   UNL     1      -3.723   2.466  25.449  0.00  0.00    -0.265 OA
ATOM     36  N   UNL     1      -3.653   0.999  25.082  0.00  0.00    -0.227 NA
ENDROOT
BRANCH  29  31
ATOM     31  C   UNL     1      -4.967   3.164  25.355  0.00  0.00    +0.201 A 
ATOM     32  C   UNL     1      -4.718   3.922  25.149  0.00  0.00    +0.046 A 
ATOM     33  C   UNL     1      -5.328   4.449  25.326  0.00  0.00    +0.044 A 
ATOM     34  C   UNL     1      -5.954   4.015  25.642  0.00  0.00    +0.180 A 
ATOM     35  O   UNL     1      -5.731   3.221  25.659  0.00  0.00    -0.446 OA
ENDBRANCH  29  31
BRANCH  16  18
ATOM     18  C   UNL     1      -3.559  -2.933  24.077  0.00  0.00    +0.184 C 
ATOM     19  O   UNL     1      -4.329  -3.056  23.811  0.00  0.00    -0.220 OA
ENDBRANCH  16  18
BRANCH  11  10
ATOM     10  C   UNL     1      -2.050   0.209  25.233  0.00  0.00    +0.091 C 
BRANCH  10   8
ATOM      1  C   UNL     1       0.527   2.902  25.868  0.00  0.00    +0.000 C 
ATOM      2  C   UNL     1      -0.013   2.350  25.579  0.00  0.00    +0.003 C 
ATOM      3  C   UNL     1      -0.428   1.865  26.101  0.00  0.00    +0.022 C 
ATOM      4  C   UNL     1      -0.969   1.313  25.812  0.00  0.00    +0.093 C 
ATOM      5  N   UNL     1      -1.094   1.246  25.000  0.00  0.00    -0.280 N 
ATOM      6  C   UNL     1      -0.680   1.730  24.477  0.00  0.00    +0.093 C 
ATOM      7  C   UNL     1      -0.139   2.282  24.766  0.00  0.00    +0.022 C 
ATOM      8  C   UNL     1      -1.635   0.694  24.710  0.00  0.00    +0.226 C 
ATOM      9  O   UNL     1      -1.761   0.626  23.898  0.00  0.00    -0.275 OA
ENDBRANCH  10   8
ENDBRANCH  11  10
TORSDOF 4
ENDMDL
MODEL 3
REMARK VINA RESULT:     -13.4      1.823      4.233
REMARK  Name = 
REMARK  4 active torsions:
REMARK  status: ('A' for Active; 'I' for Inactive)
REMARK    1  A    between atoms: C_8  and  C_10
REMARK    2  A    between atoms: C_10  and  C_11
REMARK    3  A    between atoms: C_16  and  C_18
REMARK    4  A    between atoms: C_29  and  C_31
REMARK                            x       y       z     vdW  Elec       q    Type
REMARK                         _______ _______ _______ _____ _____    ______ ____
ROOT
ATOM     11  C   UNL     1      -3.087   0.025  25.049  0.00  0.00    +0.050 C 
ATOM     12  C   UNL     1      -2.430   0.507  24.920  0.00  0.00    +0.063 A 
ATOM     13  C   UNL     1      -1.712   0.174  24.686  0.00  0.00    +0.023 A 
ATOM     14  C   UNL     1      -1.652  -0.643  24.582  0.00  0.00    +0.034 C 
ATOM     15  C   UNL     1      -2.308  -1.125  24.712  0.00  0.00    +0.010 C 
ATOM     16  C   UNL     1      -2.247  -1.940  24.608  0.00  0.00    +0.059 C 
ATOM     17  C   UNL     1      -1.477  -1.714  24.420  0.00  0.00    +0.005 C 
ATOM     20  C   UNL     1      -2.903  -2.424  24.738  0.00  0.00    +0.154 C 
ATOM     21  O   UNL     1      -2.843  -3.240  24.634  0.00  0.00    -0.223 OA
ATOM     22  C   UNL     1      -3.621  -2.090  24.971  0.00  0.00    +0.033 C 
ATOM     23  C   UNL     1      -3.682  -1.273  25.075  0.00  0.00    +0.003 C 
ATOM     24  C   UNL     1      -3.025  -0.791  24.945  0.00  0.00    +0.006 C 
ATOM     25  C   UNL     1      -3.743  -0.458  25.179  0.00  0.00    +0.000 C 
ATOM     26  S   UNL     1      -1.163   0.784  24.600  0.00  0.00    -0.054 S 
ATOM     27  C   UNL     1      -1.542   1.494  24.780  0.00  0.00    +0.186 A 
ATOM     28  N   UNL     1      -1.198   2.244  24.765  0.00  0.00    -0.148 NA
ATOM     29  C   UNL     1      -1.648   2.908  24.960  0.00  0.00    +0.305 C 
ATOM     30  O   UNL     1      -2.441   2.822  25.169  0.00  0.00    -0.265 OA
ATOM     36  N   UNL     1      -2.324   1.324  24.977  0.00  0.00    -0.227 NA
ENDROOT
BRANCH  29  31
ATOM     31  C   UNL     1      -1.304   3.658  24.945  0.00  0.00    +0.201 A 
ATOM     32  C   UNL     1      -1.635   4.350  25.247  0.00  0.00    +0.046 A 
ATOM     33  C   UNL     1      -1.105   4.968  25.114  0.00  0.00    +0.044 A 
ATOM     34  C   UNL     1      -0.445   4.657  24.729  0.00  0.00    +0.180 A 
ATOM     35  O   UNL     1      -0.568   3.848  24.624  0.00  0.00    -0.446 OA
ENDBRANCH  29  31
BRANCH  16  18
ATOM     18  C   UNL     1      -1.919  -2.679  24.439  0.00  0.00    +0.184 C 
ATOM     19  O   UNL     1      -1.165  -2.729  24.110  0.00  0.00    -0.220 OA
ENDBRANCH  16  18
BRANCH  11  10
ATOM     10  C   UNL     1      -3.804   0.358  25.283  0.00  0.00    +0.091 C 
BRANCH  10   8
ATOM      1  C   UNL     1      -6.668   2.784  25.736  0.00  0.00    +0.000 C 
ATOM      2  C   UNL     1      -6.071   2.273  25.484  0.00  0.00    +0.003 C 
ATOM      3  C   UNL     1      -5.594   1.891  26.038  0.00  0.00    +0.022 C 
ATOM      4  C   UNL     1      -4.997   1.380  25.786  0.00  0.00    +0.093 C 
ATOM      5  N   UNL     1      -4.878   1.251  24.981  0.00  0.00    -0.280 N 
ATOM      6  C   UNL     1      -5.354   1.633  24.427  0.00  0.00    +0.093 C 
ATOM      7  C   UNL     1      -5.951   2.144  24.679  0.00  0.00    +0.022 C 
ATOM      8  C   UNL     1      -4.281   0.740  24.729  0.00  0.00    +0.226 C 
ATOM      9  O   UNL     1      -4.161   0.610  23.923  0.00  0.00    -0.275 OA
ENDBRANCH  10   8
ENDBRANCH  11  10
TORSDOF 4
ENDMDL
MODEL 4
REMARK VINA RESULT:     -12.8      2.273      4.234
REMARK  Name = 
REMARK  4 active torsions:
REMARK  status: ('A' for Active; 'I' for Inactive)
REMARK    1  A    between atoms: C_8  and  C_10
REMARK    2  A    between atoms: C_10  and  C_11
REMARK    3  A    between atoms: C_16  and  C_18
REMARK    4  A    between atoms: C_29  and  C_31
REMARK                            x       y       z     vdW  Elec       q    Type
REMARK                         _______ _______ _______ _____ _____    ______ ____
ROOT
ATOM     11  C   UNL     1      -1.640   0.358  24.553  0.00  0.00    +0.050 C 
ATOM     12  C   UNL     1      -0.971  -0.027  24.259  0.00  0.00    +0.063 A 
ATOM     13  C   UNL     1      -0.942  -0.851  24.243  0.00  0.00    +0.023 A 
ATOM     14  C   UNL     1      -1.583  -1.291  24.521  0.00  0.00    +0.034 C 
ATOM     15  C   UNL     1      -2.250  -0.908  24.815  0.00  0.00    +0.010 C 
ATOM     16  C   UNL     1      -2.890  -1.348  25.093  0.00  0.00    +0.059 C 
ATOM     17  C   UNL     1      -2.383  -1.958  24.869  0.00  0.00    +0.005 C 
ATOM     20  C   UNL     1      -3.558  -0.964  25.388  0.00  0.00    +0.154 C 
ATOM     21  O   UNL     1      -4.198  -1.404  25.667  0.00  0.00    -0.223 OA
ATOM     22  C   UNL     1      -3.587  -0.140  25.404  0.00  0.00    +0.033 C 
ATOM     23  C   UNL     1      -2.947   0.301  25.126  0.00  0.00    +0.003 C 
ATOM     24  C   UNL     1      -2.279  -0.083  24.832  0.00  0.00    +0.006 C 
ATOM     25  C   UNL     1      -2.307   0.741  24.848  0.00  0.00    +0.000 C 
ATOM     26  S   UNL     1      -0.215  -1.075  23.923  0.00  0.00    -0.054 S 
ATOM     27  C   UNL     1       0.205  -0.389  23.742  0.00  0.00    +0.186 A 
ATOM     28  N   UNL     1       0.960  -0.356  23.411  0.00  0.00    -0.148 NA
ATOM     29  C   UNL     1       1.313   0.374  23.260  0.00  0.00    +0.305 C 
ATOM     30  O   UNL     1       0.911   1.071  23.439  0.00  0.00    -0.265 OA
ATOM     36  N   UNL     1      -0.261   0.259  23.949  0.00  0.00    -0.227 NA
ENDROOT
BRANCH  29  31
ATOM     31  C   UNL     1       2.068   0.407  22.929  0.00  0.00    +0.201 A 
ATOM     32  C   UNL     1       2.678   0.912  23.161  0.00  0.00    +0.046 A 
ATOM     33  C   UNL     1       3.333   0.758  22.684  0.00  0.00    +0.044 A 
ATOM     34  C   UNL     1       3.129   0.157  22.157  0.00  0.00    +0.180 A 
ATOM     35  O   UNL     1       2.347  -0.059  22.309  0.00  0.00    -0.446 OA
ENDBRANCH  29  31
BRANCH  16  18
ATOM     18  C   UNL     1      -3.354  -2.000  25.294  0.00  0.00    +0.184 C 
ATOM     19  O   UNL     1      -3.165  -2.747  25.000  0.00  0.00    -0.220 OA
ENDBRANCH  16  18
BRANCH  11  10
ATOM     10  C   UNL     1      -1.668   1.181  24.570  0.00  0.00    +0.091 C 
BRANCH  10   8
ATOM      1  C   UNL     1      -0.999   4.878  24.998  0.00  0.00    +0.000 C 
ATOM      2  C   UNL     1      -1.072   4.057  25.042  0.00  0.00    +0.003 C 
ATOM      3  C   UNL     1      -1.449   3.643  24.436  0.00  0.00    +0.022 C 
ATOM      4  C   UNL     1      -1.522   2.822  24.481  0.00  0.00    +0.093 C 
ATOM      5  N   UNL     1      -1.219   2.416  25.131  0.00  0.00    -0.280 N 
ATOM      6  C   UNL     1      -0.843   2.830  25.737  0.00  0.00    +0.093 C 
ATOM      7  C   UNL     1      -0.770   3.650  25.693  0.00  0.00    +0.022 C 
ATOM      8  C   UNL     1      -1.292   1.595  25.175  0.00  0.00    +0.226 C 
ATOM      9  O   UNL     1      -0.989   1.188  25.826  0.00  0.00    -0.275 OA
ENDBRANCH  10   8
ENDBRANCH  11  10
TORSDOF 4
ENDMDL
MODEL 5
REMARK VINA RESULT:     -12.6      1.189      3.574
REMARK  Name = 
REMARK  4 active torsions:
REMARK  status: ('A' for Active; 'I' for Inactive)
REMARK    1  A    between atoms: C_8  and  C_10
REMARK    2  A    between atoms: C_10  and  C_11
REMARK    3  A    between atoms: C_16  and  C_18
REMARK    4  A    between atoms: C_29  and  C_31
REMARK                            x       y       z     vdW  Elec       q    Type
REMARK                         _______ _______ _______ _____ _____    ______ ____
ROOT
ATOM     11  C   UNL     1      -3.437   2.012  24.692  0.00  0.00    +0.050 C 
ATOM     12  C   UNL     1      -3.830   1.290  24.768  0.00  0.00    +0.063 A 
ATOM     13  C   UNL     1      -4.612   1.271  25.029  0.00  0.00    +0.023 A 
ATOM     14  C   UNL     1      -5.002   1.974  25.214  0.00  0.00    +0.034 C 
ATOM     15  C   UNL     1      -4.611   2.695  25.138  0.00  0.00    +0.010 C 
ATOM     16  C   UNL     1      -5.000   3.398  25.323  0.00  0.00    +0.059 C 
ATOM     17  C   UNL     1      -5.600   2.855  25.482  0.00  0.00    +0.005 C 
ATOM     20  C   UNL     1      -4.609   4.120  25.247  0.00  0.00    +0.154 C 
ATOM     21  O   UNL     1      -4.999   4.824  25.432  0.00  0.00    -0.223 OA
ATOM     22  C   UNL     1      -3.826   4.139  24.986  0.00  0.00    +0.033 C 
ATOM     23  C   UNL     1      -3.436   3.436  24.801  0.00  0.00    +0.003 C 
ATOM     24  C   UNL     1      -3.828   2.714  24.877  0.00  0.00    +0.006 C 
ATOM     25  C   UNL     1      -3.046   2.733  24.616  0.00  0.00    +0.000 C 
ATOM     26  S   UNL     1      -4.855   0.482  25.050  0.00  0.00    -0.054 S 
ATOM     27  C   UNL     1      -4.223   0.015  24.802  0.00  0.00    +0.186 A 
ATOM     28  N   UNL     1      -4.224  -0.808  24.739  0.00  0.00    -0.148 NA
ATOM     29  C   UNL     1      -3.547  -1.203  24.481  0.00  0.00    +0.305 C 
ATOM     30  O   UNL     1      -2.869  -0.775  24.287  0.00  0.00    -0.265 OA
ATOM     36  N   UNL     1      -3.589   0.513  24.628  0.00  0.00    -0.227 NA
ENDROOT
BRANCH  29  31
ATOM     31  C   UNL     1      -3.548  -2.026  24.418  0.00  0.00    +0.201 A 
ATOM     32  C   UNL     1      -3.096  -2.547  24.870  0.00  0.00    +0.046 A 
ATOM     33  C   UNL     1      -3.269  -3.316  24.624  0.00  0.00    +0.044 A 
ATOM     34  C   UNL     1      -3.828  -3.269  24.019  0.00  0.00    +0.180 A 
ATOM     35  O   UNL     1      -4.000  -2.471  23.892  0.00  0.00    -0.446 OA
ENDBRANCH  29  31
BRANCH  16  18
ATOM     18  C   UNL     1      -5.599   3.913  25.563  0.00  0.00    +0.184 C 
ATOM     19  O   UNL     1      -6.313   3.612  25.847  0.00  0.00    -0.220 OA
ENDBRANCH  16  18
BRANCH  11  10
ATOM     10  C   UNL     1      -2.656   2.031  24.431  0.00  0.00    +0.091 C 
BRANCH  10   8
ATOM      1  C   UNL     1       1.029   1.411  23.852  0.00  0.00    +0.000 C 
ATOM      2  C   UNL     1       0.262   1.533  24.130  0.00  0.00    +0.003 C 
ATOM      3  C   UNL     1      -0.355   1.664  23.598  0.00  0.00    +0.022 C 
ATOM      4  C   UNL     1      -1.122   1.786  23.876  0.00  0.00    +0.093 C 
ATOM      5  N   UNL     1      -1.273   1.778  24.686  0.00  0.00    -0.280 N 
ATOM      6  C   UNL     1      -0.657   1.647  25.219  0.00  0.00    +0.093 C 
ATOM      7  C   UNL     1       0.110   1.525  24.941  0.00  0.00    +0.022 C 
ATOM      8  C   UNL     1      -2.040   1.900  24.964  0.00  0.00    +0.226 C 
ATOM      9  O   UNL     1      -2.191   1.891  25.775  0.00  0.00    -0.275 OA
ENDBRANCH  10   8
ENDBRANCH  11  10
TORSDOF 4
ENDMDL
MODEL 6
REMARK VINA RESULT:     -12.6      1.913      3.691
REMARK  Name = 
REMARK  4 active torsions:
REMARK  status: ('A' for Active; 'I' for Inactive)
REMARK    1  A    between atoms: C_8  and  C_10
REMARK    2  A    between atoms: C_10  and  C_11
REMARK    3  A    between atoms: C_16  and  C_18
REMARK    4  A    between atoms: C_29  and  C_31
REMARK                            x       y       z     vdW  Elec       q    Type
REMARK                         _______ _______ _______ _____ _____    ______ ____
ROOT
ATOM     11  C   UNL     1      -2.474   2.796  25.173  0.00  0.00    +0.050 C 
ATOM     12  C   UNL     1      -2.012   2.135  24.995  0.00  0.00    +0.063 A 
ATOM     13  C   UNL     1      -1.218   2.228  24.795  0.00  0.00    +0.023 A 
ATOM     14  C   UNL     1      -0.884   2.982  24.772  0.00  0.00    +0.034 C 
ATOM     15  C   UNL     1      -1.344   3.643  24.949  0.00  0.00    +0.010 C 
ATOM     16  C   UNL     1      -1.011   4.396  24.926  0.00  0.00    +0.059 C 
ATOM     17  C   UNL     1      -0.355   3.943  24.715  0.00  0.00    +0.005 C 
ATOM     20  C   UNL     1      -1.471   5.058  25.103  0.00  0.00    +0.154 C 
ATOM     21  O   UNL     1      -1.138   5.812  25.080  0.00  0.00    -0.223 OA
ATOM     22  C   UNL     1      -2.266   4.965  25.304  0.00  0.00    +0.033 C 
ATOM     23  C   UNL     1      -2.600   4.210  25.327  0.00  0.00    +0.003 C 
ATOM     24  C   UNL     1      -2.139   3.550  25.150  0.00  0.00    +0.006 C 
ATOM     25  C   UNL     1      -2.934   3.457  25.350  0.00  0.00    +0.000 C 
ATOM     26  S   UNL     1      -0.902   1.479  24.648  0.00  0.00    -0.054 S 
ATOM     27  C   UNL     1      -1.502   0.925  24.758  0.00  0.00    +0.186 A 
ATOM     28  N   UNL     1      -1.429   0.108  24.669  0.00  0.00    -0.148 NA
ATOM     29  C   UNL     1      -2.081  -0.382  24.798  0.00  0.00    +0.305 C 
ATOM     30  O   UNL     1      -2.805  -0.053  25.017  0.00  0.00    -0.265 OA
ATOM     36  N   UNL     1      -2.188   1.329  24.973  0.00  0.00    -0.227 NA
ENDROOT
BRANCH  29  31
ATOM     31  C   UNL     1      -2.008  -1.199  24.709  0.00  0.00    +0.201 A 
ATOM     32  C   UNL     1      -2.629  -1.738  24.651  0.00  0.00    +0.046 A 
ATOM     33  C   UNL     1      -2.307  -2.493  24.569  0.00  0.00    +0.044 A 
ATOM     34  C   UNL     1      -1.485  -2.420  24.576  0.00  0.00    +0.180 A 
ATOM     35  O   UNL     1      -1.300  -1.620  24.663  0.00  0.00    -0.446 OA
ENDBRANCH  29  31
BRANCH  16  18
ATOM     18  C   UNL     1      -0.449   4.993  24.829  0.00  0.00    +0.184 C 
ATOM     19  O   UNL     1       0.103   4.946  24.218  0.00  0.00    -0.220 OA
ENDBRANCH  16  18
BRANCH  11  10
ATOM     10  C   UNL     1      -3.267   2.703  25.374  0.00  0.00    +0.091 C 
BRANCH  10   8
ATOM      1  C   UNL     1      -6.904   1.691  25.584  0.00  0.00    +0.000 C 
ATOM      2  C   UNL     1      -6.136   1.916  25.384  0.00  0.00    +0.003 C 
ATOM      3  C   UNL     1      -5.572   2.028  25.974  0.00  0.00    +0.022 C 
ATOM      4  C   UNL     1      -4.804   2.253  25.774  0.00  0.00    +0.093 C 
ATOM      5  N   UNL     1      -4.600   2.366  24.983  0.00  0.00    -0.280 N 
ATOM      6  C   UNL     1      -5.164   2.254  24.392  0.00  0.00    +0.093 C 
ATOM      7  C   UNL     1      -5.932   2.029  24.593  0.00  0.00    +0.022 C 
ATOM      8  C   UNL     1      -3.832   2.591  24.783  0.00  0.00    +0.226 C 
ATOM      9  O   UNL     1      -3.628   2.703  23.992  0.00  0.00    -0.275 OA
ENDBRANCH  10   8
ENDBRANCH  11  10
TORSDOF 4
ENDMDL
