MODEL 1
REMARK VINA RESULT:     -11.1      0.000      0.000
REMARK  Name = 
REMARK  5 active torsions:
REMARK  status: ('A' for Active; 'I' for Inactive)
REMARK    1  A    between atoms: C_2  and  C_3
REMARK    2  A    between atoms: C_5  and  C_6
REMARK    3  A    between atoms: C_6  and  N_7
REMARK    4  A    between atoms: C_8  and  C_10
REMARK    5  A    between atoms: C_16  and  N_19
REMARK                            x       y       z     vdW  Elec       q    Type
REMARK                         _______ _______ _______ _____ _____    ______ ____
ROOT
ATOM      3  C   UNL     1      -1.040   1.600  24.370  0.00  0.00    +0.180 C 
ATOM      4  O   UNL     1      -1.563   0.980  24.514  0.00  0.00    -0.350 OA
ATOM      5  C   UNL     1      -2.315   1.303  24.627  0.00  0.00    +0.154 C 
ATOM     16  C   UNL     1      -2.254   2.122  24.551  0.00  0.00    +0.120 C 
ATOM     17  C   UNL     1      -1.465   2.306  24.393  0.00  0.00    +0.198 C 
ATOM     18  O   UNL     1      -1.159   3.063  24.277  0.00  0.00    -0.219 OA
ENDROOT
BRANCH  16  19
ATOM     19  N   UNL     1      -2.874   2.662  24.622  0.00  0.00    -0.270 NA
ATOM     20  C   UNL     1      -3.040   3.005  25.354  0.00  0.00    +0.072 C 
ATOM     21  C   UNL     1      -3.660   3.546  25.425  0.00  0.00    +0.017 C 
ATOM     22  C   UNL     1      -4.113   3.743  24.763  0.00  0.00    +0.003 C 
ATOM     23  C   UNL     1      -3.946   3.400  24.032  0.00  0.00    +0.017 C 
ATOM     24  C   UNL     1      -3.326   2.859  23.961  0.00  0.00    +0.072 C 
ENDBRANCH  16  19
BRANCH   3   2
ATOM      1  O   UNL     1       0.072   0.828  23.909  0.00  0.00    -0.218 OA
ATOM      2  C   UNL     1      -0.229   1.527  24.227  0.00  0.00    +0.214 C 
ENDBRANCH   3   2
BRANCH   5   6
ATOM      6  C   UNL     1      -3.005   0.880  24.786  0.00  0.00    +0.146 C 
BRANCH   6   7
ATOM      7  N   UNL     1      -3.044   0.074  24.614  0.00  0.00    -0.199 NA
ATOM      8  C   UNL     1      -3.694  -0.369  24.862  0.00  0.00    +0.265 C 
ATOM      9  O   UNL     1      -4.305  -0.007  25.281  0.00  0.00    -0.268 OA
BRANCH   8  10
ATOM     10  C   UNL     1      -3.734  -1.176  24.691  0.00  0.00    +0.055 A 
ATOM     11  C   UNL     1      -4.123  -1.434  24.011  0.00  0.00    +0.005 A 
ATOM     12  C   UNL     1      -4.163  -2.240  23.838  0.00  0.00    +0.000 A 
ATOM     13  C   UNL     1      -3.813  -2.788  24.347  0.00  0.00    +0.000 A 
ATOM     14  C   UNL     1      -3.424  -2.529  25.027  0.00  0.00    +0.000 A 
ATOM     15  C   UNL     1      -3.384  -1.723  25.199  0.00  0.00    +0.005 A 
ENDBRANCH   8  10
ENDBRANCH   6   7
ENDBRANCH   5   6
TORSDOF 5
ENDMDL
MODEL 2
REMARK VINA RESULT:     -10.7      1.301      2.630
REMARK  Name = 
REMARK  5 active torsions:
REMARK  status: ('A' for Active; 'I' for Inactive)
REMARK    1  A    between atoms: C_2  and  C_3
REMARK    2  A    between atoms: C_5  and  C_6
REMARK    3  A    between atoms: C_6  and  N_7
REMARK    4  A    between atoms: C_8  and  C_10
REMARK    5  A    between atoms: C_16  and  N_19
REMARK                            x       y       z     vdW  Elec       q    Type
REMARK                         _______ _______ _______ _____ _____    ______ ____
ROOT
ATOM      3  C   UNL     1      -4.690   2.565  25.217  0.00  0.00    +0.180 C 
ATOM      4  O   UNL     1      -4.436   1.805  25.026  0.00  0.00    -0.350 OA
ATOM      5  C   UNL     1      -3.613   1.821  24.959  0.00  0.00    +0.154 C 
ATOM     16  C   UNL     1      -3.361   2.592  25.109  0.00  0.00    +0.120 C 
ATOM     17  C   UNL     1      -4.027   3.052  25.268  0.00  0.00    +0.198 C 
ATOM     18  O   UNL     1      -4.027   3.858  25.447  0.00  0.00    -0.219 OA
ENDROOT
BRANCH  16  19
ATOM     19  N   UNL     1      -2.579   2.856  25.100  0.00  0.00    -0.270 NA
ATOM     20  C   UNL     1      -2.237   3.109  24.394  0.00  0.00    +0.072 C 
ATOM     21  C   UNL     1      -1.455   3.373  24.385  0.00  0.00    +0.017 C 
ATOM     22  C   UNL     1      -1.016   3.384  25.085  0.00  0.00    +0.003 C 
ATOM     23  C   UNL     1      -1.359   3.132  25.790  0.00  0.00    +0.017 C 
ATOM     24  C   UNL     1      -2.141   2.867  25.799  0.00  0.00    +0.072 C 
ENDBRANCH  16  19
BRANCH   3   2
ATOM      1  O   UNL     1      -6.091   2.291  25.130  0.00  0.00    -0.218 OA
ATOM      2  C   UNL     1      -5.474   2.798  25.336  0.00  0.00    +0.214 C 
ENDBRANCH   3   2
BRANCH   5   6
ATOM      6  C   UNL     1      -3.128   1.179  24.775  0.00  0.00    +0.146 C 
BRANCH   6   7
ATOM      7  N   UNL     1      -3.446   0.418  24.746  0.00  0.00    -0.199 NA
ATOM      8  C   UNL     1      -2.972  -0.217  24.516  0.00  0.00    +0.265 C 
ATOM      9  O   UNL     1      -2.183  -0.092  24.315  0.00  0.00    -0.268 OA
BRANCH   8  10
ATOM     10  C   UNL     1      -3.289  -0.979  24.487  0.00  0.00    +0.055 A 
ATOM     11  C   UNL     1      -3.061  -1.542  25.045  0.00  0.00    +0.005 A 
ATOM     12  C   UNL     1      -3.377  -2.304  25.016  0.00  0.00    +0.000 A 
ATOM     13  C   UNL     1      -3.922  -2.502  24.429  0.00  0.00    +0.000 A 
ATOM     14  C   UNL     1      -4.151  -1.938  23.871  0.00  0.00    +0.000 A 
ATOM     15  C   UNL     1      -3.834  -1.177  23.900  0.00  0.00    +0.005 A 
ENDBRANCH   8  10
ENDBRANCH   6   7
ENDBRANCH   5   6
TORSDOF 5
ENDMDL
MODEL 3
REMARK VINA RESULT:      -9.9      1.778      4.830
REMARK  Name = 
REMARK  5 active torsions:
REMARK  status: ('A' for Active; 'I' for Inactive)
REMARK    1  A    between atoms: C_2  and  C_3
REMARK    2  A    between atoms: C_5  and  C_6
REMARK    3  A    between atoms: C_6  and  N_7
REMARK    4  A    between atoms: C_8  and  C_10
REMARK    5  A    between atoms: C_16  and  N_19
REMARK                            x       y       z     vdW  Elec       q    Type
REMARK                         _______ _______ _______ _____ _____    ______ ____
ROOT
ATOM      3  C   UNL     1      -5.223   2.284  25.264  0.00  0.00    +0.180 C 
ATOM      4  O   UNL     1      -4.449   2.567  25.252  0.00  0.00    -0.350 OA
ATOM      5  C   UNL     1      -3.949   1.933  25.083  0.00  0.00    +0.154 C 
ATOM     16  C   UNL     1      -4.414   1.258  24.990  0.00  0.00    +0.120 C 
ATOM     17  C   UNL     1      -5.203   1.476  25.102  0.00  0.00    +0.198 C 
ATOM     18  O   UNL     1      -5.855   0.971  25.060  0.00  0.00    -0.219 OA
ENDROOT
BRANCH  16  19
ATOM     19  N   UNL     1      -4.140   0.500  24.816  0.00  0.00    -0.270 NA
ATOM     20  C   UNL     1      -3.989  -0.034  25.427  0.00  0.00    +0.072 C 
ATOM     21  C   UNL     1      -3.714  -0.793  25.253  0.00  0.00    +0.017 C 
ATOM     22  C   UNL     1      -3.591  -1.016  24.468  0.00  0.00    +0.003 C 
ATOM     23  C   UNL     1      -3.742  -0.483  23.858  0.00  0.00    +0.017 C 
ATOM     24  C   UNL     1      -4.017   0.276  24.032  0.00  0.00    +0.072 C 
ENDBRANCH  16  19
BRANCH   3   2
ATOM      1  O   UNL     1      -5.837   3.468  25.778  0.00  0.00    -0.218 OA
ATOM      2  C   UNL     1      -5.901   2.732  25.411  0.00  0.00    +0.214 C 
ENDBRANCH   3   2
BRANCH   5   6
ATOM      6  C   UNL     1      -3.127   1.968  25.017  0.00  0.00    +0.146 C 
BRANCH   6   7
ATOM      7  N   UNL     1      -2.749   2.698  24.952  0.00  0.00    -0.199 NA
ATOM      8  C   UNL     1      -1.940   2.759  25.105  0.00  0.00    +0.265 C 
ATOM      9  O   UNL     1      -1.510   2.090  25.322  0.00  0.00    -0.268 OA
BRANCH   8  10
ATOM     10  C   UNL     1      -1.562   3.489  25.040  0.00  0.00    +0.055 A 
ATOM     11  C   UNL     1      -0.837   3.544  24.648  0.00  0.00    +0.005 A 
ATOM     12  C   UNL     1      -0.458   4.275  24.583  0.00  0.00    +0.000 A 
ATOM     13  C   UNL     1      -0.804   4.949  24.909  0.00  0.00    +0.000 A 
ATOM     14  C   UNL     1      -1.529   4.894  25.300  0.00  0.00    +0.000 A 
ATOM     15  C   UNL     1      -1.907   4.164  25.365  0.00  0.00    +0.005 A 
ENDBRANCH   8  10
ENDBRANCH   6   7
ENDBRANCH   5   6
TORSDOF 5
ENDMDL
MODEL 4
REMARK VINA RESULT:      -9.5      1.726      3.572
REMARK  Name = 
REMARK  5 active torsions:
REMARK  status: ('A' for Active; 'I' for Inactive)
REMARK    1  A    between atoms: C_2  and  C_3
REMARK    2  A    between atoms: C_5  and  C_6
REMARK    3  A    between atoms: C_6  and  N_7
REMARK    4  A    between atoms: C_8  and  C_10
REMARK    5  A    between atoms: C_16  and  N_19
REMARK                            x       y       z     vdW  Elec       q    Type
REMARK                         _______ _______ _______ _____ _____    ______ ____
ROOT
ATOM      3  C   UNL     1      -1.943  -0.740  24.865  0.00  0.00    +0.180 C 
ATOM      4  O   UNL     1      -2.534  -0.190  24.699  0.00  0.00    -0.350 OA
ATOM      5  C   UNL     1      -2.192   0.561  24.703  0.00  0.00    +0.154 C 
ATOM     16  C   UNL     1      -1.389   0.474  24.872  0.00  0.00    +0.120 C 
ATOM     17  C   UNL     1      -1.235  -0.331  24.973  0.00  0.00    +0.198 C 
ATOM     18  O   UNL     1      -0.502  -0.665  25.150  0.00  0.00    -0.219 OA
ENDROOT
BRANCH  16  19
ATOM     19  N   UNL     1      -0.837   1.085  24.931  0.00  0.00    -0.270 NA
ATOM     20  C   UNL     1      -0.402   1.312  24.268  0.00  0.00    +0.072 C 
ATOM     21  C   UNL     1       0.150   1.923  24.327  0.00  0.00    +0.017 C 
ATOM     22  C   UNL     1       0.265   2.306  25.049  0.00  0.00    +0.003 C 
ATOM     23  C   UNL     1      -0.170   2.078  25.711  0.00  0.00    +0.017 C 
ATOM     24  C   UNL     1      -0.721   1.467  25.653  0.00  0.00    +0.072 C 
ENDBRANCH  16  19
BRANCH   3   2
ATOM      1  O   UNL     1      -2.701  -1.916  24.572  0.00  0.00    -0.218 OA
ATOM      2  C   UNL     1      -2.042  -1.559  24.916  0.00  0.00    +0.214 C 
ENDBRANCH   3   2
BRANCH   5   6
ATOM      6  C   UNL     1      -2.584   1.273  24.562  0.00  0.00    +0.146 C 
BRANCH   6   7
ATOM      7  N   UNL     1      -3.336   1.398  24.875  0.00  0.00    -0.199 NA
ATOM      8  C   UNL     1      -3.791   2.036  24.614  0.00  0.00    +0.265 C 
ATOM      9  O   UNL     1      -3.492   2.548  24.042  0.00  0.00    -0.268 OA
BRANCH   8  10
ATOM     10  C   UNL     1      -4.544   2.161  24.927  0.00  0.00    +0.055 A 
ATOM     11  C   UNL     1      -4.669   2.772  25.467  0.00  0.00    +0.005 A 
ATOM     12  C   UNL     1      -5.423   2.899  25.781  0.00  0.00    +0.000 A 
ATOM     13  C   UNL     1      -6.050   2.413  25.553  0.00  0.00    +0.000 A 
ATOM     14  C   UNL     1      -5.924   1.801  25.013  0.00  0.00    +0.000 A 
ATOM     15  C   UNL     1      -5.171   1.676  24.700  0.00  0.00    +0.005 A 
ENDBRANCH   8  10
ENDBRANCH   6   7
ENDBRANCH   5   6
TORSDOF 5
ENDMDL
MODEL 5
REMARK VINA RESULT:      -9.4      1.402      2.090
REMARK  Name = 
REMARK  5 active torsions:
REMARK  status: ('A' for Active; 'I' for Inactive)
REMARK    1  A    between atoms: C_2  and  C_3
REMARK    2  A    between atoms: C_5  and  C_6
REMARK    3  A    between atoms: C_6  and  N_7
REMARK    4  A    between atoms: C_8  and  C_10
REMARK    5  A    between atoms: C_16  and  N_19
REMARK                            x       y       z     vdW  Elec       q    Type
REMARK                         _______ _______ _______ _____ _____    ______ ____
ROOT
ATOM      3  C   UNL     1      -2.398   2.086  23.144  0.00  0.00    +0.180 C 
ATOM      4  O   UNL     1      -2.591   1.360  23.484  0.00  0.00    -0.350 OA
ATOM      5  C   UNL     1      -2.156   1.282  24.181  0.00  0.00    +0.154 C 
ATOM     16  C   UNL     1      -1.695   1.960  24.272  0.00  0.00    +0.120 C 
ATOM     17  C   UNL     1      -1.844   2.457  23.630  0.00  0.00    +0.198 C 
ATOM     18  O   UNL     1      -1.499   3.195  23.499  0.00  0.00    -0.219 OA
ENDROOT
BRANCH  16  19
ATOM     19  N   UNL     1      -1.175   2.114  24.894  0.00  0.00    -0.270 NA
ATOM     20  C   UNL     1      -1.438   2.528  25.557  0.00  0.00    +0.072 C 
ATOM     21  C   UNL     1      -0.918   2.682  26.180  0.00  0.00    +0.017 C 
ATOM     22  C   UNL     1      -0.136   2.420  26.138  0.00  0.00    +0.003 C 
ATOM     23  C   UNL     1       0.125   2.007  25.475  0.00  0.00    +0.017 C 
ATOM     24  C   UNL     1      -0.394   1.853  24.852  0.00  0.00    +0.072 C 
ENDBRANCH  16  19
BRANCH   3   2
ATOM      1  O   UNL     1      -2.553   2.004  21.725  0.00  0.00    -0.218 OA
ATOM      2  C   UNL     1      -2.704   2.389  22.439  0.00  0.00    +0.214 C 
ENDBRANCH   3   2
BRANCH   5   6
ATOM      6  C   UNL     1      -2.180   0.639  24.698  0.00  0.00    +0.146 C 
BRANCH   6   7
ATOM      7  N   UNL     1      -2.522  -0.071  24.456  0.00  0.00    -0.199 NA
ATOM      8  C   UNL     1      -2.692  -0.657  25.012  0.00  0.00    +0.265 C 
ATOM      9  O   UNL     1      -2.519  -0.532  25.809  0.00  0.00    -0.268 OA
BRANCH   8  10
ATOM     10  C   UNL     1      -3.035  -1.368  24.771  0.00  0.00    +0.055 A 
ATOM     11  C   UNL     1      -3.813  -1.378  24.498  0.00  0.00    +0.005 A 
ATOM     12  C   UNL     1      -4.157  -2.089  24.256  0.00  0.00    +0.000 A 
ATOM     13  C   UNL     1      -3.721  -2.789  24.289  0.00  0.00    +0.000 A 
ATOM     14  C   UNL     1      -2.943  -2.778  24.563  0.00  0.00    +0.000 A 
ATOM     15  C   UNL     1      -2.600  -2.068  24.804  0.00  0.00    +0.005 A 
ENDBRANCH   8  10
ENDBRANCH   6   7
ENDBRANCH   5   6
TORSDOF 5
ENDMDL
