MODEL 1
REMARK VINA RESULT:     -12.5      0.000      0.000
REMARK  Name = 
REMARK  5 active torsions:
REMARK  status: ('A' for Active; 'I' for Inactive)
REMARK    1  A    between atoms: O_2  and  C_3
REMARK    2  A    between atoms: C_8  and  N_9
REMARK    3  A    between atoms: N_12  and  C_15
REMARK    4  A    between atoms: C_21  and  N_22
REMARK    5  A    between atoms: N_25  and  C_26
REMARK                            x       y       z     vdW  Elec       q    Type
REMARK                         _______ _______ _______ _____ _____    ______ ____
ROOT
ATOM     15  C   UNL     1      -0.639   0.687  24.732  0.00  0.00    +0.147 C 
ATOM     16  C   UNL     1      -0.063   1.150  24.102  0.00  0.00    +0.253 C 
ATOM     17  O   UNL     1      -0.016   2.023  23.985  0.00  0.00    -0.327 OA
ATOM     18  C   UNL     1      -0.245   1.397  24.271  0.00  0.00    +0.176 C 
ATOM     19  C   UNL     1      -0.175   0.622  24.259  0.00  0.00    +0.170 C 
ATOM     20  O   UNL     1       0.319   0.503  23.761  0.00  0.00    -0.327 OA
ATOM     21  C   UNL     1      -0.721   0.166  24.857  0.00  0.00    +0.158 C 
ATOM     32  C   UNL     1      -1.103   0.817  25.199  0.00  0.00    +0.194 C 
ATOM     33  O   UNL     1      -1.610   1.248  25.687  0.00  0.00    -0.220 OA
ENDROOT
BRANCH  15  12
ATOM      9  N   UNL     1      -0.995   3.130  24.906  0.00  0.00    -0.302 N 
ATOM     10  C   UNL     1      -1.355   2.703  24.299  0.00  0.00    +0.108 C 
ATOM     11  C   UNL     1      -1.236   1.889  24.241  0.00  0.00    +0.094 C 
ATOM     12  N   UNL     1      -0.758   1.501  24.790  0.00  0.00    -0.265 NA
ATOM     13  C   UNL     1      -0.398   1.929  25.397  0.00  0.00    +0.094 C 
ATOM     14  C   UNL     1      -0.517   2.743  25.455  0.00  0.00    +0.108 C 
BRANCH   9   8
ATOM      3  C   UNL     1      -1.803   4.237  25.311  0.00  0.00    +0.152 A 
ATOM      4  C   UNL     1      -1.923   5.051  25.369  0.00  0.00    +0.038 A 
ATOM      5  C   UNL     1      -1.355   5.573  25.078  0.00  0.00    +0.003 A 
ATOM      6  C   UNL     1      -0.666   5.281  24.730  0.00  0.00    +0.001 A 
ATOM      7  C   UNL     1      -0.546   4.467  24.673  0.00  0.00    +0.018 A 
ATOM      8  C   UNL     1      -1.114   3.944  24.963  0.00  0.00    +0.082 A 
BRANCH   3   2
ATOM      1  C   UNL     1      -3.054   4.006  25.962  0.00  0.00    +0.253 C 
ATOM      2  O   UNL     1      -2.373   3.714  25.602  0.00  0.00    -0.470 OA
ENDBRANCH   3   2
ENDBRANCH   9   8
ENDBRANCH  15  12
BRANCH  21  22
ATOM     22  N   UNL     1      -0.801  -0.642  25.004  0.00  0.00    -0.184 NA
ATOM     23  C   UNL     1      -1.512  -1.025  24.832  0.00  0.00    +0.339 C 
ATOM     24  O   UNL     1      -2.143  -0.599  24.514  0.00  0.00    -0.249 OA
ATOM     25  N   UNL     1      -1.592  -1.832  24.978  0.00  0.00    -0.189 NA
BRANCH  25  26
ATOM     26  C   UNL     1      -2.302  -2.214  24.807  0.00  0.00    +0.097 C 
ATOM     27  C   UNL     1      -2.927  -2.184  25.344  0.00  0.00    +0.022 C 
ATOM     28  C   UNL     1      -3.639  -2.567  25.172  0.00  0.00    +0.002 C 
ATOM     29  C   UNL     1      -3.723  -2.979  24.463  0.00  0.00    +0.000 C 
ATOM     30  C   UNL     1      -3.098  -3.009  23.925  0.00  0.00    +0.002 C 
ATOM     31  C   UNL     1      -2.388  -2.627  24.097  0.00  0.00    +0.022 C 
ENDBRANCH  25  26
ENDBRANCH  21  22
TORSDOF 5
ENDMDL
MODEL 2
REMARK VINA RESULT:     -12.4      1.887      2.755
REMARK  Name = 
REMARK  5 active torsions:
REMARK  status: ('A' for Active; 'I' for Inactive)
REMARK    1  A    between atoms: O_2  and  C_3
REMARK    2  A    between atoms: C_8  and  N_9
REMARK    3  A    between atoms: N_12  and  C_15
REMARK    4  A    between atoms: C_21  and  N_22
REMARK    5  A    between atoms: N_25  and  C_26
REMARK                            x       y       z     vdW  Elec       q    Type
REMARK                         _______ _______ _______ _____ _____    ______ ____
ROOT
ATOM     15  C   UNL     1      -4.053   1.739  24.829  0.00  0.00    +0.147 C 
ATOM     16  C   UNL     1      -4.429   2.549  24.447  0.00  0.00    +0.253 C 
ATOM     17  O   UNL     1      -4.013   3.322  24.356  0.00  0.00    -0.327 OA
ATOM     18  C   UNL     1      -4.100   2.625  24.540  0.00  0.00    +0.176 C 
ATOM     19  C   UNL     1      -4.589   2.021  24.553  0.00  0.00    +0.170 C 
ATOM     20  O   UNL     1      -5.187   2.279  24.263  0.00  0.00    -0.327 OA
ATOM     21  C   UNL     1      -4.243   1.239  24.915  0.00  0.00    +0.158 C 
ATOM     32  C   UNL     1      -3.483   1.512  25.099  0.00  0.00    +0.194 C 
ATOM     33  O   UNL     1      -2.705   1.508  25.374  0.00  0.00    -0.220 OA
ENDROOT
BRANCH  15  12
ATOM      9  N   UNL     1      -2.364   3.547  24.868  0.00  0.00    -0.302 N 
ATOM     10  C   UNL     1      -2.757   3.334  25.561  0.00  0.00    +0.108 C 
ATOM     11  C   UNL     1      -3.320   2.732  25.548  0.00  0.00    +0.094 C 
ATOM     12  N   UNL     1      -3.490   2.341  24.842  0.00  0.00    -0.265 NA
ATOM     13  C   UNL     1      -3.097   2.554  24.148  0.00  0.00    +0.094 C 
ATOM     14  C   UNL     1      -2.534   3.157  24.161  0.00  0.00    +0.108 C 
BRANCH   9   8
ATOM      3  C   UNL     1      -1.005   3.974  24.748  0.00  0.00    +0.152 A 
ATOM      4  C   UNL     1      -0.442   4.576  24.761  0.00  0.00    +0.038 A 
ATOM      5  C   UNL     1      -0.673   5.354  24.910  0.00  0.00    +0.003 A 
ATOM      6  C   UNL     1      -1.468   5.529  25.044  0.00  0.00    +0.001 A 
ATOM      7  C   UNL     1      -2.031   4.928  25.030  0.00  0.00    +0.018 A 
ATOM      8  C   UNL     1      -1.800   4.150  24.882  0.00  0.00    +0.082 A 
BRANCH   3   2
ATOM      1  C   UNL     1       0.023   3.016  24.490  0.00  0.00    +0.253 C 
ATOM      2  O   UNL     1      -0.774   3.195  24.599  0.00  0.00    -0.470 OA
ENDBRANCH   3   2
ENDBRANCH   9   8
ENDBRANCH  15  12
BRANCH  21  22
ATOM     22  N   UNL     1      -4.588   0.496  25.022  0.00  0.00    -0.184 NA
ATOM     23  C   UNL     1      -4.196  -0.183  24.766  0.00  0.00    +0.339 C 
ATOM     24  O   UNL     1      -3.457  -0.119  24.403  0.00  0.00    -0.249 OA
ATOM     25  N   UNL     1      -4.540  -0.924  24.873  0.00  0.00    -0.189 NA
BRANCH  25  26
ATOM     26  C   UNL     1      -4.148  -1.602  24.617  0.00  0.00    +0.097 C 
ATOM     27  C   UNL     1      -3.594  -1.968  25.106  0.00  0.00    +0.022 C 
ATOM     28  C   UNL     1      -3.201  -2.648  24.850  0.00  0.00    +0.002 C 
ATOM     29  C   UNL     1      -3.362  -2.960  24.104  0.00  0.00    +0.000 C 
ATOM     30  C   UNL     1      -3.916  -2.594  23.613  0.00  0.00    +0.002 C 
ATOM     31  C   UNL     1      -4.308  -1.915  23.870  0.00  0.00    +0.022 C 
ENDBRANCH  25  26
ENDBRANCH  21  22
TORSDOF 5
ENDMDL
MODEL 3
REMARK VINA RESULT:     -12.1      1.998      5.823
REMARK  Name = 
REMARK  5 active torsions:
REMARK  status: ('A' for Active; 'I' for Inactive)
REMARK    1  A    between atoms: O_2  and  C_3
REMARK    2  A    between atoms: C_8  and  N_9
REMARK    3  A    between atoms: N_12  and  C_15
REMARK    4  A    between atoms: C_21  and  N_22
REMARK    5  A    between atoms: N_25  and  C_26
REMARK                            x       y       z     vdW  Elec       q    Type
REMARK                         _______ _______ _______ _____ _____    ______ ____
ROOT
ATOM     15  C   UNL     1      -3.922   1.812  25.054  0.00  0.00    +0.147 C 
ATOM     16  C   UNL     1      -4.731   1.542  24.591  0.00  0.00    +0.253 C 
ATOM     17  O   UNL     1      -4.914   0.731  24.293  0.00  0.00    -0.327 OA
ATOM     18  C   UNL     1      -4.529   1.256  24.615  0.00  0.00    +0.176 C 
ATOM     19  C   UNL     1      -4.512   2.007  24.817  0.00  0.00    +0.170 C 
ATOM     20  O   UNL     1      -5.134   2.262  24.581  0.00  0.00    -0.327 OA
ATOM     21  C   UNL     1      -3.743   2.280  25.261  0.00  0.00    +0.158 C 
ATOM     32  C   UNL     1      -3.340   1.556  25.270  0.00  0.00    +0.194 C 
ATOM     33  O   UNL     1      -2.745   1.003  25.416  0.00  0.00    -0.220 OA
ENDROOT
BRANCH  15  12
ATOM      9  N   UNL     1      -3.802  -0.595  24.490  0.00  0.00    -0.302 N 
ATOM     10  C   UNL     1      -4.083  -0.358  25.229  0.00  0.00    +0.108 C 
ATOM     11  C   UNL     1      -4.123   0.445  25.416  0.00  0.00    +0.094 C 
ATOM     12  N   UNL     1      -3.882   1.010  24.866  0.00  0.00    -0.265 NA
ATOM     13  C   UNL     1      -3.601   0.772  24.127  0.00  0.00    +0.094 C 
ATOM     14  C   UNL     1      -3.561  -0.030  23.939  0.00  0.00    +0.108 C 
BRANCH   9   8
ATOM      3  C   UNL     1      -3.075  -1.824  24.463  0.00  0.00    +0.152 A 
ATOM      4  C   UNL     1      -3.034  -2.627  24.276  0.00  0.00    +0.038 A 
ATOM      5  C   UNL     1      -3.682  -3.003  23.930  0.00  0.00    +0.003 A 
ATOM      6  C   UNL     1      -4.370  -2.576  23.771  0.00  0.00    +0.001 A 
ATOM      7  C   UNL     1      -4.410  -1.774  23.957  0.00  0.00    +0.018 A 
ATOM      8  C   UNL     1      -3.763  -1.397  24.303  0.00  0.00    +0.082 A 
BRANCH   3   2
ATOM      1  C   UNL     1      -1.721  -1.861  24.919  0.00  0.00    +0.253 C 
ATOM      2  O   UNL     1      -2.426  -1.448  24.809  0.00  0.00    -0.470 OA
ENDBRANCH   3   2
ENDBRANCH   9   8
ENDBRANCH  15  12
BRANCH  21  22
ATOM     22  N   UNL     1      -3.527   3.020  25.557  0.00  0.00    -0.184 NA
ATOM     23  C   UNL     1      -2.842   3.390  25.284  0.00  0.00    +0.339 C 
ATOM     24  O   UNL     1      -2.373   3.021  24.714  0.00  0.00    -0.249 OA
ATOM     25  N   UNL     1      -2.626   4.128  25.579  0.00  0.00    -0.189 NA
BRANCH  25  26
ATOM     26  C   UNL     1      -1.941   4.498  25.306  0.00  0.00    +0.097 C 
ATOM     27  C   UNL     1      -1.217   4.107  25.346  0.00  0.00    +0.022 C 
ATOM     28  C   UNL     1      -0.531   4.478  25.072  0.00  0.00    +0.002 C 
ATOM     29  C   UNL     1      -0.573   5.239  24.758  0.00  0.00    +0.000 C 
ATOM     30  C   UNL     1      -1.298   5.631  24.718  0.00  0.00    +0.002 C 
ATOM     31  C   UNL     1      -1.982   5.260  24.992  0.00  0.00    +0.022 C 
ENDBRANCH  25  26
ENDBRANCH  21  22
TORSDOF 5
ENDMDL
MODEL 4
REMARK VINA RESULT:     -11.5      0.889      5.229
REMARK  Name = 
REMARK  5 active torsions:
REMARK  status: ('A' for Active; 'I' for Inactive)
REMARK    1  A    between atoms: O_2  and  C_3
REMARK    2  A    between atoms: C_8  and  N_9
REMARK    3  A    between atoms: N_12  and  C_15
REMARK    4  A    between atoms: C_21  and  N_22
REMARK    5  A    between atoms: N_25  and  C_26
REMARK                            x       y       z     vdW  Elec       q    Type
REMARK                         _______ _______ _______ _____ _____    ______ ____
ROOT
ATOM     15  C   UNL     1      -0.804   0.809  25.017  0.00  0.00    +0.147 C 
ATOM     16  C   UNL     1      -0.381   0.202  24.388  0.00  0.00    +0.253 C 
ATOM     17  O   UNL     1      -0.711  -0.565  24.102  0.00  0.00    -0.327 OA
ATOM     18  C   UNL     1      -0.687   0.056  24.477  0.00  0.00    +0.176 C 
ATOM     19  C   UNL     1      -0.272   0.696  24.633  0.00  0.00    +0.170 C 
ATOM     20  O   UNL     1       0.316   0.618  24.240  0.00  0.00    -0.327 OA
ATOM     21  C   UNL     1      -0.666   1.286  25.234  0.00  0.00    +0.158 C 
ATOM     32  C   UNL     1      -1.365   0.866  25.381  0.00  0.00    +0.194 C 
ATOM     33  O   UNL     1      -2.104   0.681  25.699  0.00  0.00    -0.220 OA
ENDROOT
BRANCH  15  12
ATOM      9  N   UNL     1      -2.258  -1.158  24.639  0.00  0.00    -0.302 N 
ATOM     10  C   UNL     1      -1.836  -1.087  25.343  0.00  0.00    +0.108 C 
ATOM     11  C   UNL     1      -1.351  -0.431  25.469  0.00  0.00    +0.094 C 
ATOM     12  N   UNL     1      -1.289   0.153  24.891  0.00  0.00    -0.265 NA
ATOM     13  C   UNL     1      -1.712   0.082  24.185  0.00  0.00    +0.094 C 
ATOM     14  C   UNL     1      -2.196  -0.574  24.059  0.00  0.00    +0.108 C 
BRANCH   9   8
ATOM      3  C   UNL     1      -3.549  -1.710  24.372  0.00  0.00    +0.152 A 
ATOM      4  C   UNL     1      -4.034  -2.366  24.247  0.00  0.00    +0.038 A 
ATOM      5  C   UNL     1      -3.712  -3.125  24.263  0.00  0.00    +0.003 A 
ATOM      6  C   UNL     1      -2.906  -3.229  24.404  0.00  0.00    +0.001 A 
ATOM      7  C   UNL     1      -2.422  -2.574  24.529  0.00  0.00    +0.018 A 
ATOM      8  C   UNL     1      -2.742  -1.814  24.513  0.00  0.00    +0.082 A 
BRANCH   3   2
ATOM      1  C   UNL     1      -4.681  -0.848  24.246  0.00  0.00    +0.253 C 
ATOM      2  O   UNL     1      -3.871  -0.950  24.356  0.00  0.00    -0.470 OA
ENDBRANCH   3   2
ENDBRANCH   9   8
ENDBRANCH  15  12
BRANCH  21  22
ATOM     22  N   UNL     1      -0.400   2.009  25.530  0.00  0.00    -0.184 NA
ATOM     23  C   UNL     1      -0.774   2.709  25.308  0.00  0.00    +0.339 C 
ATOM     24  O   UNL     1      -1.415   2.687  24.788  0.00  0.00    -0.249 OA
ATOM     25  N   UNL     1      -0.508   3.431  25.604  0.00  0.00    -0.189 NA
BRANCH  25  26
ATOM     26  C   UNL     1      -0.883   4.132  25.381  0.00  0.00    +0.097 C 
ATOM     27  C   UNL     1      -1.629   4.314  25.680  0.00  0.00    +0.022 C 
ATOM     28  C   UNL     1      -2.004   5.015  25.458  0.00  0.00    +0.002 C 
ATOM     29  C   UNL     1      -1.631   5.533  24.935  0.00  0.00    +0.000 C 
ATOM     30  C   UNL     1      -0.884   5.351  24.635  0.00  0.00    +0.002 C 
ATOM     31  C   UNL     1      -0.510   4.651  24.858  0.00  0.00    +0.022 C 
ENDBRANCH  25  26
ENDBRANCH  21  22
TORSDOF 5
ENDMDL
MODEL 5
REMARK VINA RESULT:      -9.7      2.158      3.878
REMARK  Name = 
REMARK  5 active torsions:
REMARK  status: ('A' for Active; 'I' for Inactive)
REMARK    1  A    between atoms: O_2  and  C_3
REMARK    2  A    between atoms: C_8  and  N_9
REMARK    3  A    between atoms: N_12  and  C_15
REMARK    4  A    between atoms: C_21  and  N_22
REMARK    5  A    between atoms: N_25  and  C_26
REMARK                            x       y       z     vdW  Elec       q    Type
REMARK                         _______ _______ _______ _____ _____    ______ ____
ROOT
ATOM     15  C   UNL     1      -0.152   0.511  23.799  0.00  0.00    +0.147 C 
ATOM     16  C   UNL     1      -0.715   0.095  24.471  0.00  0.00    +0.253 C 
ATOM     17  O   UNL     1      -1.342   0.495  24.946  0.00  0.00    -0.327 OA
ATOM     18  C   UNL     1      -0.810   0.431  24.456  0.00  0.00    +0.176 C 
ATOM     19  C   UNL     1      -0.301  -0.052  24.121  0.00  0.00    +0.170 C 
ATOM     20  O   UNL     1      -0.425  -0.677  24.438  0.00  0.00    -0.327 OA
ATOM     21  C   UNL     1       0.244   0.334  23.475  0.00  0.00    +0.158 C 
ATOM     32  C   UNL     1      -0.049   1.108  23.510  0.00  0.00    +0.194 C 
ATOM     33  O   UNL     1      -0.136   1.911  23.339  0.00  0.00    -0.220 OA
ENDROOT
BRANCH  15  12
ATOM      9  N   UNL     1      -1.702   2.188  24.753  0.00  0.00    -0.302 N 
ATOM     10  C   UNL     1      -1.831   1.893  23.994  0.00  0.00    +0.108 C 
ATOM     11  C   UNL     1      -1.314   1.334  23.676  0.00  0.00    +0.094 C 
ATOM     12  N   UNL     1      -0.669   1.070  24.117  0.00  0.00    -0.265 NA
ATOM     13  C   UNL     1      -0.540   1.366  24.877  0.00  0.00    +0.094 C 
ATOM     14  C   UNL     1      -1.057   1.925  25.195  0.00  0.00    +0.108 C 
BRANCH   9   8
ATOM      3  C   UNL     1      -1.961   3.520  25.203  0.00  0.00    +0.152 A 
ATOM      4  C   UNL     1      -2.477   4.079  25.520  0.00  0.00    +0.038 A 
ATOM      5  C   UNL     1      -3.252   3.867  25.705  0.00  0.00    +0.003 A 
ATOM      6  C   UNL     1      -3.511   3.094  25.572  0.00  0.00    +0.001 A 
ATOM      7  C   UNL     1      -2.995   2.535  25.255  0.00  0.00    +0.018 A 
ATOM      8  C   UNL     1      -2.219   2.747  25.070  0.00  0.00    +0.082 A 
BRANCH   3   2
ATOM      1  C   UNL     1      -0.944   4.518  25.091  0.00  0.00    +0.253 C 
ATOM      2  O   UNL     1      -1.184   3.733  25.019  0.00  0.00    -0.470 OA
ENDBRANCH   3   2
ENDBRANCH   9   8
ENDBRANCH  15  12
BRANCH  21  22
ATOM     22  N   UNL     1       0.840   0.005  23.008  0.00  0.00    -0.184 NA
ATOM     23  C   UNL     1       1.627   0.223  23.127  0.00  0.00    +0.339 C 
ATOM     24  O   UNL     1       1.818   0.770  23.714  0.00  0.00    -0.249 OA
ATOM     25  N   UNL     1       2.222  -0.106  22.661  0.00  0.00    -0.189 NA
BRANCH  25  26
ATOM     26  C   UNL     1       3.008   0.112  22.780  0.00  0.00    +0.097 C 
ATOM     27  C   UNL     1       3.513  -0.382  23.205  0.00  0.00    +0.022 C 
ATOM     28  C   UNL     1       4.300  -0.163  23.325  0.00  0.00    +0.002 C 
ATOM     29  C   UNL     1       4.581   0.549  23.019  0.00  0.00    +0.000 C 
ATOM     30  C   UNL     1       4.076   1.044  22.593  0.00  0.00    +0.002 C 
ATOM     31  C   UNL     1       3.289   0.825  22.474  0.00  0.00    +0.022 C 
ENDBRANCH  25  26
ENDBRANCH  21  22
TORSDOF 5
ENDMDL
