MODEL 1
REMARK VINA RESULT:     -10.8      0.000      0.000
REMARK  Name = 
REMARK  4 active torsions:
REMARK  status: ('A' for Active; 'I' for Inactive)
REMARK    1  A    between atoms: C_2  and  C_22
REMARK    2  A    between atoms: N_10  and  C_11
REMARK    3  A    between atoms: C_11  and  C_12
REMARK    4  A    between atoms: C_12  and  C_13
REMARK                            x       y       z     vdW  Elec       q    Type
REMARK                         _______ _______ _______ _____ _____    ______ ____
ROOT
ATOM      1  O   UNL     1      -4.611  -0.474  24.663  0.00  0.00    -0.270 OA
ATOM      2  C   UNL     1      -3.862  -0.817  24.616  0.00  0.00    +0.249 C 
ATOM      3  N   UNL     1      -3.188  -0.340  24.635  0.00  0.00    -0.276 N 
ATOM      4  C   UNL     1      -2.440  -0.683  24.588  0.00  0.00    +0.094 C 
ATOM      5  C   UNL     1      -1.766  -0.208  24.606  0.00  0.00    +0.022 C 
ATOM      6  C   UNL     1      -1.841   0.612  24.671  0.00  0.00    +0.012 C 
ATOM      7  C   UNL     1      -1.104   0.982  24.680  0.00  0.00    +0.085 C 
ATOM      8  C   UNL     1      -0.934   1.787  24.737  0.00  0.00    +0.226 C 
ATOM      9  O   UNL     1      -0.133   1.985  24.730  0.00  0.00    -0.275 OA
ATOM     10  N   UNL     1      -1.458   2.421  24.800  0.00  0.00    -0.279 N 
ATOM     18  C   UNL     1      -2.283   2.405  24.821  0.00  0.00    +0.093 C 
ATOM     19  C   UNL     1      -2.786   1.753  24.784  0.00  0.00    +0.023 C 
ATOM     20  C   UNL     1      -2.590   0.955  24.718  0.00  0.00    +0.022 C 
ATOM     21  C   UNL     1      -3.263   0.478  24.699  0.00  0.00    +0.094 C 
ENDROOT
BRANCH   2  22
ATOM     22  C   UNL     1      -3.787  -1.635  24.552  0.00  0.00    +0.054 A 
ATOM     23  C   UNL     1      -3.964  -2.011  23.839  0.00  0.00    +0.005 A 
ATOM     24  C   UNL     1      -3.889  -2.830  23.774  0.00  0.00    +0.000 A 
ATOM     25  C   UNL     1      -3.637  -3.273  24.422  0.00  0.00    +0.000 A 
ATOM     26  C   UNL     1      -3.460  -2.898  25.135  0.00  0.00    +0.000 A 
ATOM     27  C   UNL     1      -3.535  -2.079  25.200  0.00  0.00    +0.005 A 
ENDBRANCH   2  22
BRANCH  10  11
ATOM     11  C   UNL     1      -1.113   3.168  24.848  0.00  0.00    +0.100 C 
BRANCH  11  12
ATOM     12  C   UNL     1      -1.498   3.775  25.251  0.00  0.00    +0.069 C 
BRANCH  12  13
ATOM     13  C   UNL     1      -1.297   4.561  25.104  0.00  0.00    +0.082 A 
ATOM     14  C   UNL     1      -1.766   5.221  25.266  0.00  0.00    +0.115 A 
ATOM     15  N   UNL     1      -1.350   5.894  25.031  0.00  0.00    -0.221 NA
ATOM     16  C   UNL     1      -0.625   5.650  24.722  0.00  0.00    +0.199 A 
ATOM     17  N   UNL     1      -0.592   4.827  24.768  0.00  0.00    -0.227 NA
ENDBRANCH  12  13
ENDBRANCH  11  12
ENDBRANCH  10  11
TORSDOF 4
ENDMDL
MODEL 2
REMARK VINA RESULT:     -10.6      2.708      4.183
REMARK  Name = 
REMARK  4 active torsions:
REMARK  status: ('A' for Active; 'I' for Inactive)
REMARK    1  A    between atoms: C_2  and  C_22
REMARK    2  A    between atoms: N_10  and  C_11
REMARK    3  A    between atoms: C_11  and  C_12
REMARK    4  A    between atoms: C_12  and  C_13
REMARK                            x       y       z     vdW  Elec       q    Type
REMARK                         _______ _______ _______ _____ _____    ______ ____
ROOT
ATOM      1  O   UNL     1      -3.970   3.108  23.846  0.00  0.00    -0.270 OA
ATOM      2  C   UNL     1      -4.055   2.478  24.373  0.00  0.00    +0.249 C 
ATOM      3  N   UNL     1      -3.451   1.921  24.450  0.00  0.00    -0.276 N 
ATOM      4  C   UNL     1      -3.535   1.292  24.976  0.00  0.00    +0.094 C 
ATOM      5  C   UNL     1      -2.932   0.735  25.054  0.00  0.00    +0.022 C 
ATOM      6  C   UNL     1      -2.244   0.807  24.604  0.00  0.00    +0.012 C 
ATOM      7  C   UNL     1      -1.713   0.195  24.765  0.00  0.00    +0.085 C 
ATOM      8  C   UNL     1      -0.968   0.063  24.438  0.00  0.00    +0.226 C 
ATOM      9  O   UNL     1      -0.569  -0.604  24.715  0.00  0.00    -0.275 OA
ATOM     10  N   UNL     1      -0.568   0.508  23.870  0.00  0.00    -0.279 N 
ATOM     18  C   UNL     1      -0.816   1.196  23.489  0.00  0.00    +0.093 C 
ATOM     19  C   UNL     1      -1.524   1.609  23.581  0.00  0.00    +0.023 C 
ATOM     20  C   UNL     1      -2.159   1.436  24.077  0.00  0.00    +0.022 C 
ATOM     21  C   UNL     1      -2.763   1.993  24.000  0.00  0.00    +0.094 C 
ENDROOT
BRANCH   2  22
ATOM     22  C   UNL     1      -4.742   2.407  24.822  0.00  0.00    +0.054 A 
ATOM     23  C   UNL     1      -5.346   1.902  24.575  0.00  0.00    +0.005 A 
ATOM     24  C   UNL     1      -6.034   1.830  25.025  0.00  0.00    +0.000 A 
ATOM     25  C   UNL     1      -6.118   2.263  25.722  0.00  0.00    +0.000 A 
ATOM     26  C   UNL     1      -5.515   2.768  25.969  0.00  0.00    +0.000 A 
ATOM     27  C   UNL     1      -4.826   2.840  25.519  0.00  0.00    +0.005 A 
ENDBRANCH   2  22
BRANCH  10  11
ATOM     11  C   UNL     1       0.177   0.227  23.655  0.00  0.00    +0.100 C 
BRANCH  11  12
ATOM     12  C   UNL     1       0.645   0.661  23.132  0.00  0.00    +0.069 C 
BRANCH  12  13
ATOM     13  C   UNL     1       1.380   0.369  22.898  0.00  0.00    +0.082 A 
ATOM     14  C   UNL     1       1.510  -0.227  22.341  0.00  0.00    +0.115 A 
ATOM     15  N   UNL     1       2.325  -0.343  22.278  0.00  0.00    -0.221 NA
ATOM     16  C   UNL     1       2.698   0.180  22.795  0.00  0.00    +0.199 A 
ATOM     17  N   UNL     1       2.114   0.620  23.178  0.00  0.00    -0.227 NA
ENDBRANCH  12  13
ENDBRANCH  11  12
ENDBRANCH  10  11
TORSDOF 4
ENDMDL
MODEL 3
REMARK VINA RESULT:     -10.5      1.103      5.912
REMARK  Name = 
REMARK  4 active torsions:
REMARK  status: ('A' for Active; 'I' for Inactive)
REMARK    1  A    between atoms: C_2  and  C_22
REMARK    2  A    between atoms: N_10  and  C_11
REMARK    3  A    between atoms: C_11  and  C_12
REMARK    4  A    between atoms: C_12  and  C_13
REMARK                            x       y       z     vdW  Elec       q    Type
REMARK                         _______ _______ _______ _____ _____    ______ ____
ROOT
ATOM      1  O   UNL     1      -0.845   3.061  26.125  0.00  0.00    -0.270 OA
ATOM      2  C   UNL     1      -1.295   3.338  25.491  0.00  0.00    +0.249 C 
ATOM      3  N   UNL     1      -1.789   2.821  25.079  0.00  0.00    -0.276 N 
ATOM      4  C   UNL     1      -2.238   3.098  24.445  0.00  0.00    +0.094 C 
ATOM      5  C   UNL     1      -2.732   2.582  24.032  0.00  0.00    +0.022 C 
ATOM      6  C   UNL     1      -2.776   1.788  24.254  0.00  0.00    +0.012 C 
ATOM      7  C   UNL     1      -3.299   1.369  23.772  0.00  0.00    +0.085 C 
ATOM      8  C   UNL     1      -3.502   0.571  23.806  0.00  0.00    +0.226 C 
ATOM      9  O   UNL     1      -4.047   0.316  23.241  0.00  0.00    -0.275 OA
ATOM     10  N   UNL     1      -3.232  -0.007  24.329  0.00  0.00    -0.279 N 
ATOM     18  C   UNL     1      -2.692   0.072  24.947  0.00  0.00    +0.093 C 
ATOM     19  C   UNL     1      -2.289   0.747  25.196  0.00  0.00    +0.023 C 
ATOM     20  C   UNL     1      -2.327   1.511  24.888  0.00  0.00    +0.022 C 
ATOM     21  C   UNL     1      -1.833   2.028  25.300  0.00  0.00    +0.094 C 
ENDROOT
BRANCH   2  22
ATOM     22  C   UNL     1      -1.251   4.131  25.270  0.00  0.00    +0.054 A 
ATOM     23  C   UNL     1      -0.620   4.396  24.808  0.00  0.00    +0.005 A 
ATOM     24  C   UNL     1      -0.576   5.189  24.587  0.00  0.00    +0.000 A 
ATOM     25  C   UNL     1      -1.162   5.718  24.828  0.00  0.00    +0.000 A 
ATOM     26  C   UNL     1      -1.793   5.453  25.289  0.00  0.00    +0.000 A 
ATOM     27  C   UNL     1      -1.837   4.659  25.510  0.00  0.00    +0.005 A 
ENDBRANCH   2  22
BRANCH  10  11
ATOM     11  C   UNL     1      -3.543  -0.763  24.218  0.00  0.00    +0.100 C 
BRANCH  11  12
ATOM     12  C   UNL     1      -3.363  -1.365  24.753  0.00  0.00    +0.069 C 
BRANCH  12  13
ATOM     13  C   UNL     1      -3.548  -2.148  24.570  0.00  0.00    +0.082 A 
ATOM     14  C   UNL     1      -3.262  -2.817  24.959  0.00  0.00    +0.115 A 
ATOM     15  N   UNL     1      -3.589  -3.482  24.596  0.00  0.00    -0.221 NA
ATOM     16  C   UNL     1      -4.077  -3.224  23.984  0.00  0.00    +0.199 A 
ATOM     17  N   UNL     1      -4.052  -2.399  23.968  0.00  0.00    -0.227 NA
ENDBRANCH  12  13
ENDBRANCH  11  12
ENDBRANCH  10  11
TORSDOF 4
ENDMDL
MODEL 4
REMARK VINA RESULT:      -8.7      3.104      4.073
REMARK  Name = 
REMARK  4 active torsions:
REMARK  status: ('A' for Active; 'I' for Inactive)
REMARK    1  A    between atoms: C_2  and  C_22
REMARK    2  A    between atoms: N_10  and  C_11
REMARK    3  A    between atoms: C_11  and  C_12
REMARK    4  A    between atoms: C_12  and  C_13
REMARK                            x       y       z     vdW  Elec       q    Type
REMARK                         _______ _______ _______ _____ _____    ______ ____
ROOT
ATOM      1  O   UNL     1      -2.014  -1.999  24.171  0.00  0.00    -0.270 OA
ATOM      2  C   UNL     1      -2.149  -1.227  24.429  0.00  0.00    +0.249 C 
ATOM      3  N   UNL     1      -1.562  -0.655  24.341  0.00  0.00    -0.276 N 
ATOM      4  C   UNL     1      -1.696   0.117  24.599  0.00  0.00    +0.094 C 
ATOM      5  C   UNL     1      -1.110   0.690  24.512  0.00  0.00    +0.022 C 
ATOM      6  C   UNL     1      -0.387   0.491  24.165  0.00  0.00    +0.012 C 
ATOM      7  C   UNL     1       0.120   1.142  24.130  0.00  0.00    +0.085 C 
ATOM      8  C   UNL     1       0.886   1.180  23.828  0.00  0.00    +0.226 C 
ATOM      9  O   UNL     1       1.252   1.918  23.874  0.00  0.00    -0.275 OA
ATOM     10  N   UNL     1       1.335   0.578  23.487  0.00  0.00    -0.279 N 
ATOM     18  C   UNL     1       1.129  -0.210  23.363  0.00  0.00    +0.093 C 
ATOM     19  C   UNL     1       0.422  -0.593  23.549  0.00  0.00    +0.023 C 
ATOM     20  C   UNL     1      -0.253  -0.281  23.906  0.00  0.00    +0.022 C 
ATOM     21  C   UNL     1      -0.840  -0.853  23.995  0.00  0.00    +0.094 C 
ENDROOT
BRANCH   2  22
ATOM     22  C   UNL     1      -2.871  -1.029  24.775  0.00  0.00    +0.054 A 
ATOM     23  C   UNL     1      -3.489  -0.746  24.308  0.00  0.00    +0.005 A 
ATOM     24  C   UNL     1      -4.210  -0.547  24.654  0.00  0.00    +0.000 A 
ATOM     25  C   UNL     1      -4.314  -0.631  25.468  0.00  0.00    +0.000 A 
ATOM     26  C   UNL     1      -3.697  -0.914  25.936  0.00  0.00    +0.000 A 
ATOM     27  C   UNL     1      -2.974  -1.113  25.589  0.00  0.00    +0.005 A 
ENDBRANCH   2  22
BRANCH  10  11
ATOM     11  C   UNL     1       2.091   0.794  23.236  0.00  0.00    +0.100 C 
BRANCH  11  12
ATOM     12  C   UNL     1       2.596   0.227  22.915  0.00  0.00    +0.069 C 
BRANCH  12  13
ATOM     13  C   UNL     1       3.408   0.370  22.882  0.00  0.00    +0.082 A 
ATOM     14  C   UNL     1       3.780   0.951  22.428  0.00  0.00    +0.115 A 
ATOM     15  N   UNL     1       4.593   0.898  22.562  0.00  0.00    -0.221 NA
ATOM     16  C   UNL     1       4.723   0.284  23.098  0.00  0.00    +0.199 A 
ATOM     17  N   UNL     1       3.991  -0.041  23.295  0.00  0.00    -0.227 NA
ENDBRANCH  12  13
ENDBRANCH  11  12
ENDBRANCH  10  11
TORSDOF 4
ENDMDL
MODEL 5
REMARK VINA RESULT:      -8.2      2.732      4.409
REMARK  Name = 
REMARK  4 active torsions:
REMARK  status: ('A' for Active; 'I' for Inactive)
REMARK    1  A    between atoms: C_2  and  C_22
REMARK    2  A    between atoms: N_10  and  C_11
REMARK    3  A    between atoms: C_11  and  C_12
REMARK    4  A    between atoms: C_12  and  C_13
REMARK                            x       y       z     vdW  Elec       q    Type
REMARK                         _______ _______ _______ _____ _____    ______ ____
ROOT
ATOM      1  O   UNL     1       0.064  -0.805  24.211  0.00  0.00    -0.270 OA
ATOM      2  C   UNL     1       0.155  -0.136  23.736  0.00  0.00    +0.249 C 
ATOM      3  N   UNL     1      -0.441   0.433  23.706  0.00  0.00    -0.276 N 
ATOM      4  C   UNL     1      -0.350   1.101  23.231  0.00  0.00    +0.094 C 
ATOM      5  C   UNL     1      -0.946   1.671  23.201  0.00  0.00    +0.022 C 
ATOM      6  C   UNL     1      -1.634   1.572  23.646  0.00  0.00    +0.012 C 
ATOM      7  C   UNL     1      -2.156   2.201  23.536  0.00  0.00    +0.085 C 
ATOM      8  C   UNL     1      -2.899   2.317  23.875  0.00  0.00    +0.226 C 
ATOM      9  O   UNL     1      -3.290   3.009  23.653  0.00  0.00    -0.275 OA
ATOM     10  N   UNL     1      -3.304   1.833  24.407  0.00  0.00    -0.279 N 
ATOM     18  C   UNL     1      -3.064   1.113  24.730  0.00  0.00    +0.093 C 
ATOM     19  C   UNL     1      -2.362   0.699  24.603  0.00  0.00    +0.023 C 
ATOM     20  C   UNL     1      -1.726   0.903  24.120  0.00  0.00    +0.022 C 
ATOM     21  C   UNL     1      -1.129   0.334  24.150  0.00  0.00    +0.094 C 
ENDROOT
BRANCH   2  22
ATOM     22  C   UNL     1       0.843  -0.038  23.292  0.00  0.00    +0.054 A 
ATOM     23  C   UNL     1       1.464   0.419  23.587  0.00  0.00    +0.005 A 
ATOM     24  C   UNL     1       2.151   0.517  23.143  0.00  0.00    +0.000 A 
ATOM     25  C   UNL     1       2.219   0.160  22.402  0.00  0.00    +0.000 A 
ATOM     26  C   UNL     1       1.599  -0.296  22.106  0.00  0.00    +0.000 A 
ATOM     27  C   UNL     1       0.910  -0.395  22.551  0.00  0.00    +0.005 A 
ENDBRANCH   2  22
BRANCH  10  11
ATOM     11  C   UNL     1      -4.045   2.104  24.646  0.00  0.00    +0.100 C 
BRANCH  11  12
ATOM     12  C   UNL     1      -4.560   1.598  25.043  0.00  0.00    +0.069 C 
BRANCH  12  13
ATOM     13  C   UNL     1      -5.296   1.874  25.295  0.00  0.00    +0.082 A 
ATOM     14  C   UNL     1      -6.028   1.665  24.975  0.00  0.00    +0.115 A 
ATOM     15  N   UNL     1      -6.614   2.069  25.394  0.00  0.00    -0.221 NA
ATOM     16  C   UNL     1      -6.244   2.527  25.972  0.00  0.00    +0.199 A 
ATOM     17  N   UNL     1      -5.430   2.407  25.910  0.00  0.00    -0.227 NA
ENDBRANCH  12  13
ENDBRANCH  11  12
ENDBRANCH  10  11
TORSDOF 4
ENDMDL
MODEL 6
REMARK VINA RESULT:      -7.5     14.244     14.910
REMARK  Name = 
REMARK  4 active torsions:
REMARK  status: ('A' for Active; 'I' for Inactive)
REMARK    1  A    between atoms: C_2  and  C_22
REMARK    2  A    between atoms: N_10  and  C_11
REMARK    3  A    between atoms: C_11  and  C_12
REMARK    4  A    between atoms: C_12  and  C_13
REMARK                            x       y       z     vdW  Elec       q    Type
REMARK                         _______ _______ _______ _____ _____    ______ ____
ROOT
ATOM      1  O   UNL     1      -7.830  -9.493  18.293  0.00  0.00    -0.270 OA
ATOM      2  C   UNL     1      -8.044  -9.476  17.497  0.00  0.00    +0.249 C 
ATOM      3  N   UNL     1      -7.483  -9.645  16.916  0.00  0.00    -0.276 N 
ATOM      4  C   UNL     1      -7.698  -9.628  16.119  0.00  0.00    +0.094 C 
ATOM      5  C   UNL     1      -7.138  -9.797  15.537  0.00  0.00    +0.022 C 
ATOM      6  C   UNL     1      -6.363  -9.982  15.752  0.00  0.00    +0.012 C 
ATOM      7  C   UNL     1      -5.894 -10.132  15.089  0.00  0.00    +0.085 C 
ATOM      8  C   UNL     1      -5.095 -10.335  15.061  0.00  0.00    +0.226 C 
ATOM      9  O   UNL     1      -4.782 -10.449  14.306  0.00  0.00    -0.275 OA
ATOM     10  N   UNL     1      -4.567 -10.438  15.686  0.00  0.00    -0.279 N 
ATOM     18  C   UNL     1      -4.709 -10.365  16.495  0.00  0.00    +0.093 C 
ATOM     19  C   UNL     1      -5.412 -10.169  16.879  0.00  0.00    +0.023 C 
ATOM     20  C   UNL     1      -6.148  -9.999  16.549  0.00  0.00    +0.022 C 
ATOM     21  C   UNL     1      -6.709  -9.830  17.130  0.00  0.00    +0.094 C 
ENDROOT
BRANCH   2  22
ATOM     22  C   UNL     1      -8.818  -9.291  17.282  0.00  0.00    +0.054 A 
ATOM     23  C   UNL     1      -9.033  -8.506  17.147  0.00  0.00    +0.005 A 
ATOM     24  C   UNL     1      -9.807  -8.320  16.932  0.00  0.00    +0.000 A 
ATOM     25  C   UNL     1     -10.368  -8.920  16.853  0.00  0.00    +0.000 A 
ATOM     26  C   UNL     1     -10.154  -9.705  16.989  0.00  0.00    +0.000 A 
ATOM     27  C   UNL     1      -9.379  -9.891  17.203  0.00  0.00    +0.005 A 
ENDBRANCH   2  22
BRANCH  10  11
ATOM     11  C   UNL     1      -3.797 -10.643  15.474  0.00  0.00    +0.100 C 
BRANCH  11  12
ATOM     12  C   UNL     1      -3.185 -10.566  16.022  0.00  0.00    +0.069 C 
BRANCH  12  13
ATOM     13  C   UNL     1      -2.400 -10.615  15.772  0.00  0.00    +0.082 A 
ATOM     14  C   UNL     1      -1.748 -10.781  16.251  0.00  0.00    +0.115 A 
ATOM     15  N   UNL     1      -1.074 -10.774  15.775  0.00  0.00    -0.221 NA
ATOM     16  C   UNL     1      -1.309 -10.605  15.002  0.00  0.00    +0.199 A 
ATOM     17  N   UNL     1      -2.129 -10.507  15.001  0.00  0.00    -0.227 NA
ENDBRANCH  12  13
ENDBRANCH  11  12
ENDBRANCH  10  11
TORSDOF 4
ENDMDL
MODEL 7
REMARK VINA RESULT:      -7.3     14.180     16.717
REMARK  Name = 
REMARK  4 active torsions:
REMARK  status: ('A' for Active; 'I' for Inactive)
REMARK    1  A    between atoms: C_2  and  C_22
REMARK    2  A    between atoms: N_10  and  C_11
REMARK    3  A    between atoms: C_11  and  C_12
REMARK    4  A    between atoms: C_12  and  C_13
REMARK                            x       y       z     vdW  Elec       q    Type
REMARK                         _______ _______ _______ _____ _____    ______ ____
ROOT
ATOM      1  O   UNL     1      -2.791 -10.386  11.525  0.00  0.00    -0.270 OA
ATOM      2  C   UNL     1      -3.572 -10.207  11.331  0.00  0.00    +0.249 C 
ATOM      3  N   UNL     1      -4.146 -10.170  11.922  0.00  0.00    -0.276 N 
ATOM      4  C   UNL     1      -4.927  -9.991  11.728  0.00  0.00    +0.094 C 
ATOM      5  C   UNL     1      -5.502  -9.953  12.319  0.00  0.00    +0.022 C 
ATOM      6  C   UNL     1      -5.294 -10.096  13.105  0.00  0.00    +0.012 C 
ATOM      7  C   UNL     1      -5.948 -10.031  13.605  0.00  0.00    +0.085 C 
ATOM      8  C   UNL     1      -5.980 -10.131  14.423  0.00  0.00    +0.226 C 
ATOM      9  O   UNL     1      -6.723 -10.028  14.767  0.00  0.00    -0.275 OA
ATOM     10  N   UNL     1      -5.368 -10.319  14.944  0.00  0.00    -0.279 N 
ATOM     18  C   UNL     1      -4.572 -10.454  14.774  0.00  0.00    +0.093 C 
ATOM     19  C   UNL     1      -4.192 -10.434  14.042  0.00  0.00    +0.023 C 
ATOM     20  C   UNL     1      -4.513 -10.275  13.300  0.00  0.00    +0.022 C 
ATOM     21  C   UNL     1      -3.939 -10.312  12.708  0.00  0.00    +0.094 C 
ENDROOT
BRANCH   2  22
ATOM     22  C   UNL     1      -3.779 -10.065  10.545  0.00  0.00    +0.054 A 
ATOM     23  C   UNL     1      -4.023 -10.688  10.063  0.00  0.00    +0.005 A 
ATOM     24  C   UNL     1      -4.230 -10.546   9.278  0.00  0.00    +0.000 A 
ATOM     25  C   UNL     1      -4.193  -9.780   8.974  0.00  0.00    +0.000 A 
ATOM     26  C   UNL     1      -3.950  -9.156   9.455  0.00  0.00    +0.000 A 
ATOM     27  C   UNL     1      -3.742  -9.298  10.242  0.00  0.00    +0.005 A 
ENDBRANCH   2  22
BRANCH  10  11
ATOM     11  C   UNL     1      -5.580 -10.379  15.739  0.00  0.00    +0.100 C 
BRANCH  11  12
ATOM     12  C   UNL     1      -5.024 -10.220  16.326  0.00  0.00    +0.069 C 
BRANCH  12  13
ATOM     13  C   UNL     1      -5.206 -10.368  17.117  0.00  0.00    +0.082 A 
ATOM     14  C   UNL     1      -5.906 -10.157  17.502  0.00  0.00    +0.115 A 
ATOM     15  N   UNL     1      -5.853 -10.412  18.285  0.00  0.00    -0.221 NA
ATOM     16  C   UNL     1      -5.122 -10.781  18.384  0.00  0.00    +0.199 A 
ATOM     17  N   UNL     1      -4.722 -10.754  17.662  0.00  0.00    -0.227 NA
ENDBRANCH  12  13
ENDBRANCH  11  12
ENDBRANCH  10  11
TORSDOF 4
ENDMDL
