MODEL 1
REMARK VINA RESULT:     -11.9      0.000      0.000
REMARK  Name = 
REMARK  4 active torsions:
REMARK  status: ('A' for Active; 'I' for Inactive)
REMARK    1  A    between atoms: C_2  and  C_4
REMARK    2  A    between atoms: C_6  and  C_7
REMARK    3  A    between atoms: C_7  and  C_8
REMARK    4  A    between atoms: C_21  and  C_22
REMARK                            x       y       z     vdW  Elec       q    Type
REMARK                         _______ _______ _______ _____ _____    ______ ____
ROOT
ATOM      4  C   UNL     1      -3.270   1.823  24.018  0.00  0.00    +0.006 C 
ATOM      5  C   UNL     1      -3.382   1.154  24.488  0.00  0.00    +0.005 C 
ATOM      6  C   UNL     1      -4.070   1.076  24.936  0.00  0.00    +0.025 C 
ATOM     18  C   UNL     1      -4.646   1.667  24.914  0.00  0.00    -0.048 C 
ATOM     19  C   UNL     1      -5.335   1.590  25.362  0.00  0.00    +0.026 C 
ATOM     20  C   UNL     1      -4.533   2.335  24.444  0.00  0.00    -0.033 C 
ATOM     21  C   UNL     1      -3.845   2.413  23.996  0.00  0.00    +0.040 C 
ENDROOT
BRANCH   4   2
ATOM      1  C   UNL     1      -2.595   1.740  22.761  0.00  0.00    +0.000 C 
ATOM      2  C   UNL     1      -2.581   1.900  23.570  0.00  0.00    +0.000 C 
ATOM      3  C   UNL     1      -1.878   2.139  23.931  0.00  0.00    +0.000 C 
ENDBRANCH   4   2
BRANCH  21  22
ATOM     22  C   UNL     1      -3.732   3.082  23.526  0.00  0.00    +0.114 C 
ATOM     23  N   UNL     1      -4.203   3.749  23.638  0.00  0.00    -0.131 NA
ENDBRANCH  21  22
BRANCH   6   7
ATOM      7  C   UNL     1      -4.184   0.408  25.406  0.00  0.00    +0.068 C 
BRANCH   7   8
ATOM      8  C   UNL     1      -4.086  -0.345  25.084  0.00  0.00    +0.121 A 
ATOM      9  N   UNL     1      -4.410  -0.615  24.376  0.00  0.00    -0.231 NA
ATOM     10  C   UNL     1      -4.171  -1.397  24.268  0.00  0.00    +0.098 A 
ATOM     11  C   UNL     1      -3.699  -1.611  24.911  0.00  0.00    +0.079 A 
ATOM     12  C   UNL     1      -3.379  -2.370  24.953  0.00  0.00    +0.019 A 
ATOM     13  C   UNL     1      -3.530  -2.915  24.353  0.00  0.00    +0.002 A 
ATOM     14  C   UNL     1      -4.002  -2.702  23.711  0.00  0.00    +0.002 A 
ATOM     15  C   UNL     1      -4.322  -1.943  23.668  0.00  0.00    +0.021 A 
ATOM     16  N   UNL     1      -3.647  -0.961  25.415  0.00  0.00    -0.313 N 
ATOM     17  C   UNL     1      -3.229  -0.931  26.125  0.00  0.00    +0.132 C 
ENDBRANCH   7   8
ENDBRANCH   6   7
TORSDOF 4
ENDMDL
MODEL 2
REMARK VINA RESULT:     -11.5      1.314      4.004
REMARK  Name = 
REMARK  4 active torsions:
REMARK  status: ('A' for Active; 'I' for Inactive)
REMARK    1  A    between atoms: C_2  and  C_4
REMARK    2  A    between atoms: C_6  and  C_7
REMARK    3  A    between atoms: C_7  and  C_8
REMARK    4  A    between atoms: C_21  and  C_22
REMARK                            x       y       z     vdW  Elec       q    Type
REMARK                         _______ _______ _______ _____ _____    ______ ____
ROOT
ATOM      4  C   UNL     1      -2.317  -0.928  25.115  0.00  0.00    +0.006 C 
ATOM      5  C   UNL     1      -2.967  -0.418  25.120  0.00  0.00    +0.005 C 
ATOM      6  C   UNL     1      -3.658  -0.628  24.722  0.00  0.00    +0.025 C 
ATOM     18  C   UNL     1      -3.701  -1.348  24.320  0.00  0.00    -0.048 C 
ATOM     19  C   UNL     1      -4.392  -1.558  23.922  0.00  0.00    +0.026 C 
ATOM     20  C   UNL     1      -3.051  -1.856  24.316  0.00  0.00    -0.033 C 
ATOM     21  C   UNL     1      -2.360  -1.646  24.714  0.00  0.00    +0.040 C 
ENDROOT
BRANCH   4   2
ATOM      1  C   UNL     1      -1.565  -0.837  26.327  0.00  0.00    +0.000 C 
ATOM      2  C   UNL     1      -1.626  -0.718  25.513  0.00  0.00    +0.000 C 
ATOM      3  C   UNL     1      -0.994  -0.388  25.096  0.00  0.00    +0.000 C 
ENDBRANCH   4   2
BRANCH  21  22
ATOM     22  C   UNL     1      -1.711  -2.156  24.709  0.00  0.00    +0.114 C 
ATOM     23  N   UNL     1      -1.747  -2.867  24.292  0.00  0.00    -0.131 NA
ENDBRANCH  21  22
BRANCH   6   7
ATOM      7  C   UNL     1      -4.308  -0.120  24.726  0.00  0.00    +0.068 C 
BRANCH   7   8
ATOM      8  C   UNL     1      -4.210   0.676  24.533  0.00  0.00    +0.121 A 
ATOM      9  N   UNL     1      -3.714   0.976  23.947  0.00  0.00    -0.231 NA
ATOM     10  C   UNL     1      -3.789   1.797  23.943  0.00  0.00    +0.098 A 
ATOM     11  C   UNL     1      -4.332   2.005  24.528  0.00  0.00    +0.079 A 
ATOM     12  C   UNL     1      -4.519   2.799  24.652  0.00  0.00    +0.019 A 
ATOM     13  C   UNL     1      -4.164   3.384  24.193  0.00  0.00    +0.002 A 
ATOM     14  C   UNL     1      -3.620   3.176  23.608  0.00  0.00    +0.002 A 
ATOM     15  C   UNL     1      -3.432   2.382  23.483  0.00  0.00    +0.021 A 
ATOM     16  N   UNL     1      -4.593   1.313  24.893  0.00  0.00    -0.313 N 
ATOM     17  C   UNL     1      -5.139   1.265  25.508  0.00  0.00    +0.132 C 
ENDBRANCH   7   8
ENDBRANCH   6   7
TORSDOF 4
ENDMDL
MODEL 3
REMARK VINA RESULT:     -11.3      0.707      1.729
REMARK  Name = 
REMARK  4 active torsions:
REMARK  status: ('A' for Active; 'I' for Inactive)
REMARK    1  A    between atoms: C_2  and  C_4
REMARK    2  A    between atoms: C_6  and  C_7
REMARK    3  A    between atoms: C_7  and  C_8
REMARK    4  A    between atoms: C_21  and  C_22
REMARK                            x       y       z     vdW  Elec       q    Type
REMARK                         _______ _______ _______ _____ _____    ______ ____
ROOT
ATOM      4  C   UNL     1      -4.261   2.098  24.755  0.00  0.00    +0.006 C 
ATOM      5  C   UNL     1      -3.801   1.434  24.925  0.00  0.00    +0.005 C 
ATOM      6  C   UNL     1      -3.085   1.317  24.533  0.00  0.00    +0.025 C 
ATOM     18  C   UNL     1      -2.828   1.864  23.971  0.00  0.00    -0.048 C 
ATOM     19  C   UNL     1      -2.111   1.748  23.579  0.00  0.00    +0.026 C 
ATOM     20  C   UNL     1      -3.287   2.528  23.802  0.00  0.00    -0.033 C 
ATOM     21  C   UNL     1      -4.004   2.645  24.194  0.00  0.00    +0.040 C 
ENDROOT
BRANCH   4   2
ATOM      1  C   UNL     1      -5.670   1.883  24.848  0.00  0.00    +0.000 C 
ATOM      2  C   UNL     1      -4.977   2.215  25.147  0.00  0.00    +0.000 C 
ATOM      3  C   UNL     1      -5.001   2.664  25.840  0.00  0.00    +0.000 C 
ENDBRANCH   4   2
BRANCH  21  22
ATOM     22  C   UNL     1      -4.463   3.309  24.024  0.00  0.00    +0.114 C 
ATOM     23  N   UNL     1      -4.155   3.916  23.558  0.00  0.00    -0.131 NA
ENDBRANCH  21  22
BRANCH   6   7
ATOM      7  C   UNL     1      -2.625   0.653  24.702  0.00  0.00    +0.068 C 
BRANCH   7   8
ATOM      8  C   UNL     1      -2.941  -0.103  24.607  0.00  0.00    +0.121 A 
ATOM      9  N   UNL     1      -3.476  -0.335  24.025  0.00  0.00    -0.231 NA
ATOM     10  C   UNL     1      -3.643  -1.135  24.136  0.00  0.00    +0.098 A 
ATOM     11  C   UNL     1      -3.210  -1.398  24.787  0.00  0.00    +0.079 A 
ATOM     12  C   UNL     1      -3.267  -2.184  25.031  0.00  0.00    +0.019 A 
ATOM     13  C   UNL     1      -3.756  -2.708  24.623  0.00  0.00    +0.002 A 
ATOM     14  C   UNL     1      -4.189  -2.445  23.972  0.00  0.00    +0.002 A 
ATOM     15  C   UNL     1      -4.133  -1.659  23.728  0.00  0.00    +0.021 A 
ATOM     16  N   UNL     1      -2.776  -0.760  25.079  0.00  0.00    -0.313 N 
ATOM     17  C   UNL     1      -2.267  -0.776  25.727  0.00  0.00    +0.132 C 
ENDBRANCH   7   8
ENDBRANCH   6   7
TORSDOF 4
ENDMDL
MODEL 4
REMARK VINA RESULT:     -10.7      1.723      3.943
REMARK  Name = 
REMARK  4 active torsions:
REMARK  status: ('A' for Active; 'I' for Inactive)
REMARK    1  A    between atoms: C_2  and  C_4
REMARK    2  A    between atoms: C_6  and  C_7
REMARK    3  A    between atoms: C_7  and  C_8
REMARK    4  A    between atoms: C_21  and  C_22
REMARK                            x       y       z     vdW  Elec       q    Type
REMARK                         _______ _______ _______ _____ _____    ______ ____
ROOT
ATOM      4  C   UNL     1      -4.240   1.130  24.607  0.00  0.00    +0.006 C 
ATOM      5  C   UNL     1      -3.535   1.458  24.332  0.00  0.00    +0.005 C 
ATOM      6  C   UNL     1      -3.494   2.266  24.166  0.00  0.00    +0.025 C 
ATOM     18  C   UNL     1      -4.158   2.744  24.276  0.00  0.00    -0.048 C 
ATOM     19  C   UNL     1      -4.117   3.551  24.110  0.00  0.00    +0.026 C 
ATOM     20  C   UNL     1      -4.862   2.414  24.551  0.00  0.00    -0.033 C 
ATOM     21  C   UNL     1      -4.903   1.607  24.716  0.00  0.00    +0.040 C 
ENDROOT
BRANCH   4   2
ATOM      1  C   UNL     1      -4.194   0.055  25.548  0.00  0.00    +0.000 C 
ATOM      2  C   UNL     1      -4.281   0.322  24.772  0.00  0.00    +0.000 C 
ATOM      3  C   UNL     1      -4.409  -0.218  24.162  0.00  0.00    +0.000 C 
ENDBRANCH   4   2
BRANCH  21  22
ATOM     22  C   UNL     1      -5.608   1.278  24.991  0.00  0.00    +0.114 C 
ATOM     23  N   UNL     1      -6.281   1.748  25.068  0.00  0.00    -0.131 NA
ENDBRANCH  21  22
BRANCH   6   7
ATOM      7  C   UNL     1      -2.789   2.596  23.892  0.00  0.00    +0.068 C 
BRANCH   7   8
ATOM      8  C   UNL     1      -2.106   2.552  24.352  0.00  0.00    +0.121 A 
ATOM      9  N   UNL     1      -2.039   2.774  25.143  0.00  0.00    -0.231 NA
ATOM     10  C   UNL     1      -1.261   2.639  25.381  0.00  0.00    +0.098 A 
ATOM     11  C   UNL     1      -0.847   2.332  24.736  0.00  0.00    +0.079 A 
ATOM     12  C   UNL     1      -0.048   2.142  24.813  0.00  0.00    +0.019 A 
ATOM     13  C   UNL     1       0.337   2.258  25.533  0.00  0.00    +0.002 A 
ATOM     14  C   UNL     1      -0.077   2.564  26.177  0.00  0.00    +0.002 A 
ATOM     15  C   UNL     1      -0.876   2.755  26.102  0.00  0.00    +0.021 A 
ATOM     16  N   UNL     1      -1.369   2.279  24.100  0.00  0.00    -0.313 N 
ATOM     17  C   UNL     1      -1.186   2.001  23.346  0.00  0.00    +0.132 C 
ENDBRANCH   7   8
ENDBRANCH   6   7
TORSDOF 4
ENDMDL
MODEL 5
REMARK VINA RESULT:     -10.6      1.336      4.160
REMARK  Name = 
REMARK  4 active torsions:
REMARK  status: ('A' for Active; 'I' for Inactive)
REMARK    1  A    between atoms: C_2  and  C_4
REMARK    2  A    between atoms: C_6  and  C_7
REMARK    3  A    between atoms: C_7  and  C_8
REMARK    4  A    between atoms: C_21  and  C_22
REMARK                            x       y       z     vdW  Elec       q    Type
REMARK                         _______ _______ _______ _____ _____    ______ ____
ROOT
ATOM      4  C   UNL     1      -2.471  -0.897  24.929  0.00  0.00    +0.006 C 
ATOM      5  C   UNL     1      -2.685  -0.239  24.479  0.00  0.00    +0.005 C 
ATOM      6  C   UNL     1      -3.424  -0.215  24.112  0.00  0.00    +0.025 C 
ATOM     18  C   UNL     1      -3.948  -0.848  24.194  0.00  0.00    -0.048 C 
ATOM     19  C   UNL     1      -4.686  -0.823  23.827  0.00  0.00    +0.026 C 
ATOM     20  C   UNL     1      -3.732  -1.504  24.645  0.00  0.00    -0.033 C 
ATOM     21  C   UNL     1      -2.994  -1.529  25.012  0.00  0.00    +0.040 C 
ENDROOT
BRANCH   4   2
ATOM      1  C   UNL     1      -1.646  -0.646  26.069  0.00  0.00    +0.000 C 
ATOM      2  C   UNL     1      -1.733  -0.921  25.296  0.00  0.00    +0.000 C 
ATOM      3  C   UNL     1      -1.079  -1.222  24.891  0.00  0.00    +0.000 C 
ENDBRANCH   4   2
BRANCH  21  22
ATOM     22  C   UNL     1      -2.779  -2.186  25.462  0.00  0.00    +0.114 C 
ATOM     23  N   UNL     1      -3.274  -2.845  25.494  0.00  0.00    -0.131 NA
ENDBRANCH  21  22
BRANCH   6   7
ATOM      7  C   UNL     1      -3.639   0.442  23.661  0.00  0.00    +0.068 C 
BRANCH   7   8
ATOM      8  C   UNL     1      -3.699   1.184  24.016  0.00  0.00    +0.121 A 
ATOM      9  N   UNL     1      -4.109   1.359  24.710  0.00  0.00    -0.231 NA
ATOM     10  C   UNL     1      -4.022   2.164  24.861  0.00  0.00    +0.098 A 
ATOM     11  C   UNL     1      -3.559   2.489  24.261  0.00  0.00    +0.079 A 
ATOM     12  C   UNL     1      -3.379   3.294  24.268  0.00  0.00    +0.019 A 
ATOM     13  C   UNL     1      -3.662   3.775  24.875  0.00  0.00    +0.002 A 
ATOM     14  C   UNL     1      -4.126   3.451  25.476  0.00  0.00    +0.002 A 
ATOM     15  C   UNL     1      -4.306   2.646  25.469  0.00  0.00    +0.021 A 
ATOM     16  N   UNL     1      -3.359   1.883  23.738  0.00  0.00    -0.313 N 
ATOM     17  C   UNL     1      -2.900   1.962  23.058  0.00  0.00    +0.132 C 
ENDBRANCH   7   8
ENDBRANCH   6   7
TORSDOF 4
ENDMDL
MODEL 6
REMARK VINA RESULT:     -10.5      2.739      4.099
REMARK  Name = 
REMARK  4 active torsions:
REMARK  status: ('A' for Active; 'I' for Inactive)
REMARK    1  A    between atoms: C_2  and  C_4
REMARK    2  A    between atoms: C_6  and  C_7
REMARK    3  A    between atoms: C_7  and  C_8
REMARK    4  A    between atoms: C_21  and  C_22
REMARK                            x       y       z     vdW  Elec       q    Type
REMARK                         _______ _______ _______ _____ _____    ______ ____
ROOT
ATOM      4  C   UNL     1      -1.122   2.074  25.152  0.00  0.00    +0.006 C 
ATOM      5  C   UNL     1      -1.805   2.380  24.804  0.00  0.00    +0.005 C 
ATOM      6  C   UNL     1      -1.982   3.182  24.879  0.00  0.00    +0.025 C 
ATOM     18  C   UNL     1      -1.476   3.679  25.304  0.00  0.00    -0.048 C 
ATOM     19  C   UNL     1      -1.653   4.481  25.379  0.00  0.00    +0.026 C 
ATOM     20  C   UNL     1      -0.794   3.372  25.651  0.00  0.00    -0.033 C 
ATOM     21  C   UNL     1      -0.617   2.569  25.576  0.00  0.00    +0.040 C 
ENDROOT
BRANCH   4   2
ATOM      1  C   UNL     1      -0.514   1.004  24.426  0.00  0.00    +0.000 C 
ATOM      2  C   UNL     1      -0.945   1.272  25.077  0.00  0.00    +0.000 C 
ATOM      3  C   UNL     1      -1.199   0.737  25.652  0.00  0.00    +0.000 C 
ENDBRANCH   4   2
BRANCH  21  22
ATOM     22  C   UNL     1       0.065   2.263  25.924  0.00  0.00    +0.114 C 
ATOM     23  N   UNL     1       0.536   2.743  26.402  0.00  0.00    -0.131 NA
ENDBRANCH  21  22
BRANCH   6   7
ATOM      7  C   UNL     1      -2.664   3.489  24.532  0.00  0.00    +0.068 C 
BRANCH   7   8
ATOM      8  C   UNL     1      -3.403   3.179  24.727  0.00  0.00    +0.121 A 
ATOM      9  N   UNL     1      -3.729   3.142  25.483  0.00  0.00    -0.231 NA
ATOM     10  C   UNL     1      -4.472   2.791  25.424  0.00  0.00    +0.098 A 
ATOM     11  C   UNL     1      -4.607   2.611  24.630  0.00  0.00    +0.079 A 
ATOM     12  C   UNL     1      -5.314   2.253  24.402  0.00  0.00    +0.019 A 
ATOM     13  C   UNL     1      -5.887   2.074  24.968  0.00  0.00    +0.002 A 
ATOM     14  C   UNL     1      -5.752   2.253  25.762  0.00  0.00    +0.002 A 
ATOM     15  C   UNL     1      -5.046   2.612  25.990  0.00  0.00    +0.021 A 
ATOM     16  N   UNL     1      -3.946   2.851  24.199  0.00  0.00    -0.313 N 
ATOM     17  C   UNL     1      -3.845   2.776  23.384  0.00  0.00    +0.132 C 
ENDBRANCH   7   8
ENDBRANCH   6   7
TORSDOF 4
ENDMDL
MODEL 7
REMARK VINA RESULT:     -10.4      1.561      2.324
REMARK  Name = 
REMARK  4 active torsions:
REMARK  status: ('A' for Active; 'I' for Inactive)
REMARK    1  A    between atoms: C_2  and  C_4
REMARK    2  A    between atoms: C_6  and  C_7
REMARK    3  A    between atoms: C_7  and  C_8
REMARK    4  A    between atoms: C_21  and  C_22
REMARK                            x       y       z     vdW  Elec       q    Type
REMARK                         _______ _______ _______ _____ _____    ______ ____
ROOT
ATOM      4  C   UNL     1      -2.482   2.201  24.327  0.00  0.00    +0.006 C 
ATOM      5  C   UNL     1      -2.135   1.456  24.401  0.00  0.00    +0.005 C 
ATOM      6  C   UNL     1      -1.527   1.337  24.945  0.00  0.00    +0.025 C 
ATOM     18  C   UNL     1      -1.265   1.964  25.416  0.00  0.00    -0.048 C 
ATOM     19  C   UNL     1      -0.657   1.845  25.960  0.00  0.00    +0.026 C 
ATOM     20  C   UNL     1      -1.612   2.708  25.341  0.00  0.00    -0.033 C 
ATOM     21  C   UNL     1      -2.221   2.827  24.796  0.00  0.00    +0.040 C 
ENDROOT
BRANCH   4   2
ATOM      1  C   UNL     1      -3.871   2.377  24.041  0.00  0.00    +0.000 C 
ATOM      2  C   UNL     1      -3.090   2.320  23.782  0.00  0.00    +0.000 C 
ATOM      3  C   UNL     1      -2.917   2.383  22.977  0.00  0.00    +0.000 C 
ENDBRANCH   4   2
BRANCH  21  22
ATOM     22  C   UNL     1      -2.568   3.572  24.722  0.00  0.00    +0.114 C 
ATOM     23  N   UNL     1      -2.294   4.202  25.178  0.00  0.00    -0.131 NA
ENDBRANCH  21  22
BRANCH   6   7
ATOM      7  C   UNL     1      -1.179   0.593  25.020  0.00  0.00    +0.068 C 
BRANCH   7   8
ATOM      8  C   UNL     1      -1.652  -0.082  25.050  0.00  0.00    +0.121 A 
ATOM      9  N   UNL     1      -2.358  -0.162  25.469  0.00  0.00    -0.231 NA
ATOM     10  C   UNL     1      -2.644  -0.925  25.344  0.00  0.00    +0.098 A 
ATOM     11  C   UNL     1      -2.114  -1.318  24.848  0.00  0.00    +0.079 A 
ATOM     12  C   UNL     1      -2.259  -2.100  24.627  0.00  0.00    +0.019 A 
ATOM     13  C   UNL     1      -2.933  -2.488  24.900  0.00  0.00    +0.002 A 
ATOM     14  C   UNL     1      -3.463  -2.095  25.396  0.00  0.00    +0.002 A 
ATOM     15  C   UNL     1      -3.319  -1.314  25.618  0.00  0.00    +0.021 A 
ATOM     16  N   UNL     1      -1.501  -0.798  24.666  0.00  0.00    -0.313 N 
ATOM     17  C   UNL     1      -0.852  -0.962  24.186  0.00  0.00    +0.132 C 
ENDBRANCH   7   8
ENDBRANCH   6   7
TORSDOF 4
ENDMDL
MODEL 8
REMARK VINA RESULT:     -10.4      1.959      4.618
REMARK  Name = 
REMARK  4 active torsions:
REMARK  status: ('A' for Active; 'I' for Inactive)
REMARK    1  A    between atoms: C_2  and  C_4
REMARK    2  A    between atoms: C_6  and  C_7
REMARK    3  A    between atoms: C_7  and  C_8
REMARK    4  A    between atoms: C_21  and  C_22
REMARK                            x       y       z     vdW  Elec       q    Type
REMARK                         _______ _______ _______ _____ _____    ______ ____
ROOT
ATOM      4  C   UNL     1      -3.047  -0.005  24.773  0.00  0.00    +0.006 C 
ATOM      5  C   UNL     1      -2.397   0.499  24.697  0.00  0.00    +0.005 C 
ATOM      6  C   UNL     1      -1.704   0.344  25.117  0.00  0.00    +0.025 C 
ATOM     18  C   UNL     1      -1.661  -0.315  25.613  0.00  0.00    -0.048 C 
ATOM     19  C   UNL     1      -0.968  -0.470  26.033  0.00  0.00    +0.026 C 
ATOM     20  C   UNL     1      -2.311  -0.818  25.688  0.00  0.00    -0.033 C 
ATOM     21  C   UNL     1      -3.004  -0.662  25.268  0.00  0.00    +0.040 C 
ENDROOT
BRANCH   4   2
ATOM      1  C   UNL     1      -3.810  -0.092  23.568  0.00  0.00    +0.000 C 
ATOM      2  C   UNL     1      -3.740   0.151  24.353  0.00  0.00    +0.000 C 
ATOM      3  C   UNL     1      -4.364   0.550  24.719  0.00  0.00    +0.000 C 
ENDBRANCH   4   2
BRANCH  21  22
ATOM     22  C   UNL     1      -3.653  -1.166  25.345  0.00  0.00    +0.114 C 
ATOM     23  N   UNL     1      -3.571  -1.890  25.729  0.00  0.00    -0.131 NA
ENDBRANCH  21  22
BRANCH   6   7
ATOM      7  C   UNL     1      -1.055   0.846  25.042  0.00  0.00    +0.068 C 
BRANCH   7   8
ATOM      8  C   UNL     1      -1.153   1.662  25.110  0.00  0.00    +0.121 A 
ATOM      9  N   UNL     1      -1.658   2.047  25.637  0.00  0.00    -0.231 NA
ATOM     10  C   UNL     1      -1.581   2.859  25.516  0.00  0.00    +0.098 A 
ATOM     11  C   UNL     1      -1.029   2.976  24.914  0.00  0.00    +0.079 A 
ATOM     12  C   UNL     1      -0.839   3.742  24.672  0.00  0.00    +0.019 A 
ATOM     13  C   UNL     1      -1.200   4.390  25.032  0.00  0.00    +0.002 A 
ATOM     14  C   UNL     1      -1.752   4.273  25.634  0.00  0.00    +0.002 A 
ATOM     15  C   UNL     1      -1.943   3.508  25.876  0.00  0.00    +0.021 A 
ATOM     16  N   UNL     1      -0.765   2.237  24.663  0.00  0.00    -0.313 N 
ATOM     17  C   UNL     1      -0.210   2.096  24.070  0.00  0.00    +0.132 C 
ENDBRANCH   7   8
ENDBRANCH   6   7
TORSDOF 4
ENDMDL
