MODEL 1
REMARK VINA RESULT:     -15.0      0.000      0.000
REMARK  Name = 
REMARK  4 active torsions:
REMARK  status: ('A' for Active; 'I' for Inactive)
REMARK    1  A    between atoms: C_8  and  C_10
REMARK    2  A    between atoms: C_10  and  C_11
REMARK    3  A    between atoms: C_16  and  C_18
REMARK    4  A    between atoms: C_27  and  C_29
REMARK                            x       y       z     vdW  Elec       q    Type
REMARK                         _______ _______ _______ _____ _____    ______ ____
ROOT
ATOM     11  C   UNL     1      -3.845   1.112  24.709  0.00  0.00    +0.050 C 
ATOM     12  C   UNL     1      -3.066   1.373  24.628  0.00  0.00    +0.062 A 
ATOM     13  C   UNL     1      -2.879   2.163  24.775  0.00  0.00    +0.022 A 
ATOM     14  C   UNL     1      -3.470   2.692  25.001  0.00  0.00    +0.034 C 
ATOM     15  C   UNL     1      -4.248   2.431  25.082  0.00  0.00    +0.010 C 
ATOM     16  C   UNL     1      -4.839   2.960  25.308  0.00  0.00    +0.059 C 
ATOM     17  C   UNL     1      -4.187   3.465  25.306  0.00  0.00    +0.005 C 
ATOM     20  C   UNL     1      -5.618   2.699  25.388  0.00  0.00    +0.154 C 
ATOM     21  O   UNL     1      -6.210   3.228  25.615  0.00  0.00    -0.223 OA
ATOM     22  C   UNL     1      -5.805   1.909  25.242  0.00  0.00    +0.033 C 
ATOM     23  C   UNL     1      -5.214   1.380  25.015  0.00  0.00    +0.003 C 
ATOM     24  C   UNL     1      -4.436   1.641  24.935  0.00  0.00    +0.006 C 
ATOM     25  C   UNL     1      -4.623   0.851  24.789  0.00  0.00    +0.000 C 
ATOM     26  S   UNL     1      -2.068   2.260  24.651  0.00  0.00    -0.071 S 
ATOM     27  C   UNL     1      -1.756   1.531  24.429  0.00  0.00    +0.111 A 
ATOM     28  N   UNL     1      -2.371   0.982  24.415  0.00  0.00    -0.243 NA
ENDROOT
BRANCH  27  29
ATOM     29  C   UNL     1      -0.965   1.376  24.252  0.00  0.00    +0.031 A 
ATOM     30  C   UNL     1      -0.319   1.838  24.475  0.00  0.00    +0.037 A 
ATOM     31  S   UNL     1       0.364   1.480  24.181  0.00  0.00    -0.086 S 
ATOM     32  C   UNL     1       0.140   0.796  23.777  0.00  0.00    +0.036 A 
ATOM     33  C   UNL     1      -0.682   0.732  23.821  0.00  0.00    +0.010 A 
ENDBRANCH  27  29
BRANCH  16  18
ATOM     18  C   UNL     1      -5.204   3.665  25.534  0.00  0.00    +0.184 C 
ATOM     19  O   UNL     1      -4.801   4.380  25.463  0.00  0.00    -0.220 OA
ENDBRANCH  16  18
BRANCH  11  10
ATOM     10  C   UNL     1      -4.032   0.323  24.563  0.00  0.00    +0.091 C 
BRANCH  10   8
ATOM      1  C   UNL     1      -3.715  -3.419  24.118  0.00  0.00    +0.000 C 
ATOM      2  C   UNL     1      -3.732  -2.630  24.360  0.00  0.00    +0.003 C 
ATOM      3  C   UNL     1      -3.981  -2.043  23.837  0.00  0.00    +0.022 C 
ATOM      4  C   UNL     1      -3.998  -1.254  24.079  0.00  0.00    +0.093 C 
ATOM      5  N   UNL     1      -3.766  -1.053  24.844  0.00  0.00    -0.280 N 
ATOM      6  C   UNL     1      -3.517  -1.639  25.367  0.00  0.00    +0.093 C 
ATOM      7  C   UNL     1      -3.500  -2.428  25.125  0.00  0.00    +0.022 C 
ATOM      8  C   UNL     1      -3.783  -0.264  25.086  0.00  0.00    +0.226 C 
ATOM      9  O   UNL     1      -3.551  -0.062  25.851  0.00  0.00    -0.275 OA
ENDBRANCH  10   8
ENDBRANCH  11  10
TORSDOF 4
ENDMDL
MODEL 2
REMARK VINA RESULT:     -14.5      1.502      4.146
REMARK  Name = 
REMARK  4 active torsions:
REMARK  status: ('A' for Active; 'I' for Inactive)
REMARK    1  A    between atoms: C_8  and  C_10
REMARK    2  A    between atoms: C_10  and  C_11
REMARK    3  A    between atoms: C_16  and  C_18
REMARK    4  A    between atoms: C_27  and  C_29
REMARK                            x       y       z     vdW  Elec       q    Type
REMARK                         _______ _______ _______ _____ _____    ______ ____
ROOT
ATOM     11  C   UNL     1      -3.156   0.074  24.928  0.00  0.00    +0.050 C 
ATOM     12  C   UNL     1      -2.379   0.335  25.031  0.00  0.00    +0.062 A 
ATOM     13  C   UNL     1      -1.751  -0.193  24.944  0.00  0.00    +0.022 A 
ATOM     14  C   UNL     1      -1.899  -0.982  24.753  0.00  0.00    +0.034 C 
ATOM     15  C   UNL     1      -2.674  -1.243  24.649  0.00  0.00    +0.010 C 
ATOM     16  C   UNL     1      -2.822  -2.031  24.459  0.00  0.00    +0.059 C 
ATOM     17  C   UNL     1      -1.998  -2.046  24.501  0.00  0.00    +0.005 C 
ATOM     20  C   UNL     1      -3.598  -2.293  24.355  0.00  0.00    +0.154 C 
ATOM     21  O   UNL     1      -3.746  -3.082  24.164  0.00  0.00    -0.223 OA
ATOM     22  C   UNL     1      -4.226  -1.765  24.442  0.00  0.00    +0.033 C 
ATOM     23  C   UNL     1      -4.078  -0.976  24.633  0.00  0.00    +0.003 C 
ATOM     24  C   UNL     1      -3.302  -0.715  24.737  0.00  0.00    +0.006 C 
ATOM     25  C   UNL     1      -3.930  -0.188  24.824  0.00  0.00    +0.000 C 
ATOM     26  S   UNL     1      -1.050   0.221  25.079  0.00  0.00    -0.071 S 
ATOM     27  C   UNL     1      -1.245   1.003  25.249  0.00  0.00    +0.111 A 
ATOM     28  N   UNL     1      -2.066   1.075  25.220  0.00  0.00    -0.243 NA
ENDROOT
BRANCH  27  29
ATOM     29  C   UNL     1      -0.712   1.610  25.419  0.00  0.00    +0.031 A 
ATOM     30  C   UNL     1      -0.236   2.005  24.873  0.00  0.00    +0.037 A 
ATOM     31  S   UNL     1       0.209   2.567  25.281  0.00  0.00    -0.086 S 
ATOM     32  C   UNL     1       0.009   2.519  26.080  0.00  0.00    +0.036 A 
ATOM     33  C   UNL     1      -0.561   1.927  26.165  0.00  0.00    +0.010 A 
ENDBRANCH  27  29
BRANCH  16  18
ATOM     18  C   UNL     1      -2.684  -2.826  24.282  0.00  0.00    +0.184 C 
ATOM     19  O   UNL     1      -1.915  -3.091  24.145  0.00  0.00    -0.220 OA
ENDBRANCH  16  18
BRANCH  11  10
ATOM     10  C   UNL     1      -3.783   0.601  25.015  0.00  0.00    +0.091 C 
BRANCH  10   8
ATOM      1  C   UNL     1      -5.520   3.939  25.380  0.00  0.00    +0.000 C 
ATOM      2  C   UNL     1      -5.109   3.260  25.155  0.00  0.00    +0.003 C 
ATOM      3  C   UNL     1      -5.014   2.639  25.690  0.00  0.00    +0.022 C 
ATOM      4  C   UNL     1      -4.604   1.959  25.465  0.00  0.00    +0.093 C 
ATOM      5  N   UNL     1      -4.288   1.901  24.705  0.00  0.00    -0.280 N 
ATOM      6  C   UNL     1      -4.383   2.521  24.171  0.00  0.00    +0.093 C 
ATOM      7  C   UNL     1      -4.793   3.201  24.396  0.00  0.00    +0.022 C 
ATOM      8  C   UNL     1      -3.878   1.222  24.480  0.00  0.00    +0.226 C 
ATOM      9  O   UNL     1      -3.562   1.163  23.721  0.00  0.00    -0.275 OA
ENDBRANCH  10   8
ENDBRANCH  11  10
TORSDOF 4
ENDMDL
MODEL 3
REMARK VINA RESULT:     -14.0      1.957      4.956
REMARK  Name = 
REMARK  4 active torsions:
REMARK  status: ('A' for Active; 'I' for Inactive)
REMARK    1  A    between atoms: C_8  and  C_10
REMARK    2  A    between atoms: C_10  and  C_11
REMARK    3  A    between atoms: C_16  and  C_18
REMARK    4  A    between atoms: C_27  and  C_29
REMARK                            x       y       z     vdW  Elec       q    Type
REMARK                         _______ _______ _______ _____ _____    ______ ____
ROOT
ATOM     11  C   UNL     1      -2.603   0.202  24.937  0.00  0.00    +0.050 C 
ATOM     12  C   UNL     1      -3.386   0.461  24.983  0.00  0.00    +0.062 A 
ATOM     13  C   UNL     1      -4.004  -0.077  24.891  0.00  0.00    +0.022 A 
ATOM     14  C   UNL     1      -3.840  -0.874  24.754  0.00  0.00    +0.034 C 
ATOM     15  C   UNL     1      -3.059  -1.133  24.708  0.00  0.00    +0.010 C 
ATOM     16  C   UNL     1      -2.896  -1.929  24.571  0.00  0.00    +0.059 C 
ATOM     17  C   UNL     1      -3.720  -1.949  24.569  0.00  0.00    +0.005 C 
ATOM     20  C   UNL     1      -2.114  -2.189  24.525  0.00  0.00    +0.154 C 
ATOM     21  O   UNL     1      -1.950  -2.986  24.388  0.00  0.00    -0.223 OA
ATOM     22  C   UNL     1      -1.495  -1.651  24.616  0.00  0.00    +0.033 C 
ATOM     23  C   UNL     1      -1.658  -0.853  24.754  0.00  0.00    +0.003 C 
ATOM     24  C   UNL     1      -2.440  -0.595  24.800  0.00  0.00    +0.006 C 
ATOM     25  C   UNL     1      -1.822  -0.057  24.891  0.00  0.00    +0.000 C 
ATOM     26  S   UNL     1      -4.715   0.337  24.964  0.00  0.00    -0.071 S 
ATOM     27  C   UNL     1      -4.535   1.130  25.100  0.00  0.00    +0.111 A 
ATOM     28  N   UNL     1      -3.714   1.208  25.112  0.00  0.00    -0.243 NA
ENDROOT
BRANCH  27  29
ATOM     29  C   UNL     1      -5.080   1.739  25.205  0.00  0.00    +0.031 A 
ATOM     30  C   UNL     1      -4.917   2.489  25.511  0.00  0.00    +0.037 A 
ATOM     31  S   UNL     1      -5.621   2.920  25.519  0.00  0.00    -0.086 S 
ATOM     32  C   UNL     1      -6.219   2.437  25.218  0.00  0.00    +0.036 A 
ATOM     33  C   UNL     1      -5.884   1.707  25.025  0.00  0.00    +0.010 A 
ENDBRANCH  27  29
BRANCH  16  18
ATOM     18  C   UNL     1      -3.019  -2.734  24.433  0.00  0.00    +0.184 C 
ATOM     19  O   UNL     1      -3.786  -3.031  24.378  0.00  0.00    -0.220 OA
ENDBRANCH  16  18
BRANCH  11  10
ATOM     10  C   UNL     1      -1.985   0.739  25.028  0.00  0.00    +0.091 C 
BRANCH  10   8
ATOM      1  C   UNL     1      -0.345   4.143  25.169  0.00  0.00    +0.000 C 
ATOM      2  C   UNL     1      -0.714   3.429  24.985  0.00  0.00    +0.003 C 
ATOM      3  C   UNL     1      -0.878   2.883  25.581  0.00  0.00    +0.022 C 
ATOM      4  C   UNL     1      -1.247   2.169  25.397  0.00  0.00    +0.093 C 
ATOM      5  N   UNL     1      -1.452   2.000  24.616  0.00  0.00    -0.280 N 
ATOM      6  C   UNL     1      -1.288   2.545  24.020  0.00  0.00    +0.093 C 
ATOM      7  C   UNL     1      -0.919   3.259  24.204  0.00  0.00    +0.022 C 
ATOM      8  C   UNL     1      -1.821   1.285  24.432  0.00  0.00    +0.226 C 
ATOM      9  O   UNL     1      -2.026   1.115  23.651  0.00  0.00    -0.275 OA
ENDBRANCH  10   8
ENDBRANCH  11  10
TORSDOF 4
ENDMDL
MODEL 4
REMARK VINA RESULT:     -13.9      1.291      3.266
REMARK  Name = 
REMARK  4 active torsions:
REMARK  status: ('A' for Active; 'I' for Inactive)
REMARK    1  A    between atoms: C_8  and  C_10
REMARK    2  A    between atoms: C_10  and  C_11
REMARK    3  A    between atoms: C_16  and  C_18
REMARK    4  A    between atoms: C_27  and  C_29
REMARK                            x       y       z     vdW  Elec       q    Type
REMARK                         _______ _______ _______ _____ _____    ______ ____
ROOT
ATOM     11  C   UNL     1      -3.327   1.509  24.562  0.00  0.00    +0.050 C 
ATOM     12  C   UNL     1      -3.652   0.752  24.618  0.00  0.00    +0.062 A 
ATOM     13  C   UNL     1      -4.419   0.652  24.905  0.00  0.00    +0.022 A 
ATOM     14  C   UNL     1      -4.861   1.309  25.137  0.00  0.00    +0.034 C 
ATOM     15  C   UNL     1      -4.537   2.065  25.082  0.00  0.00    +0.010 C 
ATOM     16  C   UNL     1      -4.979   2.721  25.314  0.00  0.00    +0.059 C 
ATOM     17  C   UNL     1      -5.522   2.120  25.468  0.00  0.00    +0.005 C 
ATOM     20  C   UNL     1      -4.655   3.478  25.259  0.00  0.00    +0.154 C 
ATOM     21  O   UNL     1      -5.097   4.135  25.490  0.00  0.00    -0.223 OA
ATOM     22  C   UNL     1      -3.888   3.578  24.971  0.00  0.00    +0.033 C 
ATOM     23  C   UNL     1      -3.445   2.921  24.739  0.00  0.00    +0.003 C 
ATOM     24  C   UNL     1      -3.770   2.165  24.794  0.00  0.00    +0.006 C 
ATOM     25  C   UNL     1      -3.003   2.265  24.507  0.00  0.00    +0.000 C 
ATOM     26  S   UNL     1      -4.591  -0.155  24.897  0.00  0.00    -0.071 S 
ATOM     27  C   UNL     1      -3.931  -0.553  24.605  0.00  0.00    +0.111 A 
ATOM     28  N   UNL     1      -3.350   0.007  24.432  0.00  0.00    -0.243 NA
ENDROOT
BRANCH  27  29
ATOM     29  C   UNL     1      -3.862  -1.369  24.503  0.00  0.00    +0.031 A 
ATOM     30  C   UNL     1      -3.446  -1.886  24.993  0.00  0.00    +0.037 A 
ATOM     31  S   UNL     1      -3.525  -2.648  24.686  0.00  0.00    -0.086 S 
ATOM     32  C   UNL     1      -3.989  -2.602  24.006  0.00  0.00    +0.036 A 
ATOM     33  C   UNL     1      -4.198  -1.811  23.893  0.00  0.00    +0.010 A 
ENDBRANCH  27  29
BRANCH  16  18
ATOM     18  C   UNL     1      -5.610   3.169  25.600  0.00  0.00    +0.184 C 
ATOM     19  O   UNL     1      -6.142   2.839  26.136  0.00  0.00    -0.220 OA
ENDBRANCH  16  18
BRANCH  11  10
ATOM     10  C   UNL     1      -2.561   1.609  24.275  0.00  0.00    +0.091 C 
BRANCH  10   8
ATOM      1  C   UNL     1       0.940   0.559  23.309  0.00  0.00    +0.000 C 
ATOM      2  C   UNL     1       0.226   0.768  23.666  0.00  0.00    +0.003 C 
ATOM      3  C   UNL     1      -0.420   0.984  23.202  0.00  0.00    +0.022 C 
ATOM      4  C   UNL     1      -1.134   1.193  23.560  0.00  0.00    +0.093 C 
ATOM      5  N   UNL     1      -1.201   1.184  24.381  0.00  0.00    -0.280 N 
ATOM      6  C   UNL     1      -0.555   0.968  24.846  0.00  0.00    +0.093 C 
ATOM      7  C   UNL     1       0.159   0.760  24.488  0.00  0.00    +0.022 C 
ATOM      8  C   UNL     1      -1.915   1.393  24.739  0.00  0.00    +0.226 C 
ATOM      9  O   UNL     1      -1.983   1.385  25.561  0.00  0.00    -0.275 OA
ENDBRANCH  10   8
ENDBRANCH  11  10
TORSDOF 4
ENDMDL
MODEL 5
REMARK VINA RESULT:     -13.0      1.654      3.543
REMARK  Name = 
REMARK  4 active torsions:
REMARK  status: ('A' for Active; 'I' for Inactive)
REMARK    1  A    between atoms: C_8  and  C_10
REMARK    2  A    between atoms: C_10  and  C_11
REMARK    3  A    between atoms: C_16  and  C_18
REMARK    4  A    between atoms: C_27  and  C_29
REMARK                            x       y       z     vdW  Elec       q    Type
REMARK                         _______ _______ _______ _____ _____    ______ ____
ROOT
ATOM     11  C   UNL     1      -2.393   1.255  24.540  0.00  0.00    +0.050 C 
ATOM     12  C   UNL     1      -3.061   1.690  24.755  0.00  0.00    +0.062 A 
ATOM     13  C   UNL     1      -2.995   2.496  24.916  0.00  0.00    +0.022 A 
ATOM     14  C   UNL     1      -2.260   2.868  24.862  0.00  0.00    +0.034 C 
ATOM     15  C   UNL     1      -1.593   2.434  24.648  0.00  0.00    +0.010 C 
ATOM     16  C   UNL     1      -0.859   2.806  24.594  0.00  0.00    +0.059 C 
ATOM     17  C   UNL     1      -1.328   3.446  24.817  0.00  0.00    +0.005 C 
ATOM     20  C   UNL     1      -0.190   2.372  24.379  0.00  0.00    +0.154 C 
ATOM     21  O   UNL     1       0.544   2.743  24.326  0.00  0.00    -0.223 OA
ATOM     22  C   UNL     1      -0.257   1.565  24.218  0.00  0.00    +0.033 C 
ATOM     23  C   UNL     1      -0.992   1.193  24.272  0.00  0.00    +0.003 C 
ATOM     24  C   UNL     1      -1.659   1.628  24.487  0.00  0.00    +0.006 C 
ATOM     25  C   UNL     1      -1.726   0.821  24.325  0.00  0.00    +0.000 C 
ATOM     26  S   UNL     1      -3.744   2.779  25.114  0.00  0.00    -0.071 S 
ATOM     27  C   UNL     1      -4.273   2.149  25.074  0.00  0.00    +0.111 A 
ATOM     28  N   UNL     1      -3.852   1.475  24.853  0.00  0.00    -0.243 NA
ENDROOT
BRANCH  27  29
ATOM     29  C   UNL     1      -5.083   2.185  25.229  0.00  0.00    +0.031 A 
ATOM     30  C   UNL     1      -5.437   2.563  25.872  0.00  0.00    +0.037 A 
ATOM     31  S   UNL     1      -6.254   2.461  25.809  0.00  0.00    -0.086 S 
ATOM     32  C   UNL     1      -6.404   2.020  25.128  0.00  0.00    +0.036 A 
ATOM     33  C   UNL     1      -5.680   1.849  24.770  0.00  0.00    +0.010 A 
ENDBRANCH  27  29
BRANCH  16  18
ATOM     18  C   UNL     1      -0.287   3.400  24.618  0.00  0.00    +0.184 C 
ATOM     19  O   UNL     1      -0.502   4.173  24.810  0.00  0.00    -0.220 OA
ENDBRANCH  16  18
BRANCH  11  10
ATOM     10  C   UNL     1      -2.460   0.450  24.379  0.00  0.00    +0.091 C 
BRANCH  10   8
ATOM      1  C   UNL     1      -3.927  -3.035  24.386  0.00  0.00    +0.000 C 
ATOM      2  C   UNL     1      -3.589  -2.298  24.538  0.00  0.00    +0.003 C 
ATOM      3  C   UNL     1      -3.473  -1.762  23.922  0.00  0.00    +0.022 C 
ATOM      4  C   UNL     1      -3.135  -1.025  24.075  0.00  0.00    +0.093 C 
ATOM      5  N   UNL     1      -2.913  -0.824  24.843  0.00  0.00    -0.280 N 
ATOM      6  C   UNL     1      -3.029  -1.359  25.459  0.00  0.00    +0.093 C 
ATOM      7  C   UNL     1      -3.367  -2.096  25.307  0.00  0.00    +0.022 C 
ATOM      8  C   UNL     1      -2.576  -0.087  24.995  0.00  0.00    +0.226 C 
ATOM      9  O   UNL     1      -2.354   0.115  25.763  0.00  0.00    -0.275 OA
ENDBRANCH  10   8
ENDBRANCH  11  10
TORSDOF 4
ENDMDL
MODEL 6
REMARK VINA RESULT:     -11.9      1.880      2.610
REMARK  Name = 
REMARK  4 active torsions:
REMARK  status: ('A' for Active; 'I' for Inactive)
REMARK    1  A    between atoms: C_8  and  C_10
REMARK    2  A    between atoms: C_10  and  C_11
REMARK    3  A    between atoms: C_16  and  C_18
REMARK    4  A    between atoms: C_27  and  C_29
REMARK                            x       y       z     vdW  Elec       q    Type
REMARK                         _______ _______ _______ _____ _____    ______ ____
ROOT
ATOM     11  C   UNL     1      -3.270   1.959  24.678  0.00  0.00    +0.050 C 
ATOM     12  C   UNL     1      -2.954   2.708  24.824  0.00  0.00    +0.062 A 
ATOM     13  C   UNL     1      -3.432   3.305  25.130  0.00  0.00    +0.022 A 
ATOM     14  C   UNL     1      -4.227   3.155  25.292  0.00  0.00    +0.034 C 
ATOM     15  C   UNL     1      -4.544   2.407  25.147  0.00  0.00    +0.010 C 
ATOM     16  C   UNL     1      -5.338   2.257  25.308  0.00  0.00    +0.059 C 
ATOM     17  C   UNL     1      -5.293   3.048  25.537  0.00  0.00    +0.005 C 
ATOM     20  C   UNL     1      -5.655   1.509  25.163  0.00  0.00    +0.154 C 
ATOM     21  O   UNL     1      -6.450   1.358  25.325  0.00  0.00    -0.223 OA
ATOM     22  C   UNL     1      -5.176   0.911  24.857  0.00  0.00    +0.033 C 
ATOM     23  C   UNL     1      -4.381   1.061  24.695  0.00  0.00    +0.003 C 
ATOM     24  C   UNL     1      -4.065   1.809  24.840  0.00  0.00    +0.006 C 
ATOM     25  C   UNL     1      -3.586   1.211  24.533  0.00  0.00    +0.000 C 
ATOM     26  S   UNL     1      -2.970   3.984  25.216  0.00  0.00    -0.071 S 
ATOM     27  C   UNL     1      -2.206   3.804  24.962  0.00  0.00    +0.111 A 
ATOM     28  N   UNL     1      -2.195   3.016  24.720  0.00  0.00    -0.243 NA
ENDROOT
BRANCH  27  29
ATOM     29  C   UNL     1      -1.565   4.323  24.953  0.00  0.00    +0.031 A 
ATOM     30  C   UNL     1      -0.774   4.114  24.844  0.00  0.00    +0.037 A 
ATOM     31  S   UNL     1      -0.321   4.803  24.874  0.00  0.00    -0.086 S 
ATOM     32  C   UNL     1      -0.832   5.438  25.002  0.00  0.00    +0.036 A 
ATOM     33  C   UNL     1      -1.601   5.141  25.051  0.00  0.00    +0.010 A 
ENDBRANCH  27  29
BRANCH  16  18
ATOM     18  C   UNL     1      -6.118   2.381  25.550  0.00  0.00    +0.184 C 
ATOM     19  O   UNL     1      -6.299   3.006  26.056  0.00  0.00    -0.220 OA
ENDBRANCH  16  18
BRANCH  11  10
ATOM     10  C   UNL     1      -2.792   1.362  24.372  0.00  0.00    +0.091 C 
BRANCH  10   8
ATOM      1  C   UNL     1       0.438  -0.418  23.536  0.00  0.00    +0.000 C 
ATOM      2  C   UNL     1      -0.232  -0.067  23.866  0.00  0.00    +0.003 C 
ATOM      3  C   UNL     1      -0.782   0.311  23.381  0.00  0.00    +0.022 C 
ATOM      4  C   UNL     1      -1.452   0.661  23.712  0.00  0.00    +0.093 C 
ATOM      5  N   UNL     1      -1.573   0.633  24.527  0.00  0.00    -0.280 N 
ATOM      6  C   UNL     1      -1.024   0.255  25.012  0.00  0.00    +0.093 C 
ATOM      7  C   UNL     1      -0.354  -0.095  24.681  0.00  0.00    +0.022 C 
ATOM      8  C   UNL     1      -2.243   0.983  24.857  0.00  0.00    +0.226 C 
ATOM      9  O   UNL     1      -2.364   0.955  25.672  0.00  0.00    -0.275 OA
ENDBRANCH  10   8
ENDBRANCH  11  10
TORSDOF 4
ENDMDL
MODEL 7
REMARK VINA RESULT:     -11.9      2.426      4.459
REMARK  Name = 
REMARK  4 active torsions:
REMARK  status: ('A' for Active; 'I' for Inactive)
REMARK    1  A    between atoms: C_8  and  C_10
REMARK    2  A    between atoms: C_10  and  C_11
REMARK    3  A    between atoms: C_16  and  C_18
REMARK    4  A    between atoms: C_27  and  C_29
REMARK                            x       y       z     vdW  Elec       q    Type
REMARK                         _______ _______ _______ _____ _____    ______ ____
ROOT
ATOM     11  C   UNL     1      -1.701   0.356  24.573  0.00  0.00    +0.050 C 
ATOM     12  C   UNL     1      -0.998   0.095  24.228  0.00  0.00    +0.062 A 
ATOM     13  C   UNL     1      -0.859  -0.713  24.135  0.00  0.00    +0.022 A 
ATOM     14  C   UNL     1      -1.424  -1.259  24.386  0.00  0.00    +0.034 C 
ATOM     15  C   UNL     1      -2.126  -0.999  24.730  0.00  0.00    +0.010 C 
ATOM     16  C   UNL     1      -2.690  -1.546  24.981  0.00  0.00    +0.059 C 
ATOM     17  C   UNL     1      -2.114  -2.058  24.689  0.00  0.00    +0.005 C 
ATOM     20  C   UNL     1      -3.393  -1.285  25.326  0.00  0.00    +0.154 C 
ATOM     21  O   UNL     1      -3.958  -1.832  25.577  0.00  0.00    -0.223 OA
ATOM     22  C   UNL     1      -3.532  -0.478  25.419  0.00  0.00    +0.033 C 
ATOM     23  C   UNL     1      -2.968   0.070  25.168  0.00  0.00    +0.003 C 
ATOM     24  C   UNL     1      -2.265  -0.191  24.823  0.00  0.00    +0.006 C 
ATOM     25  C   UNL     1      -2.404   0.617  24.917  0.00  0.00    +0.000 C 
ATOM     26  S   UNL     1      -0.120  -0.805  23.779  0.00  0.00    -0.071 S 
ATOM     27  C   UNL     1       0.197  -0.055  23.652  0.00  0.00    +0.111 A 
ATOM     28  N   UNL     1      -0.345   0.502  23.930  0.00  0.00    -0.243 NA
ENDROOT
BRANCH  27  29
ATOM     29  C   UNL     1       0.928   0.111  23.309  0.00  0.00    +0.031 A 
ATOM     30  C   UNL     1       1.265  -0.289  22.669  0.00  0.00    +0.037 A 
ATOM     31  S   UNL     1       1.997   0.058  22.509  0.00  0.00    -0.086 S 
ATOM     32  C   UNL     1       2.112   0.671  23.049  0.00  0.00    +0.036 A 
ATOM     33  C   UNL     1       1.451   0.704  23.543  0.00  0.00    +0.010 A 
ENDBRANCH  27  29
BRANCH  16  18
ATOM     18  C   UNL     1      -3.055  -2.271  25.131  0.00  0.00    +0.184 C 
ATOM     19  O   UNL     1      -2.810  -2.947  24.727  0.00  0.00    -0.220 OA
ENDBRANCH  16  18
BRANCH  11  10
ATOM     10  C   UNL     1      -1.840   1.163  24.666  0.00  0.00    +0.091 C 
BRANCH  10   8
ATOM      1  C   UNL     1      -1.334   4.885  25.105  0.00  0.00    +0.000 C 
ATOM      2  C   UNL     1      -1.359   4.061  25.139  0.00  0.00    +0.003 C 
ATOM      3  C   UNL     1      -1.768   3.635  24.563  0.00  0.00    +0.022 C 
ATOM      4  C   UNL     1      -1.792   2.811  24.597  0.00  0.00    +0.093 C 
ATOM      5  N   UNL     1      -1.407   2.413  25.208  0.00  0.00    -0.280 N 
ATOM      6  C   UNL     1      -0.997   2.837  25.784  0.00  0.00    +0.093 C 
ATOM      7  C   UNL     1      -0.973   3.661  25.749  0.00  0.00    +0.022 C 
ATOM      8  C   UNL     1      -1.431   1.589  25.242  0.00  0.00    +0.226 C 
ATOM      9  O   UNL     1      -1.046   1.189  25.852  0.00  0.00    -0.275 OA
ENDBRANCH  10   8
ENDBRANCH  11  10
TORSDOF 4
ENDMDL
MODEL 8
REMARK VINA RESULT:     -11.6      1.930      4.260
REMARK  Name = 
REMARK  4 active torsions:
REMARK  status: ('A' for Active; 'I' for Inactive)
REMARK    1  A    between atoms: C_8  and  C_10
REMARK    2  A    between atoms: C_10  and  C_11
REMARK    3  A    between atoms: C_16  and  C_18
REMARK    4  A    between atoms: C_27  and  C_29
REMARK                            x       y       z     vdW  Elec       q    Type
REMARK                         _______ _______ _______ _____ _____    ______ ____
ROOT
ATOM     11  C   UNL     1      -2.278   1.396  24.867  0.00  0.00    +0.050 C 
ATOM     12  C   UNL     1      -2.264   0.573  24.811  0.00  0.00    +0.062 A 
ATOM     13  C   UNL     1      -1.565   0.186  24.604  0.00  0.00    +0.022 A 
ATOM     14  C   UNL     1      -0.882   0.622  24.452  0.00  0.00    +0.034 C 
ATOM     15  C   UNL     1      -0.896   1.445  24.507  0.00  0.00    +0.010 C 
ATOM     16  C   UNL     1      -0.213   1.880  24.356  0.00  0.00    +0.059 C 
ATOM     17  C   UNL     1       0.074   1.117  24.233  0.00  0.00    +0.005 C 
ATOM     20  C   UNL     1      -0.227   2.703  24.411  0.00  0.00    +0.154 C 
ATOM     21  O   UNL     1       0.457   3.140  24.260  0.00  0.00    -0.223 OA
ATOM     22  C   UNL     1      -0.925   3.091  24.619  0.00  0.00    +0.033 C 
ATOM     23  C   UNL     1      -1.610   2.654  24.771  0.00  0.00    +0.003 C 
ATOM     24  C   UNL     1      -1.594   1.832  24.715  0.00  0.00    +0.006 C 
ATOM     25  C   UNL     1      -2.293   2.219  24.922  0.00  0.00    +0.000 C 
ATOM     26  S   UNL     1      -1.717  -0.626  24.592  0.00  0.00    -0.071 S 
ATOM     27  C   UNL     1      -2.508  -0.739  24.792  0.00  0.00    +0.111 A 
ATOM     28  N   UNL     1      -2.847   0.001  24.928  0.00  0.00    -0.243 NA
ENDROOT
BRANCH  27  29
ATOM     29  C   UNL     1      -2.895  -1.466  24.848  0.00  0.00    +0.031 A 
ATOM     30  C   UNL     1      -3.117  -1.947  24.215  0.00  0.00    +0.037 A 
ATOM     31  S   UNL     1      -3.486  -2.618  24.522  0.00  0.00    -0.086 S 
ATOM     32  C   UNL     1      -3.493  -2.552  25.344  0.00  0.00    +0.036 A 
ATOM     33  C   UNL     1      -3.127  -1.840  25.545  0.00  0.00    +0.010 A 
ENDBRANCH  27  29
BRANCH  16  18
ATOM     18  C   UNL     1       0.571   2.051  24.161  0.00  0.00    +0.184 C 
ATOM     19  O   UNL     1       1.060   1.461  23.858  0.00  0.00    -0.220 OA
ENDBRANCH  16  18
BRANCH  11  10
ATOM     10  C   UNL     1      -2.976   1.783  25.074  0.00  0.00    +0.091 C 
BRANCH  10   8
ATOM      1  C   UNL     1      -6.671   2.329  25.658  0.00  0.00    +0.000 C 
ATOM      2  C   UNL     1      -5.906   2.198  25.380  0.00  0.00    +0.003 C 
ATOM      3  C   UNL     1      -5.273   2.177  25.908  0.00  0.00    +0.022 C 
ATOM      4  C   UNL     1      -4.507   2.046  25.630  0.00  0.00    +0.093 C 
ATOM      5  N   UNL     1      -4.375   1.935  24.824  0.00  0.00    -0.280 N 
ATOM      6  C   UNL     1      -5.007   1.955  24.296  0.00  0.00    +0.093 C 
ATOM      7  C   UNL     1      -5.773   2.086  24.574  0.00  0.00    +0.022 C 
ATOM      8  C   UNL     1      -3.609   1.803  24.546  0.00  0.00    +0.226 C 
ATOM      9  O   UNL     1      -3.476   1.692  23.739  0.00  0.00    -0.275 OA
ENDBRANCH  10   8
ENDBRANCH  11  10
TORSDOF 4
ENDMDL
