MODEL 1
REMARK VINA RESULT:     -11.8      0.000      0.000
REMARK  Name = 
REMARK  5 active torsions:
REMARK  status: ('A' for Active; 'I' for Inactive)
REMARK    1  A    between atoms: N_2  and  C_4
REMARK    2  A    between atoms: C_7  and  C_10
REMARK    3  A    between atoms: C_13  and  C_15
REMARK    4  A    between atoms: N_19  and  C_20
REMARK    5  A    between atoms: C_20  and  C_21
REMARK                            x       y       z     vdW  Elec       q    Type
REMARK                         _______ _______ _______ _____ _____    ______ ____
ROOT
ATOM     10  C   UNL     1      -3.961   0.530  24.858  0.00  0.00    +0.205 A 
ATOM     11  N   UNL     1      -4.465   0.826  25.441  0.00  0.00    -0.056 NA
ATOM     12  O   UNL     1      -4.560   1.635  25.309  0.00  0.00    -0.336 OA
ATOM     13  C   UNL     1      -4.116   1.839  24.645  0.00  0.00    +0.251 A 
ATOM     14  N   UNL     1      -3.745   1.156  24.366  0.00  0.00    -0.190 NA
ENDROOT
BRANCH  10   7
ATOM      4  C   UNL     1      -3.227  -1.823  24.627  0.00  0.00    +0.132 A 
ATOM      5  C   UNL     1      -3.842  -1.534  24.159  0.00  0.00    +0.034 A 
ATOM      6  C   UNL     1      -4.087  -0.750  24.236  0.00  0.00    +0.008 A 
ATOM      7  C   UNL     1      -3.716  -0.254  24.781  0.00  0.00    +0.058 A 
ATOM      8  C   UNL     1      -3.101  -0.542  25.250  0.00  0.00    +0.103 A 
ATOM      9  N   UNL     1      -2.856  -1.326  25.173  0.00  0.00    -0.229 NA
BRANCH   4   2
ATOM      1  C   UNL     1      -2.183  -2.780  24.439  0.00  0.00    +0.114 C 
ATOM      2  N   UNL     1      -2.982  -2.607  24.550  0.00  0.00    -0.290 N 
ATOM      3  C   UNL     1      -3.536  -3.216  24.584  0.00  0.00    +0.114 C 
ENDBRANCH   4   2
ENDBRANCH  10   7
BRANCH  13  15
ATOM     15  C   UNL     1      -4.052   2.592  24.316  0.00  0.00    +0.138 C 
ATOM     16  C   UNL     1      -4.541   2.909  23.731  0.00  0.00    +0.027 C 
ATOM     17  C   UNL     1      -4.280   3.675  23.568  0.00  0.00    +0.019 C 
ATOM     18  C   UNL     1      -3.630   3.831  24.052  0.00  0.00    +0.073 C 
ATOM     19  N   UNL     1      -3.489   3.162  24.515  0.00  0.00    -0.263 NA
BRANCH  19  20
ATOM     20  C   UNL     1      -2.891   3.078  25.076  0.00  0.00    +0.100 C 
BRANCH  20  21
ATOM     21  C   UNL     1      -2.231   3.572  25.053  0.00  0.00    -0.004 A 
ATOM     22  C   UNL     1      -2.281   4.342  25.344  0.00  0.00    +0.029 A 
ATOM     23  C   UNL     1      -1.620   4.836  25.321  0.00  0.00    +0.167 A 
ATOM     24  F   UNL     1      -1.670   5.606  25.613  0.00  0.00    -0.202 F 
ATOM     25  C   UNL     1      -0.909   4.559  25.006  0.00  0.00    +0.167 A 
ATOM     26  F   UNL     1      -0.249   5.053  24.983  0.00  0.00    -0.202 F 
ATOM     27  C   UNL     1      -0.860   3.789  24.714  0.00  0.00    +0.032 A 
ATOM     28  C   UNL     1      -1.520   3.295  24.738  0.00  0.00    -0.000 A 
ENDBRANCH  20  21
ENDBRANCH  19  20
ENDBRANCH  13  15
TORSDOF 5
ENDMDL
MODEL 2
REMARK VINA RESULT:     -11.1      3.032      5.934
REMARK  Name = 
REMARK  5 active torsions:
REMARK  status: ('A' for Active; 'I' for Inactive)
REMARK    1  A    between atoms: N_2  and  C_4
REMARK    2  A    between atoms: C_7  and  C_10
REMARK    3  A    between atoms: C_13  and  C_15
REMARK    4  A    between atoms: N_19  and  C_20
REMARK    5  A    between atoms: C_20  and  C_21
REMARK                            x       y       z     vdW  Elec       q    Type
REMARK                         _______ _______ _______ _____ _____    ______ ____
ROOT
ATOM     10  C   UNL     1      -1.036   1.629  25.460  0.00  0.00    +0.205 A 
ATOM     11  N   UNL     1      -0.925   1.227  26.172  0.00  0.00    -0.056 NA
ATOM     12  O   UNL     1      -0.862   0.422  26.003  0.00  0.00    -0.336 OA
ATOM     13  C   UNL     1      -0.933   0.327  25.186  0.00  0.00    +0.251 A 
ATOM     14  N   UNL     1      -1.041   1.073  24.851  0.00  0.00    -0.190 NA
ENDROOT
BRANCH  10   7
ATOM      4  C   UNL     1      -1.306   4.076  25.199  0.00  0.00    +0.132 A 
ATOM      5  C   UNL     1      -1.970   3.594  25.282  0.00  0.00    +0.034 A 
ATOM      6  C   UNL     1      -1.880   2.778  25.369  0.00  0.00    +0.008 A 
ATOM      7  C   UNL     1      -1.126   2.445  25.373  0.00  0.00    +0.058 A 
ATOM      8  C   UNL     1      -0.461   2.926  25.290  0.00  0.00    +0.103 A 
ATOM      9  N   UNL     1      -0.550   3.742  25.202  0.00  0.00    -0.229 NA
BRANCH   4   2
ATOM      1  C   UNL     1      -2.095   5.257  25.353  0.00  0.00    +0.114 C 
ATOM      2  N   UNL     1      -1.395   4.891  25.112  0.00  0.00    -0.290 N 
ATOM      3  C   UNL     1      -0.787   5.340  24.784  0.00  0.00    +0.114 C 
ENDBRANCH   4   2
ENDBRANCH  10   7
BRANCH  13  15
ATOM     15  C   UNL     1      -0.902  -0.388  24.777  0.00  0.00    +0.138 C 
ATOM     16  C   UNL     1      -0.248  -0.688  24.373  0.00  0.00    +0.027 C 
ATOM     17  C   UNL     1      -0.461  -1.415  24.046  0.00  0.00    +0.019 C 
ATOM     18  C   UNL     1      -1.247  -1.564  24.247  0.00  0.00    +0.073 C 
ATOM     19  N   UNL     1      -1.520  -0.930  24.699  0.00  0.00    -0.263 NA
BRANCH  19  20
ATOM     20  C   UNL     1      -2.277  -0.851  25.016  0.00  0.00    +0.100 C 
BRANCH  20  21
ATOM     21  C   UNL     1      -2.902  -1.291  24.708  0.00  0.00    -0.004 A 
ATOM     22  C   UNL     1      -3.017  -2.071  24.950  0.00  0.00    +0.029 A 
ATOM     23  C   UNL     1      -3.642  -2.512  24.641  0.00  0.00    +0.167 A 
ATOM     24  F   UNL     1      -3.757  -3.293  24.884  0.00  0.00    -0.202 F 
ATOM     25  C   UNL     1      -4.153  -2.172  24.089  0.00  0.00    +0.167 A 
ATOM     26  F   UNL     1      -4.778  -2.613  23.780  0.00  0.00    -0.202 F 
ATOM     27  C   UNL     1      -4.038  -1.392  23.847  0.00  0.00    +0.032 A 
ATOM     28  C   UNL     1      -3.413  -0.952  24.156  0.00  0.00    -0.000 A 
ENDBRANCH  20  21
ENDBRANCH  19  20
ENDBRANCH  13  15
TORSDOF 5
ENDMDL
MODEL 3
REMARK VINA RESULT:     -11.0      1.823      2.615
REMARK  Name = 
REMARK  5 active torsions:
REMARK  status: ('A' for Active; 'I' for Inactive)
REMARK    1  A    between atoms: N_2  and  C_4
REMARK    2  A    between atoms: C_7  and  C_10
REMARK    3  A    between atoms: C_13  and  C_15
REMARK    4  A    between atoms: N_19  and  C_20
REMARK    5  A    between atoms: C_20  and  C_21
REMARK                            x       y       z     vdW  Elec       q    Type
REMARK                         _______ _______ _______ _____ _____    ______ ____
ROOT
ATOM     10  C   UNL     1      -1.499   0.096  24.670  0.00  0.00    +0.205 A 
ATOM     11  N   UNL     1      -0.957   0.336  24.096  0.00  0.00    -0.056 NA
ATOM     12  O   UNL     1      -0.524   0.969  24.402  0.00  0.00    -0.336 OA
ATOM     13  C   UNL     1      -0.799   1.120  25.165  0.00  0.00    +0.251 A 
ATOM     14  N   UNL     1      -1.402   0.581  25.330  0.00  0.00    -0.190 NA
ENDROOT
BRANCH  10   7
ATOM      4  C   UNL     1      -3.130  -1.752  24.448  0.00  0.00    +0.132 A 
ATOM      5  C   UNL     1      -3.387  -0.969  24.423  0.00  0.00    +0.034 A 
ATOM      6  C   UNL     1      -2.844  -0.353  24.497  0.00  0.00    +0.008 A 
ATOM      7  C   UNL     1      -2.043  -0.520  24.596  0.00  0.00    +0.058 A 
ATOM      8  C   UNL     1      -1.784  -1.303  24.622  0.00  0.00    +0.103 A 
ATOM      9  N   UNL     1      -2.327  -1.919  24.548  0.00  0.00    -0.229 NA
BRANCH   4   2
ATOM      1  C   UNL     1      -4.305  -2.299  23.848  0.00  0.00    +0.114 C 
ATOM      2  N   UNL     1      -3.673  -2.368  24.374  0.00  0.00    -0.290 N 
ATOM      3  C   UNL     1      -3.585  -3.052  24.826  0.00  0.00    +0.114 C 
ENDBRANCH   4   2
ENDBRANCH  10   7
BRANCH  13  15
ATOM     15  C   UNL     1      -0.521   1.707  25.673  0.00  0.00    +0.138 C 
ATOM     16  C   UNL     1      -0.018   1.593  26.317  0.00  0.00    +0.027 C 
ATOM     17  C   UNL     1       0.117   2.326  26.669  0.00  0.00    +0.019 C 
ATOM     18  C   UNL     1      -0.303   2.895  26.243  0.00  0.00    +0.073 C 
ATOM     19  N   UNL     1      -0.698   2.512  25.628  0.00  0.00    -0.263 NA
BRANCH  19  20
ATOM     20  C   UNL     1      -1.183   2.871  25.066  0.00  0.00    +0.100 C 
BRANCH  20  21
ATOM     21  C   UNL     1      -1.329   3.682  25.104  0.00  0.00    -0.004 A 
ATOM     22  C   UNL     1      -0.779   4.215  24.798  0.00  0.00    +0.029 A 
ATOM     23  C   UNL     1      -0.924   5.026  24.836  0.00  0.00    +0.167 A 
ATOM     24  F   UNL     1      -0.373   5.559  24.530  0.00  0.00    -0.202 F 
ATOM     25  C   UNL     1      -1.621   5.304  25.181  0.00  0.00    +0.167 A 
ATOM     26  F   UNL     1      -1.766   6.116  25.219  0.00  0.00    -0.202 F 
ATOM     27  C   UNL     1      -2.171   4.771  25.486  0.00  0.00    +0.032 A 
ATOM     28  C   UNL     1      -2.025   3.960  25.448  0.00  0.00    -0.000 A 
ENDBRANCH  20  21
ENDBRANCH  19  20
ENDBRANCH  13  15
TORSDOF 5
ENDMDL
MODEL 4
REMARK VINA RESULT:     -10.3      2.601      5.389
REMARK  Name = 
REMARK  5 active torsions:
REMARK  status: ('A' for Active; 'I' for Inactive)
REMARK    1  A    between atoms: N_2  and  C_4
REMARK    2  A    between atoms: C_7  and  C_10
REMARK    3  A    between atoms: C_13  and  C_15
REMARK    4  A    between atoms: N_19  and  C_20
REMARK    5  A    between atoms: C_20  and  C_21
REMARK                            x       y       z     vdW  Elec       q    Type
REMARK                         _______ _______ _______ _____ _____    ______ ____
ROOT
ATOM     10  C   UNL     1      -3.351   2.913  24.390  0.00  0.00    +0.205 A 
ATOM     11  N   UNL     1      -3.817   2.938  23.709  0.00  0.00    -0.056 NA
ATOM     12  O   UNL     1      -4.431   2.394  23.800  0.00  0.00    -0.336 OA
ATOM     13  C   UNL     1      -4.345   2.034  24.537  0.00  0.00    +0.251 A 
ATOM     14  N   UNL     1      -3.677   2.354  24.901  0.00  0.00    -0.190 NA
ENDROOT
BRANCH  10   7
ATOM      4  C   UNL     1      -1.330   4.276  24.820  0.00  0.00    +0.132 A 
ATOM      5  C   UNL     1      -2.059   4.508  25.130  0.00  0.00    +0.034 A 
ATOM      6  C   UNL     1      -2.732   4.054  24.986  0.00  0.00    +0.008 A 
ATOM      7  C   UNL     1      -2.677   3.367  24.533  0.00  0.00    +0.058 A 
ATOM      8  C   UNL     1      -1.949   3.134  24.223  0.00  0.00    +0.103 A 
ATOM      9  N   UNL     1      -1.276   3.588  24.366  0.00  0.00    -0.229 NA
BRANCH   4   2
ATOM      1  C   UNL     1      -0.690   5.551  24.888  0.00  0.00    +0.114 C 
ATOM      2  N   UNL     1      -0.657   4.730  24.963  0.00  0.00    -0.290 N 
ATOM      3  C   UNL     1       0.049   4.364  25.182  0.00  0.00    +0.114 C 
ENDBRANCH   4   2
ENDBRANCH  10   7
BRANCH  13  15
ATOM     15  C   UNL     1      -4.838   1.454  24.854  0.00  0.00    +0.138 C 
ATOM     16  C   UNL     1      -5.569   1.584  25.215  0.00  0.00    +0.027 C 
ATOM     17  C   UNL     1      -5.871   0.854  25.451  0.00  0.00    +0.019 C 
ATOM     18  C   UNL     1      -5.327   0.271  25.235  0.00  0.00    +0.073 C 
ATOM     19  N   UNL     1      -4.689   0.643  24.866  0.00  0.00    -0.263 NA
BRANCH  19  20
ATOM     20  C   UNL     1      -4.019   0.268  24.563  0.00  0.00    +0.100 C 
BRANCH  20  21
ATOM     21  C   UNL     1      -3.939  -0.549  24.630  0.00  0.00    -0.004 A 
ATOM     22  C   UNL     1      -4.210  -1.041  24.026  0.00  0.00    +0.029 A 
ATOM     23  C   UNL     1      -4.129  -1.860  24.092  0.00  0.00    +0.167 A 
ATOM     24  F   UNL     1      -4.400  -2.352  23.487  0.00  0.00    -0.202 F 
ATOM     25  C   UNL     1      -3.776  -2.186  24.763  0.00  0.00    +0.167 A 
ATOM     26  F   UNL     1      -3.695  -3.005  24.829  0.00  0.00    -0.202 F 
ATOM     27  C   UNL     1      -3.505  -1.694  25.367  0.00  0.00    +0.032 A 
ATOM     28  C   UNL     1      -3.586  -0.876  25.301  0.00  0.00    -0.000 A 
ENDBRANCH  20  21
ENDBRANCH  19  20
ENDBRANCH  13  15
TORSDOF 5
ENDMDL
MODEL 5
REMARK VINA RESULT:      -9.9      1.852      2.693
REMARK  Name = 
REMARK  5 active torsions:
REMARK  status: ('A' for Active; 'I' for Inactive)
REMARK    1  A    between atoms: N_2  and  C_4
REMARK    2  A    between atoms: C_7  and  C_10
REMARK    3  A    between atoms: C_13  and  C_15
REMARK    4  A    between atoms: N_19  and  C_20
REMARK    5  A    between atoms: C_20  and  C_21
REMARK                            x       y       z     vdW  Elec       q    Type
REMARK                         _______ _______ _______ _____ _____    ______ ____
ROOT
ATOM     10  C   UNL     1      -2.242   0.379  24.455  0.00  0.00    +0.205 A 
ATOM     11  N   UNL     1      -1.703   0.668  23.900  0.00  0.00    -0.056 NA
ATOM     12  O   UNL     1      -1.548   1.458  24.083  0.00  0.00    -0.336 OA
ATOM     13  C   UNL     1      -1.991   1.657  24.750  0.00  0.00    +0.251 A 
ATOM     14  N   UNL     1      -2.420   0.990  24.980  0.00  0.00    -0.190 NA
ENDROOT
BRANCH  10   7
ATOM      4  C   UNL     1      -3.163  -1.917  24.529  0.00  0.00    +0.132 A 
ATOM      5  C   UNL     1      -3.649  -1.283  24.324  0.00  0.00    +0.034 A 
ATOM      6  C   UNL     1      -3.342  -0.518  24.299  0.00  0.00    +0.008 A 
ATOM      7  C   UNL     1      -2.549  -0.386  24.480  0.00  0.00    +0.058 A 
ATOM      8  C   UNL     1      -2.061  -1.019  24.685  0.00  0.00    +0.103 A 
ATOM      9  N   UNL     1      -2.368  -1.784  24.710  0.00  0.00    -0.229 NA
BRANCH   4   2
ATOM      1  C   UNL     1      -3.257  -3.192  25.167  0.00  0.00    +0.114 C 
ATOM      2  N   UNL     1      -3.470  -2.682  24.554  0.00  0.00    -0.290 N 
ATOM      3  C   UNL     1      -3.988  -2.937  23.966  0.00  0.00    +0.114 C 
ENDBRANCH   4   2
ENDBRANCH  10   7
BRANCH  13  15
ATOM     15  C   UNL     1      -2.003   2.393  25.122  0.00  0.00    +0.138 C 
ATOM     16  C   UNL     1      -1.405   2.705  25.598  0.00  0.00    +0.027 C 
ATOM     17  C   UNL     1      -1.647   3.451  25.855  0.00  0.00    +0.019 C 
ATOM     18  C   UNL     1      -2.394   3.600  25.537  0.00  0.00    +0.073 C 
ATOM     19  N   UNL     1      -2.614   2.946  25.084  0.00  0.00    -0.263 NA
BRANCH  19  20
ATOM     20  C   UNL     1      -3.320   2.860  24.668  0.00  0.00    +0.100 C 
BRANCH  20  21
ATOM     21  C   UNL     1      -4.004   3.238  24.932  0.00  0.00    -0.004 A 
ATOM     22  C   UNL     1      -4.517   2.851  25.448  0.00  0.00    +0.029 A 
ATOM     23  C   UNL     1      -5.201   3.229  25.712  0.00  0.00    +0.167 A 
ATOM     24  F   UNL     1      -5.714   2.841  26.229  0.00  0.00    -0.202 F 
ATOM     25  C   UNL     1      -5.372   3.996  25.459  0.00  0.00    +0.167 A 
ATOM     26  F   UNL     1      -6.056   4.374  25.724  0.00  0.00    -0.202 F 
ATOM     27  C   UNL     1      -4.859   4.383  24.943  0.00  0.00    +0.032 A 
ATOM     28  C   UNL     1      -4.175   4.005  24.679  0.00  0.00    -0.000 A 
ENDBRANCH  20  21
ENDBRANCH  19  20
ENDBRANCH  13  15
TORSDOF 5
ENDMDL
MODEL 6
REMARK VINA RESULT:      -9.8      2.844      3.879
REMARK  Name = 
REMARK  5 active torsions:
REMARK  status: ('A' for Active; 'I' for Inactive)
REMARK    1  A    between atoms: N_2  and  C_4
REMARK    2  A    between atoms: C_7  and  C_10
REMARK    3  A    between atoms: C_13  and  C_15
REMARK    4  A    between atoms: N_19  and  C_20
REMARK    5  A    between atoms: C_20  and  C_21
REMARK                            x       y       z     vdW  Elec       q    Type
REMARK                         _______ _______ _______ _____ _____    ______ ____
ROOT
ATOM     10  C   UNL     1      -1.109   0.106  24.492  0.00  0.00    +0.205 A 
ATOM     11  N   UNL     1      -1.170   0.049  25.313  0.00  0.00    -0.056 NA
ATOM     12  O   UNL     1      -1.971   0.075  25.512  0.00  0.00    -0.336 OA
ATOM     13  C   UNL     1      -2.405   0.147  24.813  0.00  0.00    +0.251 A 
ATOM     14  N   UNL     1      -1.872   0.166  24.183  0.00  0.00    -0.190 NA
ENDROOT
BRANCH  10   7
ATOM      4  C   UNL     1       0.992   0.095  23.185  0.00  0.00    +0.132 A 
ATOM      5  C   UNL     1       0.646   0.811  23.403  0.00  0.00    +0.034 A 
ATOM      6  C   UNL     1      -0.055   0.814  23.839  0.00  0.00    +0.008 A 
ATOM      7  C   UNL     1      -0.409   0.102  24.056  0.00  0.00    +0.058 A 
ATOM      8  C   UNL     1      -0.063  -0.615  23.838  0.00  0.00    +0.103 A 
ATOM      9  N   UNL     1       0.638  -0.618  23.402  0.00  0.00    -0.229 NA
BRANCH   4   2
ATOM      1  C   UNL     1       2.369   0.456  23.053  0.00  0.00    +0.114 C 
ATOM      2  N   UNL     1       1.693   0.092  22.749  0.00  0.00    -0.290 N 
ATOM      3  C   UNL     1       1.718  -0.275  22.012  0.00  0.00    +0.114 C 
ENDBRANCH   4   2
ENDBRANCH  10   7
BRANCH  13  15
ATOM     15  C   UNL     1      -3.226   0.192  24.755  0.00  0.00    +0.138 C 
ATOM     16  C   UNL     1      -3.738  -0.442  24.625  0.00  0.00    +0.027 C 
ATOM     17  C   UNL     1      -4.509  -0.147  24.606  0.00  0.00    +0.019 C 
ATOM     18  C   UNL     1      -4.473   0.669  24.724  0.00  0.00    +0.073 C 
ATOM     19  N   UNL     1      -3.680   0.878  24.816  0.00  0.00    -0.263 NA
BRANCH  19  20
ATOM     20  C   UNL     1      -3.392   1.640  24.947  0.00  0.00    +0.100 C 
BRANCH  20  21
ATOM     21  C   UNL     1      -3.914   2.276  24.993  0.00  0.00    -0.004 A 
ATOM     22  C   UNL     1      -4.351   2.403  25.681  0.00  0.00    +0.029 A 
ATOM     23  C   UNL     1      -4.874   3.040  25.728  0.00  0.00    +0.167 A 
ATOM     24  F   UNL     1      -5.311   3.165  26.416  0.00  0.00    -0.202 F 
ATOM     25  C   UNL     1      -4.959   3.550  25.085  0.00  0.00    +0.167 A 
ATOM     26  F   UNL     1      -5.482   4.187  25.132  0.00  0.00    -0.202 F 
ATOM     27  C   UNL     1      -4.522   3.424  24.397  0.00  0.00    +0.032 A 
ATOM     28  C   UNL     1      -4.000   2.788  24.351  0.00  0.00    -0.000 A 
ENDBRANCH  20  21
ENDBRANCH  19  20
ENDBRANCH  13  15
TORSDOF 5
ENDMDL
