REMARK  Name = 
REMARK  9 active torsions:
REMARK  status: ('A' for Active; 'I' for Inactive)
REMARK    1  A    between atoms: O_2  and  C_3
REMARK    2  A    between atoms: C_5  and  O_6
REMARK    3  A    between atoms: C_9  and  N_10
REMARK    4  A    between atoms: C_11  and  O_13
REMARK    5  A    between atoms: O_13  and  C_14
REMARK    6  A    between atoms: C_19  and  C_20
REMARK    7  A    between atoms: C_20  and  C_21
REMARK    8  A    between atoms: C_27  and  C_28
REMARK    9  A    between atoms: C_35  and  C_37
REMARK                            x       y       z     vdW  Elec       q    Type
REMARK                         _______ _______ _______ _____ _____    ______ ____
ROOT
ATOM     14  C   UNL     1       0.715  -1.238   0.000  0.00  0.00    +0.173 C 
ATOM     15  C   UNL     1       0.715  -0.412   0.000  0.00  0.00    +0.044 C 
ATOM     16  C   UNL     1       1.429   0.000   0.000  0.00  0.00    +0.004 C 
ATOM     17  C   UNL     1       2.143  -0.412   0.000  0.00  0.00    +0.003 C 
ATOM     18  C   UNL     1       2.143   0.412   0.000  0.00  0.00    +0.000 C 
ATOM     19  C   UNL     1       2.858   0.000   0.000  0.00  0.00    +0.040 C 
ATOM     30  C   UNL     1       3.572  -0.412   0.000  0.00  0.00    +0.152 C 
ATOM     31  O   UNL     1       4.287   0.000   0.000  0.00  0.00    -0.223 OA
ATOM     32  C   UNL     1       3.572  -1.238   0.000  0.00  0.00    +0.033 C 
ATOM     33  C   UNL     1       2.858  -1.650   0.000  0.00  0.00    +0.003 C 
ATOM     34  C   UNL     1       2.143  -1.238   0.000  0.00  0.00    +0.006 C 
ATOM     35  C   UNL     1       1.429  -1.650   0.000  0.00  0.00    +0.068 C 
ATOM     36  C   UNL     1       1.816  -2.378   0.000  0.00  0.00    +0.006 C 
ENDROOT
BRANCH  35  37
ATOM     37  C   UNL     1       1.042  -2.378   0.000  0.00  0.00    +0.185 C 
ATOM     38  O   UNL     1       0.217  -2.407   0.000  0.00  0.00    -0.220 OA
ENDBRANCH  35  37
BRANCH  14  13
ATOM     13  O   UNL     1       0.000  -1.650   0.000  0.00  0.00    -0.437 OA
BRANCH  13  11
ATOM     10  N   UNL     1      -0.715  -0.412   0.000  0.00  0.00    -0.142 NA
ATOM     11  C   UNL     1      -0.715  -1.238   0.000  0.00  0.00    +0.425 C 
ATOM     12  O   UNL     1      -1.429  -1.650   0.000  0.00  0.00    -0.224 OA
BRANCH  10   9
ATOM      3  C   UNL     1      -2.858   0.000   0.000  0.00  0.00    +0.143 A 
ATOM      4  C   UNL     1      -2.858   0.825   0.000  0.00  0.00    +0.074 A 
ATOM      5  C   UNL     1      -2.143   1.238   0.000  0.00  0.00    +0.143 A 
ATOM      8  C   UNL     1      -1.429   0.825   0.000  0.00  0.00    +0.054 A 
ATOM      9  C   UNL     1      -1.429   0.000   0.000  0.00  0.00    +0.083 A 
ATOM     39  C   UNL     1      -2.143  -0.412   0.000  0.00  0.00    +0.054 A 
BRANCH   3   2
ATOM      1  C   UNL     1      -4.287   0.000   0.000  0.00  0.00    +0.252 C 
ATOM      2  O   UNL     1      -3.572  -0.412   0.000  0.00  0.00    -0.471 OA
ENDBRANCH   3   2
BRANCH   5   6
ATOM      6  O   UNL     1      -2.143   2.062   0.000  0.00  0.00    -0.471 OA
ATOM      7  C   UNL     1      -1.429   2.475   0.000  0.00  0.00    +0.252 C 
ENDBRANCH   5   6
ENDBRANCH  10   9
ENDBRANCH  13  11
ENDBRANCH  14  13
BRANCH  19  20
ATOM     20  C   UNL     1       2.858   0.825   0.000  0.00  0.00    +0.088 C 
BRANCH  20  21
ATOM     21  C   UNL     1       3.572   1.238   0.000  0.00  0.00    +0.226 C 
ATOM     22  O   UNL     1       4.287   0.825   0.000  0.00  0.00    -0.275 OA
ATOM     23  N   UNL     1       3.572   2.062   0.000  0.00  0.00    -0.279 N 
ATOM     24  C   UNL     1       2.905   2.547   0.000  0.00  0.00    +0.093 C 
ATOM     25  C   UNL     1       3.160   3.332   0.000  0.00  0.00    +0.023 C 
ATOM     26  C   UNL     1       3.985   3.332   0.000  0.00  0.00    +0.024 C 
ATOM     27  C   UNL     1       4.240   2.547   0.000  0.00  0.00    +0.108 C 
BRANCH  27  28
ATOM     28  C   UNL     1       5.024   2.292   0.000  0.00  0.00    +0.202 C 
ATOM     29  O   UNL     1       5.638   2.845   0.000  0.00  0.00    -0.219 OA
ENDBRANCH  27  28
ENDBRANCH  20  21
ENDBRANCH  19  20
TORSDOF 9
