MODEL 1
REMARK VINA RESULT:      -8.9      0.000      0.000
REMARK  Name = 
REMARK  6 active torsions:
REMARK  status: ('A' for Active; 'I' for Inactive)
REMARK    1  A    between atoms: C_3  and  C_4
REMARK    2  A    between atoms: C_4  and  N_5
REMARK    3  A    between atoms: C_6  and  C_8
REMARK    4  A    between atoms: C_13  and  N_14
REMARK    5  A    between atoms: N_14  and  C_15
REMARK    6  A    between atoms: C_15  and  C_16
REMARK                            x       y       z     vdW  Elec       q    Type
REMARK                         _______ _______ _______ _____ _____    ______ ____
ROOT
ATOM      1  O   UNL     1      -1.161   0.607  24.854  0.00  0.00    -0.219 OA
ATOM      2  C   UNL     1      -1.896   0.983  24.869  0.00  0.00    +0.199 C 
ATOM      3  C   UNL     1      -2.026   1.790  24.980  0.00  0.00    +0.169 C 
ATOM     11  O   UNL     1      -2.839   1.923  24.954  0.00  0.00    -0.350 OA
ATOM     12  C   UNL     1      -3.212   1.199  24.827  0.00  0.00    +0.162 C 
ATOM     13  C   UNL     1      -2.629   0.618  24.774  0.00  0.00    +0.135 C 
ENDROOT
BRANCH   3   4
ATOM      4  C   UNL     1      -1.444   2.363  25.097  0.00  0.00    +0.147 C 
BRANCH   4   5
ATOM      5  N   UNL     1      -1.638   3.164  25.051  0.00  0.00    -0.203 NA
ATOM      6  C   UNL     1      -1.060   3.737  25.182  0.00  0.00    +0.241 C 
ATOM      7  O   UNL     1      -0.286   3.510  25.359  0.00  0.00    -0.273 OA
BRANCH   6   8
ATOM      8  C   UNL     1      -1.254   4.538  25.135  0.00  0.00    +0.078 C 
ATOM      9  C   UNL     1      -1.792   5.150  25.262  0.00  0.00    +0.010 C 
ATOM     10  C   UNL     1      -1.054   5.310  24.929  0.00  0.00    +0.010 C 
ENDBRANCH   6   8
ENDBRANCH   4   5
ENDBRANCH   3   4
BRANCH  13  14
ATOM     14  N   UNL     1      -2.756  -0.188  24.648  0.00  0.00    -0.209 NA
BRANCH  14  15
ATOM     15  C   UNL     1      -3.502  -0.514  24.787  0.00  0.00    +0.117 C 
BRANCH  15  16
ATOM     16  C   UNL     1      -3.636  -1.313  24.636  0.00  0.00    +0.014 A 
ATOM     17  C   UNL     1      -4.039  -1.541  23.952  0.00  0.00    +0.000 A 
ATOM     18  C   UNL     1      -4.173  -2.341  23.800  0.00  0.00    +0.020 A 
ATOM     19  C   UNL     1      -3.906  -2.912  24.331  0.00  0.00    +0.099 A 
ATOM     20  N   UNL     1      -3.504  -2.685  25.014  0.00  0.00    -0.243 NA
ATOM     21  C   UNL     1      -3.369  -1.885  25.167  0.00  0.00    +0.096 A 
ENDBRANCH  15  16
ENDBRANCH  14  15
ENDBRANCH  13  14
TORSDOF 6
ENDMDL
MODEL 2
REMARK VINA RESULT:      -8.7      1.122      5.584
REMARK  Name = 
REMARK  6 active torsions:
REMARK  status: ('A' for Active; 'I' for Inactive)
REMARK    1  A    between atoms: C_3  and  C_4
REMARK    2  A    between atoms: C_4  and  N_5
REMARK    3  A    between atoms: C_6  and  C_8
REMARK    4  A    between atoms: C_13  and  N_14
REMARK    5  A    between atoms: N_14  and  C_15
REMARK    6  A    between atoms: C_15  and  C_16
REMARK                            x       y       z     vdW  Elec       q    Type
REMARK                         _______ _______ _______ _____ _____    ______ ____
ROOT
ATOM      1  O   UNL     1      -3.587   1.729  23.873  0.00  0.00    -0.219 OA
ATOM      2  C   UNL     1      -3.012   1.379  24.351  0.00  0.00    +0.199 C 
ATOM      3  C   UNL     1      -2.964   0.578  24.544  0.00  0.00    +0.169 C 
ATOM     11  O   UNL     1      -2.308   0.473  25.032  0.00  0.00    -0.350 OA
ATOM     12  C   UNL     1      -1.950   1.208  25.141  0.00  0.00    +0.162 C 
ATOM     13  C   UNL     1      -2.386   1.768  24.720  0.00  0.00    +0.135 C 
ENDROOT
BRANCH   3   4
ATOM      4  C   UNL     1      -3.482  -0.013  24.293  0.00  0.00    +0.147 C 
BRANCH   4   5
ATOM      5  N   UNL     1      -3.304  -0.806  24.438  0.00  0.00    -0.203 NA
ATOM      6  C   UNL     1      -3.862  -1.391  24.273  0.00  0.00    +0.241 C 
ATOM      7  O   UNL     1      -4.598  -1.183  23.962  0.00  0.00    -0.273 OA
BRANCH   6   8
ATOM      8  C   UNL     1      -3.684  -2.183  24.419  0.00  0.00    +0.078 C 
ATOM      9  C   UNL     1      -3.581  -2.954  24.144  0.00  0.00    +0.010 C 
ATOM     10  C   UNL     1      -3.481  -2.784  24.945  0.00  0.00    +0.010 C 
ENDBRANCH   6   8
ENDBRANCH   4   5
ENDBRANCH   3   4
BRANCH  13  14
ATOM     14  N   UNL     1      -2.223   2.576  24.675  0.00  0.00    -0.209 NA
BRANCH  14  15
ATOM     15  C   UNL     1      -1.717   2.925  25.225  0.00  0.00    +0.117 C 
BRANCH  15  16
ATOM     16  C   UNL     1      -1.516   3.722  25.152  0.00  0.00    +0.014 A 
ATOM     17  C   UNL     1      -2.042   4.305  25.408  0.00  0.00    +0.000 A 
ATOM     18  C   UNL     1      -1.841   5.102  25.334  0.00  0.00    +0.020 A 
ATOM     19  C   UNL     1      -1.116   5.316  25.005  0.00  0.00    +0.099 A 
ATOM     20  N   UNL     1      -0.591   4.734  24.750  0.00  0.00    -0.243 NA
ATOM     21  C   UNL     1      -0.791   3.937  24.823  0.00  0.00    +0.096 A 
ENDBRANCH  15  16
ENDBRANCH  14  15
ENDBRANCH  13  14
TORSDOF 6
ENDMDL
MODEL 3
REMARK VINA RESULT:      -7.3      2.674      4.121
REMARK  Name = 
REMARK  6 active torsions:
REMARK  status: ('A' for Active; 'I' for Inactive)
REMARK    1  A    between atoms: C_3  and  C_4
REMARK    2  A    between atoms: C_4  and  N_5
REMARK    3  A    between atoms: C_6  and  C_8
REMARK    4  A    between atoms: C_13  and  N_14
REMARK    5  A    between atoms: N_14  and  C_15
REMARK    6  A    between atoms: C_15  and  C_16
REMARK                            x       y       z     vdW  Elec       q    Type
REMARK                         _______ _______ _______ _____ _____    ______ ____
ROOT
ATOM      1  O   UNL     1      -2.184   0.257  25.246  0.00  0.00    -0.219 OA
ATOM      2  C   UNL     1      -2.051   0.808  24.646  0.00  0.00    +0.199 C 
ATOM      3  C   UNL     1      -1.409   0.816  24.127  0.00  0.00    +0.169 C 
ATOM     11  O   UNL     1      -1.498   1.459  23.621  0.00  0.00    -0.350 OA
ATOM     12  C   UNL     1      -2.195   1.850  23.825  0.00  0.00    +0.162 C 
ATOM     13  C   UNL     1      -2.537   1.448  24.458  0.00  0.00    +0.135 C 
ENDROOT
BRANCH   3   4
ATOM      4  C   UNL     1      -0.787   0.273  24.119  0.00  0.00    +0.147 C 
BRANCH   4   5
ATOM      5  N   UNL     1      -0.154   0.380  23.600  0.00  0.00    -0.203 NA
ATOM      6  C   UNL     1       0.417  -0.209  23.518  0.00  0.00    +0.241 C 
ATOM      7  O   UNL     1       0.355  -0.907  23.956  0.00  0.00    -0.273 OA
BRANCH   6   8
ATOM      8  C   UNL     1       1.049  -0.103  22.999  0.00  0.00    +0.078 C 
ATOM      9  C   UNL     1       1.801   0.199  22.842  0.00  0.00    +0.010 C 
ATOM     10  C   UNL     1       1.393  -0.219  22.259  0.00  0.00    +0.010 C 
ENDBRANCH   6   8
ENDBRANCH   4   5
ENDBRANCH   3   4
BRANCH  13  14
ATOM     14  N   UNL     1      -3.241   1.649  24.839  0.00  0.00    -0.209 NA
BRANCH  14  15
ATOM     15  C   UNL     1      -3.768   2.172  24.479  0.00  0.00    +0.117 C 
BRANCH  15  16
ATOM     16  C   UNL     1      -4.463   2.388  24.868  0.00  0.00    +0.014 A 
ATOM     17  C   UNL     1      -5.129   1.902  24.823  0.00  0.00    +0.000 A 
ATOM     18  C   UNL     1      -5.824   2.119  25.212  0.00  0.00    +0.020 A 
ATOM     19  C   UNL     1      -5.853   2.820  25.645  0.00  0.00    +0.099 A 
ATOM     20  N   UNL     1      -5.188   3.305  25.690  0.00  0.00    -0.243 NA
ATOM     21  C   UNL     1      -4.492   3.090  25.301  0.00  0.00    +0.096 A 
ENDBRANCH  15  16
ENDBRANCH  14  15
ENDBRANCH  13  14
TORSDOF 6
ENDMDL
MODEL 4
REMARK VINA RESULT:      -6.6      2.898      4.179
REMARK  Name = 
REMARK  6 active torsions:
REMARK  status: ('A' for Active; 'I' for Inactive)
REMARK    1  A    between atoms: C_3  and  C_4
REMARK    2  A    between atoms: C_4  and  N_5
REMARK    3  A    between atoms: C_6  and  C_8
REMARK    4  A    between atoms: C_13  and  N_14
REMARK    5  A    between atoms: N_14  and  C_15
REMARK    6  A    between atoms: C_15  and  C_16
REMARK                            x       y       z     vdW  Elec       q    Type
REMARK                         _______ _______ _______ _____ _____    ______ ____
ROOT
ATOM      1  O   UNL     1      -2.155   2.129  22.998  0.00  0.00    -0.219 OA
ATOM      2  C   UNL     1      -2.110   1.787  23.747  0.00  0.00    +0.199 C 
ATOM      3  C   UNL     1      -2.676   1.850  24.345  0.00  0.00    +0.169 C 
ATOM     11  O   UNL     1      -2.406   1.424  24.997  0.00  0.00    -0.350 OA
ATOM     12  C   UNL     1      -1.674   1.098  24.803  0.00  0.00    +0.162 C 
ATOM     13  C   UNL     1      -1.490   1.322  24.031  0.00  0.00    +0.135 C 
ENDROOT
BRANCH   3   4
ATOM      4  C   UNL     1      -3.387   2.266  24.296  0.00  0.00    +0.147 C 
BRANCH   4   5
ATOM      5  N   UNL     1      -4.056   1.986  24.689  0.00  0.00    -0.203 NA
ATOM      6  C   UNL     1      -4.739   2.446  24.720  0.00  0.00    +0.241 C 
ATOM      7  O   UNL     1      -4.754   3.188  24.359  0.00  0.00    -0.273 OA
BRANCH   6   8
ATOM      8  C   UNL     1      -5.409   2.165  25.113  0.00  0.00    +0.078 C 
ATOM      9  C   UNL     1      -5.855   2.095  25.803  0.00  0.00    +0.010 C 
ATOM     10  C   UNL     1      -6.121   1.750  25.102  0.00  0.00    +0.010 C 
ENDBRANCH   6   8
ENDBRANCH   4   5
ENDBRANCH   3   4
BRANCH  13  14
ATOM     14  N   UNL     1      -0.808   1.118  23.615  0.00  0.00    -0.209 NA
BRANCH  14  15
ATOM     15  C   UNL     1      -0.224   0.662  23.980  0.00  0.00    +0.117 C 
BRANCH  15  16
ATOM     16  C   UNL     1       0.468   0.475  23.571  0.00  0.00    +0.014 A 
ATOM     17  C   UNL     1       0.501  -0.207  23.108  0.00  0.00    +0.000 A 
ATOM     18  C   UNL     1       1.193  -0.394  22.699  0.00  0.00    +0.020 A 
ATOM     19  C   UNL     1       1.850   0.101  22.753  0.00  0.00    +0.099 A 
ATOM     20  N   UNL     1       1.817   0.783  23.215  0.00  0.00    -0.243 NA
ATOM     21  C   UNL     1       1.125   0.970  23.625  0.00  0.00    +0.096 A 
ENDBRANCH  15  16
ENDBRANCH  14  15
ENDBRANCH  13  14
TORSDOF 6
ENDMDL
MODEL 5
REMARK VINA RESULT:      -6.5     17.563     19.069
REMARK  Name = 
REMARK  6 active torsions:
REMARK  status: ('A' for Active; 'I' for Inactive)
REMARK    1  A    between atoms: C_3  and  C_4
REMARK    2  A    between atoms: C_4  and  N_5
REMARK    3  A    between atoms: C_6  and  C_8
REMARK    4  A    between atoms: C_13  and  N_14
REMARK    5  A    between atoms: N_14  and  C_15
REMARK    6  A    between atoms: C_15  and  C_16
REMARK                            x       y       z     vdW  Elec       q    Type
REMARK                         _______ _______ _______ _____ _____    ______ ____
ROOT
ATOM      1  O   UNL     1      13.032   6.722  18.900  0.00  0.00    -0.219 OA
ATOM      2  C   UNL     1      13.522   7.359  18.712  0.00  0.00    +0.199 C 
ATOM      3  C   UNL     1      14.269   7.507  19.031  0.00  0.00    +0.169 C 
ATOM     11  O   UNL     1      14.560   8.198  18.688  0.00  0.00    -0.350 OA
ATOM     12  C   UNL     1      13.994   8.477  18.157  0.00  0.00    +0.162 C 
ATOM     13  C   UNL     1      13.353   7.959  18.171  0.00  0.00    +0.135 C 
ENDROOT
BRANCH   3   4
ATOM      4  C   UNL     1      14.655   7.044  19.595  0.00  0.00    +0.147 C 
BRANCH   4   5
ATOM      5  N   UNL     1      15.479   7.012  19.606  0.00  0.00    -0.203 NA
ATOM      6  C   UNL     1      15.867   6.574  20.188  0.00  0.00    +0.241 C 
ATOM      7  O   UNL     1      15.430   6.168  20.758  0.00  0.00    -0.273 OA
BRANCH   6   8
ATOM      8  C   UNL     1      16.691   6.542  20.200  0.00  0.00    +0.078 C 
ATOM      9  C   UNL     1      17.405   6.671  20.592  0.00  0.00    +0.010 C 
ATOM     10  C   UNL     1      17.404   6.358  19.828  0.00  0.00    +0.010 C 
ENDBRANCH   6   8
ENDBRANCH   4   5
ENDBRANCH   3   4
BRANCH  13  14
ATOM     14  N   UNL     1      12.663   8.027  17.724  0.00  0.00    -0.209 NA
BRANCH  14  15
ATOM     15  C   UNL     1      12.408   8.770  17.470  0.00  0.00    +0.117 C 
BRANCH  15  16
ATOM     16  C   UNL     1      11.818   8.829  16.897  0.00  0.00    +0.014 A 
ATOM     17  C   UNL     1      11.031   8.684  17.099  0.00  0.00    +0.000 A 
ATOM     18  C   UNL     1      10.441   8.743  16.526  0.00  0.00    +0.020 A 
ATOM     19  C   UNL     1      10.637   8.948  15.752  0.00  0.00    +0.099 A 
ATOM     20  N   UNL     1      11.423   9.093  15.550  0.00  0.00    -0.243 NA
ATOM     21  C   UNL     1      12.014   9.034  16.122  0.00  0.00    +0.096 A 
ENDBRANCH  15  16
ENDBRANCH  14  15
ENDBRANCH  13  14
TORSDOF 6
ENDMDL
MODEL 6
REMARK VINA RESULT:      -6.3     17.515     19.100
REMARK  Name = 
REMARK  6 active torsions:
REMARK  status: ('A' for Active; 'I' for Inactive)
REMARK    1  A    between atoms: C_3  and  C_4
REMARK    2  A    between atoms: C_4  and  N_5
REMARK    3  A    between atoms: C_6  and  C_8
REMARK    4  A    between atoms: C_13  and  N_14
REMARK    5  A    between atoms: N_14  and  C_15
REMARK    6  A    between atoms: C_15  and  C_16
REMARK                            x       y       z     vdW  Elec       q    Type
REMARK                         _______ _______ _______ _____ _____    ______ ____
ROOT
ATOM      1  O   UNL     1      13.219   8.112  19.904  0.00  0.00    -0.219 OA
ATOM      2  C   UNL     1      13.537   7.883  19.178  0.00  0.00    +0.199 C 
ATOM      3  C   UNL     1      13.144   7.888  18.452  0.00  0.00    +0.169 C 
ATOM     11  O   UNL     1      13.668   7.617  17.877  0.00  0.00    -0.350 OA
ATOM     12  C   UNL     1      14.385   7.445  18.246  0.00  0.00    +0.162 C 
ATOM     13  C   UNL     1      14.304   7.609  19.049  0.00  0.00    +0.135 C 
ENDROOT
BRANCH   3   4
ATOM      4  C   UNL     1      12.363   8.123  18.327  0.00  0.00    +0.147 C 
BRANCH   4   5
ATOM      5  N   UNL     1      12.120   8.362  17.575  0.00  0.00    -0.203 NA
ATOM      6  C   UNL     1      11.318   8.466  17.413  0.00  0.00    +0.241 C 
ATOM      7  O   UNL     1      10.758   8.329  18.004  0.00  0.00    -0.273 OA
BRANCH   6   8
ATOM      8  C   UNL     1      11.076   8.705  16.662  0.00  0.00    +0.078 C 
ATOM      9  C   UNL     1      11.233   9.094  15.951  0.00  0.00    +0.010 C 
ATOM     10  C   UNL     1      10.501   8.731  16.071  0.00  0.00    +0.010 C 
ENDBRANCH   6   8
ENDBRANCH   4   5
ENDBRANCH   3   4
BRANCH  13  14
ATOM     14  N   UNL     1      14.888   7.516  19.625  0.00  0.00    -0.209 NA
BRANCH  14  15
ATOM     15  C   UNL     1      15.513   6.992  19.498  0.00  0.00    +0.117 C 
BRANCH  15  16
ATOM     16  C   UNL     1      16.087   6.886  20.081  0.00  0.00    +0.014 A 
ATOM     17  C   UNL     1      16.783   7.328  20.058  0.00  0.00    +0.000 A 
ATOM     18  C   UNL     1      17.357   7.222  20.641  0.00  0.00    +0.020 A 
ATOM     19  C   UNL     1      17.235   6.675  21.246  0.00  0.00    +0.099 A 
ATOM     20  N   UNL     1      16.540   6.233  21.268  0.00  0.00    -0.243 NA
ATOM     21  C   UNL     1      15.965   6.338  20.685  0.00  0.00    +0.096 A 
ENDBRANCH  15  16
ENDBRANCH  14  15
ENDBRANCH  13  14
TORSDOF 6
ENDMDL
MODEL 7
REMARK VINA RESULT:      -6.3      2.132      4.717
REMARK  Name = 
REMARK  6 active torsions:
REMARK  status: ('A' for Active; 'I' for Inactive)
REMARK    1  A    between atoms: C_3  and  C_4
REMARK    2  A    between atoms: C_4  and  N_5
REMARK    3  A    between atoms: C_6  and  C_8
REMARK    4  A    between atoms: C_13  and  N_14
REMARK    5  A    between atoms: N_14  and  C_15
REMARK    6  A    between atoms: C_15  and  C_16
REMARK                            x       y       z     vdW  Elec       q    Type
REMARK                         _______ _______ _______ _____ _____    ______ ____
ROOT
ATOM      1  O   UNL     1      -2.009   1.461  25.494  0.00  0.00    -0.219 OA
ATOM      2  C   UNL     1      -2.200   1.378  24.696  0.00  0.00    +0.199 C 
ATOM      3  C   UNL     1      -1.894   0.811  24.179  0.00  0.00    +0.169 C 
ATOM     11  O   UNL     1      -2.236   0.930  23.439  0.00  0.00    -0.350 OA
ATOM     12  C   UNL     1      -2.754   1.569  23.497  0.00  0.00    +0.162 C 
ATOM     13  C   UNL     1      -2.732   1.846  24.273  0.00  0.00    +0.135 C 
ENDROOT
BRANCH   3   4
ATOM      4  C   UNL     1      -1.342   0.229  24.371  0.00  0.00    +0.147 C 
BRANCH   4   5
ATOM      5  N   UNL     1      -1.570  -0.563  24.394  0.00  0.00    -0.203 NA
ATOM      6  C   UNL     1      -1.010  -1.150  24.545  0.00  0.00    +0.241 C 
ATOM      7  O   UNL     1      -0.221  -0.944  24.673  0.00  0.00    -0.273 OA
BRANCH   6   8
ATOM      8  C   UNL     1      -1.238  -1.943  24.567  0.00  0.00    +0.078 C 
ATOM      9  C   UNL     1      -1.039  -2.743  24.584  0.00  0.00    +0.010 C 
ATOM     10  C   UNL     1      -1.831  -2.515  24.589  0.00  0.00    +0.010 C 
ENDBRANCH   6   8
ENDBRANCH   4   5
ENDBRANCH   3   4
BRANCH  13  14
ATOM     14  N   UNL     1      -3.165   2.480  24.575  0.00  0.00    -0.209 NA
BRANCH  14  15
ATOM     15  C   UNL     1      -3.923   2.635  24.287  0.00  0.00    +0.117 C 
BRANCH  15  16
ATOM     16  C   UNL     1      -4.470   3.031  24.761  0.00  0.00    +0.014 A 
ATOM     17  C   UNL     1      -5.146   2.638  25.027  0.00  0.00    +0.000 A 
ATOM     18  C   UNL     1      -5.693   3.035  25.501  0.00  0.00    +0.020 A 
ATOM     19  C   UNL     1      -5.565   3.822  25.708  0.00  0.00    +0.099 A 
ATOM     20  N   UNL     1      -4.890   4.215  25.443  0.00  0.00    -0.243 NA
ATOM     21  C   UNL     1      -4.342   3.819  24.969  0.00  0.00    +0.096 A 
ENDBRANCH  15  16
ENDBRANCH  14  15
ENDBRANCH  13  14
TORSDOF 6
ENDMDL
MODEL 8
REMARK VINA RESULT:      -6.2      2.604      3.261
REMARK  Name = 
REMARK  6 active torsions:
REMARK  status: ('A' for Active; 'I' for Inactive)
REMARK    1  A    between atoms: C_3  and  C_4
REMARK    2  A    between atoms: C_4  and  N_5
REMARK    3  A    between atoms: C_6  and  C_8
REMARK    4  A    between atoms: C_13  and  N_14
REMARK    5  A    between atoms: N_14  and  C_15
REMARK    6  A    between atoms: C_15  and  C_16
REMARK                            x       y       z     vdW  Elec       q    Type
REMARK                         _______ _______ _______ _____ _____    ______ ____
ROOT
ATOM      1  O   UNL     1      -4.310  -0.283  25.445  0.00  0.00    -0.219 OA
ATOM      2  C   UNL     1      -3.950   0.183  24.867  0.00  0.00    +0.199 C 
ATOM      3  C   UNL     1      -4.221   0.913  24.592  0.00  0.00    +0.169 C 
ATOM     11  O   UNL     1      -3.694   1.181  24.018  0.00  0.00    -0.350 OA
ATOM     12  C   UNL     1      -3.097   0.617  23.937  0.00  0.00    +0.162 C 
ATOM     13  C   UNL     1      -3.255   0.001  24.461  0.00  0.00    +0.135 C 
ENDROOT
BRANCH   3   4
ATOM      4  C   UNL     1      -4.900   1.304  24.849  0.00  0.00    +0.147 C 
BRANCH   4   5
ATOM      5  N   UNL     1      -4.870   2.109  25.027  0.00  0.00    -0.203 NA
ATOM      6  C   UNL     1      -5.555   2.509  25.253  0.00  0.00    +0.241 C 
ATOM      7  O   UNL     1      -6.272   2.102  25.302  0.00  0.00    -0.273 OA
BRANCH   6   8
ATOM      8  C   UNL     1      -5.524   3.314  25.431  0.00  0.00    +0.078 C 
ATOM      9  C   UNL     1      -5.874   3.987  25.754  0.00  0.00    +0.010 C 
ATOM     10  C   UNL     1      -5.122   4.033  25.416  0.00  0.00    +0.010 C 
ENDBRANCH   6   8
ENDBRANCH   4   5
ENDBRANCH   3   4
BRANCH  13  14
ATOM     14  N   UNL     1      -2.799  -0.679  24.562  0.00  0.00    -0.209 NA
BRANCH  14  15
ATOM     15  C   UNL     1      -1.984  -0.651  24.434  0.00  0.00    +0.117 C 
BRANCH  15  16
ATOM     16  C   UNL     1      -1.508  -1.283  24.669  0.00  0.00    +0.014 A 
ATOM     17  C   UNL     1      -0.804  -1.139  25.075  0.00  0.00    +0.000 A 
ATOM     18  C   UNL     1      -0.328  -1.771  25.311  0.00  0.00    +0.020 A 
ATOM     19  C   UNL     1      -0.556  -2.545  25.140  0.00  0.00    +0.099 A 
ATOM     20  N   UNL     1      -1.259  -2.688  24.734  0.00  0.00    -0.243 NA
ATOM     21  C   UNL     1      -1.736  -2.057  24.499  0.00  0.00    +0.096 A 
ENDBRANCH  15  16
ENDBRANCH  14  15
ENDBRANCH  13  14
TORSDOF 6
ENDMDL
MODEL 9
REMARK VINA RESULT:      -6.2     16.026     18.401
REMARK  Name = 
REMARK  6 active torsions:
REMARK  status: ('A' for Active; 'I' for Inactive)
REMARK    1  A    between atoms: C_3  and  C_4
REMARK    2  A    between atoms: C_4  and  N_5
REMARK    3  A    between atoms: C_6  and  C_8
REMARK    4  A    between atoms: C_13  and  N_14
REMARK    5  A    between atoms: N_14  and  C_15
REMARK    6  A    between atoms: C_15  and  C_16
REMARK                            x       y       z     vdW  Elec       q    Type
REMARK                         _______ _______ _______ _____ _____    ______ ____
ROOT
ATOM      1  O   UNL     1      13.082   6.278  20.156  0.00  0.00    -0.219 OA
ATOM      2  C   UNL     1      13.323   7.059  20.045  0.00  0.00    +0.199 C 
ATOM      3  C   UNL     1      12.851   7.730  20.133  0.00  0.00    +0.169 C 
ATOM     11  O   UNL     1      13.315   8.391  19.968  0.00  0.00    -0.350 OA
ATOM     12  C   UNL     1      14.074   8.130  19.778  0.00  0.00    +0.162 C 
ATOM     13  C   UNL     1      14.079   7.307  19.825  0.00  0.00    +0.135 C 
ENDROOT
BRANCH   3   4
ATOM      4  C   UNL     1      12.055   7.737  20.349  0.00  0.00    +0.147 C 
BRANCH   4   5
ATOM      5  N   UNL     1      11.819   8.119  21.041  0.00  0.00    -0.203 NA
ATOM      6  C   UNL     1      11.019   8.160  21.238  0.00  0.00    +0.241 C 
ATOM      7  O   UNL     1      10.454   7.818  20.741  0.00  0.00    -0.273 OA
BRANCH   6   8
ATOM      8  C   UNL     1      10.783   8.542  21.930  0.00  0.00    +0.078 C 
ATOM      9  C   UNL     1      10.881   8.684  22.736  0.00  0.00    +0.010 C 
ATOM     10  C   UNL     1      10.276   9.062  22.321  0.00  0.00    +0.010 C 
ENDBRANCH   6   8
ENDBRANCH   4   5
ENDBRANCH   3   4
BRANCH  13  14
ATOM     14  N   UNL     1      14.726   6.816  19.678  0.00  0.00    -0.209 NA
BRANCH  14  15
ATOM     15  C   UNL     1      15.427   7.136  19.383  0.00  0.00    +0.117 C 
BRANCH  15  16
ATOM     16  C   UNL     1      16.084   6.651  19.267  0.00  0.00    +0.014 A 
ATOM     17  C   UNL     1      16.711   6.672  19.803  0.00  0.00    +0.000 A 
ATOM     18  C   UNL     1      17.369   6.187  19.687  0.00  0.00    +0.020 A 
ATOM     19  C   UNL     1      17.399   5.681  19.036  0.00  0.00    +0.099 A 
ATOM     20  N   UNL     1      16.772   5.661  18.500  0.00  0.00    -0.243 NA
ATOM     21  C   UNL     1      16.114   6.146  18.616  0.00  0.00    +0.096 A 
ENDBRANCH  15  16
ENDBRANCH  14  15
ENDBRANCH  13  14
TORSDOF 6
ENDMDL
MODEL 10
REMARK VINA RESULT:      -6.0      3.141      5.553
REMARK  Name = 
REMARK  6 active torsions:
REMARK  status: ('A' for Active; 'I' for Inactive)
REMARK    1  A    between atoms: C_3  and  C_4
REMARK    2  A    between atoms: C_4  and  N_5
REMARK    3  A    between atoms: C_6  and  C_8
REMARK    4  A    between atoms: C_13  and  N_14
REMARK    5  A    between atoms: N_14  and  C_15
REMARK    6  A    between atoms: C_15  and  C_16
REMARK                            x       y       z     vdW  Elec       q    Type
REMARK                         _______ _______ _______ _____ _____    ______ ____
ROOT
ATOM      1  O   UNL     1      -0.172  -1.218  24.765  0.00  0.00    -0.219 OA
ATOM      2  C   UNL     1      -0.522  -0.548  24.435  0.00  0.00    +0.199 C 
ATOM      3  C   UNL     1      -1.319  -0.339  24.490  0.00  0.00    +0.169 C 
ATOM     11  O   UNL     1      -1.426   0.368  24.081  0.00  0.00    -0.350 OA
ATOM     12  C   UNL     1      -0.696   0.598  23.773  0.00  0.00    +0.162 C 
ATOM     13  C   UNL     1      -0.138   0.032  23.992  0.00  0.00    +0.135 C 
ENDROOT
BRANCH   3   4
ATOM      4  C   UNL     1      -1.905  -0.765  24.885  0.00  0.00    +0.147 C 
BRANCH   4   5
ATOM      5  N   UNL     1      -2.485  -1.165  24.455  0.00  0.00    -0.203 NA
ATOM      6  C   UNL     1      -3.128  -1.504  24.845  0.00  0.00    +0.241 C 
ATOM      7  O   UNL     1      -3.190  -1.443  25.666  0.00  0.00    -0.273 OA
BRANCH   6   8
ATOM      8  C   UNL     1      -3.707  -1.903  24.415  0.00  0.00    +0.078 C 
ATOM      9  C   UNL     1      -4.378  -1.888  23.936  0.00  0.00    +0.010 C 
ATOM     10  C   UNL     1      -4.041  -2.609  24.150  0.00  0.00    +0.010 C 
ENDBRANCH   6   8
ENDBRANCH   4   5
ENDBRANCH   3   4
BRANCH  13  14
ATOM     14  N   UNL     1       0.665   0.043  23.801  0.00  0.00    -0.209 NA
BRANCH  14  15
ATOM     15  C   UNL     1       0.919   0.415  23.109  0.00  0.00    +0.117 C 
BRANCH  15  16
ATOM     16  C   UNL     1       1.725   0.465  22.941  0.00  0.00    +0.014 A 
ATOM     17  C   UNL     1       2.067  -0.061  22.404  0.00  0.00    +0.000 A 
ATOM     18  C   UNL     1       2.873  -0.011  22.235  0.00  0.00    +0.020 A 
ATOM     19  C   UNL     1       3.337   0.563  22.603  0.00  0.00    +0.099 A 
ATOM     20  N   UNL     1       2.996   1.088  23.140  0.00  0.00    -0.243 NA
ATOM     21  C   UNL     1       2.189   1.039  23.309  0.00  0.00    +0.096 A 
ENDBRANCH  15  16
ENDBRANCH  14  15
ENDBRANCH  13  14
TORSDOF 6
ENDMDL
