REMARK  Name = 
REMARK  8 active torsions:
REMARK  status: ('A' for Active; 'I' for Inactive)
REMARK    1  A    between atoms: O_2  and  C_3
REMARK    2  A    between atoms: C_4  and  O_5
REMARK    3  A    between atoms: C_8  and  C_9
REMARK    4  A    between atoms: C_9  and  N_10
REMARK    5  A    between atoms: C_11  and  C_13
REMARK    6  A    between atoms: C_13  and  C_15
REMARK    7  A    between atoms: C_22  and  N_23
REMARK    8  A    between atoms: C_24  and  C_26
REMARK                            x       y       z     vdW  Elec       q    Type
REMARK                         _______ _______ _______ _____ _____    ______ ____
ROOT
ATOM     15  C   UNL     1       0.715  -1.238   0.000  0.00  0.00    +0.039 C 
ATOM     16  C   UNL     1       0.715  -0.412   0.000  0.00  0.00    +0.003 C 
ATOM     17  C   UNL     1       1.429   0.000   0.000  0.00  0.00    +0.000 C 
ATOM     18  C   UNL     1       2.143  -0.412   0.000  0.00  0.00    +0.002 C 
ATOM     19  C   UNL     1       2.143   0.412   0.000  0.00  0.00    +0.000 C 
ATOM     20  C   UNL     1       2.858   0.000   0.000  0.00  0.00    +0.002 C 
ATOM     21  C   UNL     1       3.572  -0.412   0.000  0.00  0.00    +0.022 C 
ATOM     22  C   UNL     1       3.572  -1.238   0.000  0.00  0.00    +0.096 C 
ATOM     32  C   UNL     1       2.858  -1.650   0.000  0.00  0.00    +0.022 C 
ATOM     33  C   UNL     1       2.858  -2.475   0.000  0.00  0.00    +0.002 C 
ATOM     34  C   UNL     1       2.143  -1.238   0.000  0.00  0.00    +0.032 C 
ATOM     35  C   UNL     1       1.429  -1.650   0.000  0.00  0.00    +0.152 C 
ATOM     36  O   UNL     1       1.429  -2.475   0.000  0.00  0.00    -0.223 OA
ENDROOT
BRANCH  22  23
ATOM     23  N   UNL     1       4.287  -1.650   0.000  0.00  0.00    -0.202 NA
ATOM     24  C   UNL     1       5.001  -1.238   0.000  0.00  0.00    +0.282 C 
ATOM     25  O   UNL     1       5.001  -0.412   0.000  0.00  0.00    -0.267 OA
BRANCH  24  26
ATOM     26  C   UNL     1       5.716  -1.650   0.000  0.00  0.00    +0.136 A 
ATOM     27  N   UNL     1       6.430  -1.238   0.000  0.00  0.00    -0.239 NA
ATOM     28  C   UNL     1       7.145  -1.650   0.000  0.00  0.00    +0.099 A 
ATOM     29  C   UNL     1       7.145  -2.475   0.000  0.00  0.00    +0.021 A 
ATOM     30  C   UNL     1       6.430  -2.888   0.000  0.00  0.00    +0.003 A 
ATOM     31  C   UNL     1       5.716  -2.475   0.000  0.00  0.00    +0.024 A 
ENDBRANCH  24  26
ENDBRANCH  22  23
BRANCH  15  13
ATOM     13  C   UNL     1       0.000  -1.650   0.000  0.00  0.00    +0.081 C 
ATOM     14  C   UNL     1       0.000  -2.475   0.000  0.00  0.00    +0.010 C 
BRANCH  13  11
ATOM     10  N   UNL     1      -1.429  -1.650   0.000  0.00  0.00    -0.201 NA
ATOM     11  C   UNL     1      -0.715  -1.238   0.000  0.00  0.00    +0.241 C 
ATOM     12  O   UNL     1      -0.715  -0.412   0.000  0.00  0.00    -0.273 OA
BRANCH  10   9
ATOM      9  C   UNL     1      -2.143  -1.238   0.000  0.00  0.00    +0.142 C 
BRANCH   9   8
ATOM      3  C   UNL     1      -4.287  -2.475   0.000  0.00  0.00    +0.172 A 
ATOM      4  C   UNL     1      -4.287  -1.650   0.000  0.00  0.00    +0.172 A 
ATOM      7  C   UNL     1      -3.572  -1.238   0.000  0.00  0.00    +0.037 A 
ATOM      8  C   UNL     1      -2.858  -1.650   0.000  0.00  0.00    +0.003 A 
ATOM     37  C   UNL     1      -2.858  -2.475   0.000  0.00  0.00    +0.001 A 
ATOM     38  C   UNL     1      -3.572  -2.888   0.000  0.00  0.00    +0.040 A 
BRANCH   3   2
ATOM      1  C   UNL     1      -5.001  -3.712   0.000  0.00  0.00    +0.253 C 
ATOM      2  O   UNL     1      -5.001  -2.888   0.000  0.00  0.00    -0.468 OA
ENDBRANCH   3   2
BRANCH   4   5
ATOM      5  O   UNL     1      -5.001  -1.238   0.000  0.00  0.00    -0.468 OA
ATOM      6  C   UNL     1      -5.001  -0.412   0.000  0.00  0.00    +0.253 C 
ENDBRANCH   4   5
ENDBRANCH   9   8
ENDBRANCH  10   9
ENDBRANCH  13  11
ENDBRANCH  15  13
TORSDOF 8
