MODEL 1
REMARK VINA RESULT:     -10.6      0.000      0.000
REMARK  Name = 
REMARK  11 active torsions:
REMARK  status: ('A' for Active; 'I' for Inactive)
REMARK    1  A    between atoms: N_2  and  C_4
REMARK    2  A    between atoms: C_4  and  C_5
REMARK    3  A    between atoms: C_5  and  N_6
REMARK    4  A    between atoms: N_6  and  C_8
REMARK    5  A    between atoms: C_11  and  C_12
REMARK    6  A    between atoms: C_15  and  C_16
REMARK    7  A    between atoms: C_16  and  N_17
REMARK    8  A    between atoms: N_17  and  C_18
REMARK    9  A    between atoms: N_17  and  C_26
REMARK   10  A    between atoms: C_18  and  C_19
REMARK   11  A    between atoms: C_26  and  C_27
REMARK                            x       y       z     vdW  Elec       q    Type
REMARK                         _______ _______ _______ _____ _____    ______ ____
ROOT
ATOM     17  N   UNL     1      -2.378   0.399  24.808  0.00  0.00    -0.263 NA
ENDROOT
BRANCH  17  16
ATOM     16  C   UNL     1      -1.931   1.091  24.843  0.00  0.00    +0.104 C 
BRANCH  16  15
ATOM      8  C   UNL     1      -0.570   1.642  24.755  0.00  0.00    +0.120 C 
ATOM      9  C   UNL     1       0.112   1.444  24.336  0.00  0.00    +0.198 C 
ATOM     10  O   UNL     1       0.834   1.841  24.371  0.00  0.00    -0.219 OA
ATOM     11  C   UNL     1      -0.054   0.780  23.874  0.00  0.00    +0.180 C 
ATOM     14  O   UNL     1      -0.840   0.568  24.009  0.00  0.00    -0.350 OA
ATOM     15  C   UNL     1      -1.159   1.100  24.552  0.00  0.00    +0.148 C 
BRANCH   8   6
ATOM      6  N   UNL     1      -0.651   2.270  25.283  0.00  0.00    -0.267 NA
ATOM      7  C   UNL     1      -0.511   2.154  26.087  0.00  0.00    +0.090 C 
BRANCH   6   5
ATOM      5  C   UNL     1      -0.873   3.014  25.005  0.00  0.00    +0.090 C 
BRANCH   5   4
ATOM      4  C   UNL     1      -0.998   3.632  25.539  0.00  0.00    +0.090 C 
BRANCH   4   2
ATOM      1  C   UNL     1      -0.762   4.844  24.818  0.00  0.00    +0.090 C 
ATOM      2  N   UNL     1      -1.263   4.364  25.266  0.00  0.00    -0.269 NA
ATOM      3  C   UNL     1      -2.028   4.617  25.440  0.00  0.00    +0.090 C 
ENDBRANCH   4   2
ENDBRANCH   5   4
ENDBRANCH   6   5
ENDBRANCH   8   6
BRANCH  11  12
ATOM     12  C   UNL     1       0.472   0.398  23.369  0.00  0.00    +0.214 C 
ATOM     13  O   UNL     1       0.498  -0.427  23.346  0.00  0.00    -0.218 OA
ENDBRANCH  11  12
ENDBRANCH  16  15
ENDBRANCH  17  16
BRANCH  17  18
ATOM     18  C   UNL     1      -3.081   0.382  24.376  0.00  0.00    +0.099 C 
BRANCH  18  19
ATOM     19  C   UNL     1      -3.589   1.032  24.391  0.00  0.00    -0.006 A 
ATOM     20  C   UNL     1      -4.004   1.215  25.081  0.00  0.00    -0.001 A 
ATOM     21  C   UNL     1      -4.512   1.865  25.096  0.00  0.00    +0.029 A 
ATOM     22  C   UNL     1      -4.606   2.332  24.422  0.00  0.00    +0.140 A 
ATOM     23  F   UNL     1      -5.114   2.982  24.437  0.00  0.00    -0.204 F 
ATOM     24  C   UNL     1      -4.191   2.148  23.732  0.00  0.00    +0.029 A 
ATOM     25  C   UNL     1      -3.683   1.499  23.717  0.00  0.00    -0.001 A 
ENDBRANCH  18  19
ENDBRANCH  17  18
BRANCH  17  26
ATOM     26  C   UNL     1      -2.122  -0.278  25.204  0.00  0.00    +0.099 C 
BRANCH  26  27
ATOM     27  C   UNL     1      -2.547  -0.982  25.136  0.00  0.00    -0.006 A 
ATOM     28  C   UNL     1      -3.037  -1.228  25.752  0.00  0.00    -0.001 A 
ATOM     29  C   UNL     1      -3.463  -1.932  25.684  0.00  0.00    +0.029 A 
ATOM     30  C   UNL     1      -3.397  -2.389  25.000  0.00  0.00    +0.140 A 
ATOM     31  F   UNL     1      -3.822  -3.093  24.932  0.00  0.00    -0.204 F 
ATOM     32  C   UNL     1      -2.906  -2.143  24.384  0.00  0.00    +0.029 A 
ATOM     33  C   UNL     1      -2.481  -1.439  24.452  0.00  0.00    -0.001 A 
ENDBRANCH  26  27
ENDBRANCH  17  26
TORSDOF 11
ENDMDL
MODEL 2
REMARK VINA RESULT:     -10.6      0.012      2.856
REMARK  Name = 
REMARK  11 active torsions:
REMARK  status: ('A' for Active; 'I' for Inactive)
REMARK    1  A    between atoms: N_2  and  C_4
REMARK    2  A    between atoms: C_4  and  C_5
REMARK    3  A    between atoms: C_5  and  N_6
REMARK    4  A    between atoms: N_6  and  C_8
REMARK    5  A    between atoms: C_11  and  C_12
REMARK    6  A    between atoms: C_15  and  C_16
REMARK    7  A    between atoms: C_16  and  N_17
REMARK    8  A    between atoms: N_17  and  C_18
REMARK    9  A    between atoms: N_17  and  C_26
REMARK   10  A    between atoms: C_18  and  C_19
REMARK   11  A    between atoms: C_26  and  C_27
REMARK                            x       y       z     vdW  Elec       q    Type
REMARK                         _______ _______ _______ _____ _____    ______ ____
ROOT
ATOM     17  N   UNL     1      -2.373   0.404  24.802  0.00  0.00    -0.263 NA
ENDROOT
BRANCH  17  16
ATOM     16  C   UNL     1      -1.926   1.096  24.835  0.00  0.00    +0.104 C 
BRANCH  16  15
ATOM      8  C   UNL     1      -0.563   1.644  24.750  0.00  0.00    +0.120 C 
ATOM      9  C   UNL     1       0.119   1.445  24.332  0.00  0.00    +0.198 C 
ATOM     10  O   UNL     1       0.842   1.841  24.369  0.00  0.00    -0.219 OA
ATOM     11  C   UNL     1      -0.046   0.781  23.872  0.00  0.00    +0.180 C 
ATOM     14  O   UNL     1      -0.833   0.570  24.005  0.00  0.00    -0.350 OA
ATOM     15  C   UNL     1      -1.153   1.103  24.547  0.00  0.00    +0.148 C 
BRANCH   8   6
ATOM      6  N   UNL     1      -0.645   2.273  25.277  0.00  0.00    -0.267 NA
ATOM      7  C   UNL     1      -0.506   2.158  26.082  0.00  0.00    +0.090 C 
BRANCH   6   5
ATOM      5  C   UNL     1      -0.865   3.018  24.998  0.00  0.00    +0.090 C 
BRANCH   5   4
ATOM      4  C   UNL     1      -0.990   3.637  25.530  0.00  0.00    +0.090 C 
BRANCH   4   2
ATOM      1  C   UNL     1      -2.020   4.622  25.434  0.00  0.00    +0.090 C 
ATOM      2  N   UNL     1      -1.255   4.368  25.256  0.00  0.00    -0.269 NA
ATOM      3  C   UNL     1      -0.757   4.845  24.804  0.00  0.00    +0.090 C 
ENDBRANCH   4   2
ENDBRANCH   5   4
ENDBRANCH   6   5
ENDBRANCH   8   6
BRANCH  11  12
ATOM     12  C   UNL     1       0.481   0.396  23.368  0.00  0.00    +0.214 C 
ATOM     13  O   UNL     1       0.495  -0.428  23.337  0.00  0.00    -0.218 OA
ENDBRANCH  11  12
ENDBRANCH  16  15
ENDBRANCH  17  16
BRANCH  17  18
ATOM     18  C   UNL     1      -2.116  -0.273  25.198  0.00  0.00    +0.099 C 
BRANCH  18  19
ATOM     19  C   UNL     1      -2.544  -0.975  25.133  0.00  0.00    -0.006 A 
ATOM     20  C   UNL     1      -2.481  -1.436  24.450  0.00  0.00    -0.001 A 
ATOM     21  C   UNL     1      -2.909  -2.138  24.385  0.00  0.00    +0.029 A 
ATOM     22  C   UNL     1      -3.400  -2.381  25.002  0.00  0.00    +0.140 A 
ATOM     23  F   UNL     1      -3.829  -3.083  24.937  0.00  0.00    -0.204 F 
ATOM     24  C   UNL     1      -3.464  -1.920  25.684  0.00  0.00    +0.029 A 
ATOM     25  C   UNL     1      -3.036  -1.218  25.749  0.00  0.00    -0.001 A 
ENDBRANCH  18  19
ENDBRANCH  17  18
BRANCH  17  26
ATOM     26  C   UNL     1      -3.076   0.388  24.372  0.00  0.00    +0.099 C 
BRANCH  26  27
ATOM     27  C   UNL     1      -3.583   1.040  24.385  0.00  0.00    -0.006 A 
ATOM     28  C   UNL     1      -3.676   1.504  23.709  0.00  0.00    -0.001 A 
ATOM     29  C   UNL     1      -4.182   2.155  23.723  0.00  0.00    +0.029 A 
ATOM     30  C   UNL     1      -4.595   2.343  24.412  0.00  0.00    +0.140 A 
ATOM     31  F   UNL     1      -5.101   2.995  24.426  0.00  0.00    -0.204 F 
ATOM     32  C   UNL     1      -4.502   1.879  25.088  0.00  0.00    +0.029 A 
ATOM     33  C   UNL     1      -3.995   1.227  25.075  0.00  0.00    -0.001 A 
ENDBRANCH  26  27
ENDBRANCH  17  26
TORSDOF 11
ENDMDL
MODEL 3
REMARK VINA RESULT:     -10.2      1.361      2.022
REMARK  Name = 
REMARK  11 active torsions:
REMARK  status: ('A' for Active; 'I' for Inactive)
REMARK    1  A    between atoms: N_2  and  C_4
REMARK    2  A    between atoms: C_4  and  C_5
REMARK    3  A    between atoms: C_5  and  N_6
REMARK    4  A    between atoms: N_6  and  C_8
REMARK    5  A    between atoms: C_11  and  C_12
REMARK    6  A    between atoms: C_15  and  C_16
REMARK    7  A    between atoms: C_16  and  N_17
REMARK    8  A    between atoms: N_17  and  C_18
REMARK    9  A    between atoms: N_17  and  C_26
REMARK   10  A    between atoms: C_18  and  C_19
REMARK   11  A    between atoms: C_26  and  C_27
REMARK                            x       y       z     vdW  Elec       q    Type
REMARK                         _______ _______ _______ _____ _____    ______ ____
ROOT
ATOM     17  N   UNL     1      -3.755   0.680  24.743  0.00  0.00    -0.263 NA
ENDROOT
BRANCH  17  16
ATOM     16  C   UNL     1      -2.931   0.693  24.723  0.00  0.00    +0.104 C 
BRANCH  16  15
ATOM      8  C   UNL     1      -1.746   1.250  24.053  0.00  0.00    +0.120 C 
ATOM      9  C   UNL     1      -1.588   1.545  23.300  0.00  0.00    +0.198 C 
ATOM     10  O   UNL     1      -0.863   1.838  23.037  0.00  0.00    -0.219 OA
ATOM     11  C   UNL     1      -2.281   1.497  22.855  0.00  0.00    +0.180 C 
ATOM     14  O   UNL     1      -2.869   1.172  23.335  0.00  0.00    -0.350 OA
ATOM     15  C   UNL     1      -2.538   1.019  24.075  0.00  0.00    +0.148 C 
BRANCH   8   6
ATOM      6  N   UNL     1      -1.208   1.195  24.677  0.00  0.00    -0.267 NA
ATOM      7  C   UNL     1      -0.788   0.496  24.799  0.00  0.00    +0.090 C 
BRANCH   6   5
ATOM      5  C   UNL     1      -1.092   1.840  25.177  0.00  0.00    +0.090 C 
BRANCH   5   4
ATOM      4  C   UNL     1      -0.551   1.787  25.799  0.00  0.00    +0.090 C 
BRANCH   4   2
ATOM      1  C   UNL     1       0.383   2.515  26.599  0.00  0.00    +0.090 C 
ATOM      2  N   UNL     1      -0.356   2.460  26.234  0.00  0.00    -0.269 NA
ATOM      3  C   UNL     1      -0.897   3.077  26.304  0.00  0.00    +0.090 C 
ENDBRANCH   4   2
ENDBRANCH   5   4
ENDBRANCH   6   5
ENDBRANCH   8   6
BRANCH  11  12
ATOM     12  C   UNL     1      -2.371   1.732  22.071  0.00  0.00    +0.214 C 
ATOM     13  O   UNL     1      -2.816   2.403  21.889  0.00  0.00    -0.218 OA
ENDBRANCH  11  12
ENDBRANCH  16  15
ENDBRANCH  17  16
BRANCH  17  18
ATOM     18  C   UNL     1      -4.186   1.284  24.382  0.00  0.00    +0.099 C 
BRANCH  18  19
ATOM     19  C   UNL     1      -4.706   1.743  24.829  0.00  0.00    -0.006 A 
ATOM     20  C   UNL     1      -5.521   1.642  24.746  0.00  0.00    -0.001 A 
ATOM     21  C   UNL     1      -6.041   2.101  25.193  0.00  0.00    +0.029 A 
ATOM     22  C   UNL     1      -5.747   2.661  25.722  0.00  0.00    +0.140 A 
ATOM     23  F   UNL     1      -6.266   3.120  26.169  0.00  0.00    -0.204 F 
ATOM     24  C   UNL     1      -4.932   2.762  25.805  0.00  0.00    +0.029 A 
ATOM     25  C   UNL     1      -4.412   2.303  25.358  0.00  0.00    -0.001 A 
ENDBRANCH  18  19
ENDBRANCH  17  18
BRANCH  17  26
ATOM     26  C   UNL     1      -4.149   0.063  25.124  0.00  0.00    +0.099 C 
BRANCH  26  27
ATOM     27  C   UNL     1      -4.009  -0.718  24.898  0.00  0.00    -0.006 A 
ATOM     28  C   UNL     1      -4.303  -0.998  24.180  0.00  0.00    -0.001 A 
ATOM     29  C   UNL     1      -4.163  -1.779  23.954  0.00  0.00    +0.029 A 
ATOM     30  C   UNL     1      -3.729  -2.280  24.445  0.00  0.00    +0.140 A 
ATOM     31  F   UNL     1      -3.589  -3.061  24.219  0.00  0.00    -0.204 F 
ATOM     32  C   UNL     1      -3.435  -2.000  25.163  0.00  0.00    +0.029 A 
ATOM     33  C   UNL     1      -3.575  -1.218  25.390  0.00  0.00    -0.001 A 
ENDBRANCH  26  27
ENDBRANCH  17  26
TORSDOF 11
ENDMDL
MODEL 4
REMARK VINA RESULT:     -10.2      1.359      3.448
REMARK  Name = 
REMARK  11 active torsions:
REMARK  status: ('A' for Active; 'I' for Inactive)
REMARK    1  A    between atoms: N_2  and  C_4
REMARK    2  A    between atoms: C_4  and  C_5
REMARK    3  A    between atoms: C_5  and  N_6
REMARK    4  A    between atoms: N_6  and  C_8
REMARK    5  A    between atoms: C_11  and  C_12
REMARK    6  A    between atoms: C_15  and  C_16
REMARK    7  A    between atoms: C_16  and  N_17
REMARK    8  A    between atoms: N_17  and  C_18
REMARK    9  A    between atoms: N_17  and  C_26
REMARK   10  A    between atoms: C_18  and  C_19
REMARK   11  A    between atoms: C_26  and  C_27
REMARK                            x       y       z     vdW  Elec       q    Type
REMARK                         _______ _______ _______ _____ _____    ______ ____
ROOT
ATOM     17  N   UNL     1      -3.753   0.679  24.749  0.00  0.00    -0.263 NA
ENDROOT
BRANCH  17  16
ATOM     16  C   UNL     1      -2.929   0.695  24.733  0.00  0.00    +0.104 C 
BRANCH  16  15
ATOM      8  C   UNL     1      -1.741   1.245  24.062  0.00  0.00    +0.120 C 
ATOM      9  C   UNL     1      -1.582   1.539  23.308  0.00  0.00    +0.198 C 
ATOM     10  O   UNL     1      -0.855   1.826  23.044  0.00  0.00    -0.219 OA
ATOM     11  C   UNL     1      -2.276   1.495  22.864  0.00  0.00    +0.180 C 
ATOM     14  O   UNL     1      -2.865   1.173  23.344  0.00  0.00    -0.350 OA
ATOM     15  C   UNL     1      -2.534   1.019  24.084  0.00  0.00    +0.148 C 
BRANCH   8   6
ATOM      6  N   UNL     1      -1.203   1.187  24.684  0.00  0.00    -0.267 NA
ATOM      7  C   UNL     1      -0.782   0.487  24.802  0.00  0.00    +0.090 C 
BRANCH   6   5
ATOM      5  C   UNL     1      -1.086   1.829  25.188  0.00  0.00    +0.090 C 
BRANCH   5   4
ATOM      4  C   UNL     1      -0.519   1.786  25.787  0.00  0.00    +0.090 C 
BRANCH   4   2
ATOM      1  C   UNL     1       0.375   2.503  26.639  0.00  0.00    +0.090 C 
ATOM      2  N   UNL     1      -0.344   2.454  26.238  0.00  0.00    -0.269 NA
ATOM      3  C   UNL     1      -0.887   3.072  26.287  0.00  0.00    +0.090 C 
ENDBRANCH   4   2
ENDBRANCH   5   4
ENDBRANCH   6   5
ENDBRANCH   8   6
BRANCH  11  12
ATOM     12  C   UNL     1      -2.365   1.730  22.079  0.00  0.00    +0.214 C 
ATOM     13  O   UNL     1      -2.827   2.389  21.895  0.00  0.00    -0.218 OA
ENDBRANCH  11  12
ENDBRANCH  16  15
ENDBRANCH  17  16
BRANCH  17  18
ATOM     18  C   UNL     1      -4.147   0.061  25.128  0.00  0.00    +0.099 C 
BRANCH  18  19
ATOM     19  C   UNL     1      -4.005  -0.719  24.899  0.00  0.00    -0.006 A 
ATOM     20  C   UNL     1      -4.298  -0.998  24.179  0.00  0.00    -0.001 A 
ATOM     21  C   UNL     1      -4.156  -1.777  23.950  0.00  0.00    +0.029 A 
ATOM     22  C   UNL     1      -3.723  -2.280  24.440  0.00  0.00    +0.140 A 
ATOM     23  F   UNL     1      -3.581  -3.059  24.212  0.00  0.00    -0.204 F 
ATOM     24  C   UNL     1      -3.430  -2.001  25.160  0.00  0.00    +0.029 A 
ATOM     25  C   UNL     1      -3.572  -1.221  25.389  0.00  0.00    -0.001 A 
ENDBRANCH  18  19
ENDBRANCH  17  18
BRANCH  17  26
ATOM     26  C   UNL     1      -4.184   1.282  24.387  0.00  0.00    +0.099 C 
BRANCH  26  27
ATOM     27  C   UNL     1      -4.704   1.742  24.832  0.00  0.00    -0.006 A 
ATOM     28  C   UNL     1      -5.517   1.616  24.777  0.00  0.00    -0.001 A 
ATOM     29  C   UNL     1      -6.037   2.077  25.222  0.00  0.00    +0.029 A 
ATOM     30  C   UNL     1      -5.744   2.663  25.723  0.00  0.00    +0.140 A 
ATOM     31  F   UNL     1      -6.264   3.124  26.169  0.00  0.00    -0.204 F 
ATOM     32  C   UNL     1      -4.930   2.789  25.779  0.00  0.00    +0.029 A 
ATOM     33  C   UNL     1      -4.410   2.329  25.333  0.00  0.00    -0.001 A 
ENDBRANCH  26  27
ENDBRANCH  17  26
TORSDOF 11
ENDMDL
MODEL 5
REMARK VINA RESULT:     -10.0      1.342      4.225
REMARK  Name = 
REMARK  11 active torsions:
REMARK  status: ('A' for Active; 'I' for Inactive)
REMARK    1  A    between atoms: N_2  and  C_4
REMARK    2  A    between atoms: C_4  and  C_5
REMARK    3  A    between atoms: C_5  and  N_6
REMARK    4  A    between atoms: N_6  and  C_8
REMARK    5  A    between atoms: C_11  and  C_12
REMARK    6  A    between atoms: C_15  and  C_16
REMARK    7  A    between atoms: C_16  and  N_17
REMARK    8  A    between atoms: N_17  and  C_18
REMARK    9  A    between atoms: N_17  and  C_26
REMARK   10  A    between atoms: C_18  and  C_19
REMARK   11  A    between atoms: C_26  and  C_27
REMARK                            x       y       z     vdW  Elec       q    Type
REMARK                         _______ _______ _______ _____ _____    ______ ____
ROOT
ATOM     17  N   UNL     1      -2.133   2.164  24.921  0.00  0.00    -0.263 NA
ENDROOT
BRANCH  17  16
ATOM     16  C   UNL     1      -2.163   1.340  24.920  0.00  0.00    +0.104 C 
BRANCH  16  15
ATOM      8  C   UNL     1      -1.416   0.091  24.703  0.00  0.00    +0.120 C 
ATOM      9  C   UNL     1      -0.721  -0.110  24.309  0.00  0.00    +0.198 C 
ATOM     10  O   UNL     1      -0.395  -0.866  24.257  0.00  0.00    -0.219 OA
ATOM     11  C   UNL     1      -0.407   0.577  23.976  0.00  0.00    +0.180 C 
ATOM     14  O   UNL     1      -0.910   1.203  24.165  0.00  0.00    -0.350 OA
ATOM     15  C   UNL     1      -1.534   0.904  24.614  0.00  0.00    +0.148 C 
BRANCH   8   6
ATOM      6  N   UNL     1      -1.910  -0.426  25.115  0.00  0.00    -0.267 NA
ATOM      7  C   UNL     1      -1.831  -0.510  25.932  0.00  0.00    +0.090 C 
BRANCH   6   5
ATOM      5  C   UNL     1      -2.481  -0.860  24.708  0.00  0.00    +0.090 C 
BRANCH   5   4
ATOM      4  C   UNL     1      -3.020  -1.326  25.126  0.00  0.00    +0.090 C 
BRANCH   4   2
ATOM      1  C   UNL     1      -3.439  -2.643  24.764  0.00  0.00    +0.090 C 
ATOM      2  N   UNL     1      -3.536  -1.825  24.719  0.00  0.00    -0.269 NA
ATOM      3  C   UNL     1      -4.147  -1.506  24.267  0.00  0.00    +0.090 C 
ENDBRANCH   4   2
ENDBRANCH   5   4
ENDBRANCH   6   5
ENDBRANCH   8   6
BRANCH  11  12
ATOM     12  C   UNL     1       0.286   0.627  23.533  0.00  0.00    +0.214 C 
ATOM     13  O   UNL     1       0.869   1.175  23.739  0.00  0.00    -0.218 OA
ENDBRANCH  11  12
ENDBRANCH  16  15
ENDBRANCH  17  16
BRANCH  17  18
ATOM     18  C   UNL     1      -2.665   2.597  24.462  0.00  0.00    +0.099 C 
BRANCH  18  19
ATOM     19  C   UNL     1      -3.470   2.422  24.488  0.00  0.00    -0.006 A 
ATOM     20  C   UNL     1      -3.891   2.306  23.788  0.00  0.00    -0.001 A 
ATOM     21  C   UNL     1      -4.697   2.131  23.814  0.00  0.00    +0.029 A 
ATOM     22  C   UNL     1      -5.082   2.071  24.541  0.00  0.00    +0.140 A 
ATOM     23  F   UNL     1      -5.888   1.896  24.568  0.00  0.00    -0.204 F 
ATOM     24  C   UNL     1      -4.662   2.187  25.242  0.00  0.00    +0.029 A 
ATOM     25  C   UNL     1      -3.856   2.362  25.215  0.00  0.00    -0.001 A 
ENDBRANCH  18  19
ENDBRANCH  17  18
BRANCH  17  26
ATOM     26  C   UNL     1      -1.571   2.556  25.380  0.00  0.00    +0.099 C 
BRANCH  26  27
ATOM     27  C   UNL     1      -1.476   3.372  25.309  0.00  0.00    -0.006 A 
ATOM     28  C   UNL     1      -0.978   3.680  24.728  0.00  0.00    -0.001 A 
ATOM     29  C   UNL     1      -0.883   4.497  24.657  0.00  0.00    +0.029 A 
ATOM     30  C   UNL     1      -1.286   5.005  25.166  0.00  0.00    +0.140 A 
ATOM     31  F   UNL     1      -1.191   5.822  25.095  0.00  0.00    -0.204 F 
ATOM     32  C   UNL     1      -1.785   4.697  25.747  0.00  0.00    +0.029 A 
ATOM     33  C   UNL     1      -1.880   3.881  25.819  0.00  0.00    -0.001 A 
ENDBRANCH  26  27
ENDBRANCH  17  26
TORSDOF 11
ENDMDL
MODEL 6
REMARK VINA RESULT:     -10.0      1.341      3.929
REMARK  Name = 
REMARK  11 active torsions:
REMARK  status: ('A' for Active; 'I' for Inactive)
REMARK    1  A    between atoms: N_2  and  C_4
REMARK    2  A    between atoms: C_4  and  C_5
REMARK    3  A    between atoms: C_5  and  N_6
REMARK    4  A    between atoms: N_6  and  C_8
REMARK    5  A    between atoms: C_11  and  C_12
REMARK    6  A    between atoms: C_15  and  C_16
REMARK    7  A    between atoms: C_16  and  N_17
REMARK    8  A    between atoms: N_17  and  C_18
REMARK    9  A    between atoms: N_17  and  C_26
REMARK   10  A    between atoms: C_18  and  C_19
REMARK   11  A    between atoms: C_26  and  C_27
REMARK                            x       y       z     vdW  Elec       q    Type
REMARK                         _______ _______ _______ _____ _____    ______ ____
ROOT
ATOM     17  N   UNL     1      -2.130   2.159  24.917  0.00  0.00    -0.263 NA
ENDROOT
BRANCH  17  16
ATOM     16  C   UNL     1      -2.163   1.335  24.916  0.00  0.00    +0.104 C 
BRANCH  16  15
ATOM      8  C   UNL     1      -1.418   0.085  24.701  0.00  0.00    +0.120 C 
ATOM      9  C   UNL     1      -0.723  -0.118  24.306  0.00  0.00    +0.198 C 
ATOM     10  O   UNL     1      -0.398  -0.875  24.256  0.00  0.00    -0.219 OA
ATOM     11  C   UNL     1      -0.408   0.568  23.971  0.00  0.00    +0.180 C 
ATOM     14  O   UNL     1      -0.910   1.195  24.159  0.00  0.00    -0.350 OA
ATOM     15  C   UNL     1      -1.534   0.898  24.610  0.00  0.00    +0.148 C 
BRANCH   8   6
ATOM      6  N   UNL     1      -1.911  -0.431  25.114  0.00  0.00    -0.267 NA
ATOM      7  C   UNL     1      -1.831  -0.513  25.931  0.00  0.00    +0.090 C 
BRANCH   6   5
ATOM      5  C   UNL     1      -2.484  -0.865  24.709  0.00  0.00    +0.090 C 
BRANCH   5   4
ATOM      4  C   UNL     1      -3.021  -1.331  25.129  0.00  0.00    +0.090 C 
BRANCH   4   2
ATOM      1  C   UNL     1      -4.144  -1.517  24.265  0.00  0.00    +0.090 C 
ATOM      2  N   UNL     1      -3.534  -1.833  24.724  0.00  0.00    -0.269 NA
ATOM      3  C   UNL     1      -3.439  -2.650  24.776  0.00  0.00    +0.090 C 
ENDBRANCH   4   2
ENDBRANCH   5   4
ENDBRANCH   6   5
ENDBRANCH   8   6
BRANCH  11  12
ATOM     12  C   UNL     1       0.284   0.616  23.528  0.00  0.00    +0.214 C 
ATOM     13  O   UNL     1       0.869   1.162  23.732  0.00  0.00    -0.218 OA
ENDBRANCH  11  12
ENDBRANCH  16  15
ENDBRANCH  17  16
BRANCH  17  18
ATOM     18  C   UNL     1      -1.564   2.550  25.373  0.00  0.00    +0.099 C 
BRANCH  18  19
ATOM     19  C   UNL     1      -1.471   3.367  25.303  0.00  0.00    -0.006 A 
ATOM     20  C   UNL     1      -1.873   3.873  25.817  0.00  0.00    -0.001 A 
ATOM     21  C   UNL     1      -1.780   4.690  25.747  0.00  0.00    +0.029 A 
ATOM     22  C   UNL     1      -1.286   5.001  25.165  0.00  0.00    +0.140 A 
ATOM     23  F   UNL     1      -1.193   5.818  25.095  0.00  0.00    -0.204 F 
ATOM     24  C   UNL     1      -0.884   4.495  24.651  0.00  0.00    +0.029 A 
ATOM     25  C   UNL     1      -0.977   3.678  24.721  0.00  0.00    -0.001 A 
ENDBRANCH  18  19
ENDBRANCH  17  18
BRANCH  17  26
ATOM     26  C   UNL     1      -2.664   2.593  24.462  0.00  0.00    +0.099 C 
BRANCH  26  27
ATOM     27  C   UNL     1      -3.470   2.416  24.490  0.00  0.00    -0.006 A 
ATOM     28  C   UNL     1      -3.890   2.295  23.791  0.00  0.00    -0.001 A 
ATOM     29  C   UNL     1      -4.696   2.118  23.819  0.00  0.00    +0.029 A 
ATOM     30  C   UNL     1      -5.080   2.063  24.547  0.00  0.00    +0.140 A 
ATOM     31  F   UNL     1      -5.886   1.886  24.575  0.00  0.00    -0.204 F 
ATOM     32  C   UNL     1      -4.660   2.184  25.246  0.00  0.00    +0.029 A 
ATOM     33  C   UNL     1      -3.855   2.361  25.218  0.00  0.00    -0.001 A 
ENDBRANCH  26  27
ENDBRANCH  17  26
TORSDOF 11
ENDMDL
MODEL 7
REMARK VINA RESULT:      -9.7      2.108      3.952
REMARK  Name = 
REMARK  11 active torsions:
REMARK  status: ('A' for Active; 'I' for Inactive)
REMARK    1  A    between atoms: N_2  and  C_4
REMARK    2  A    between atoms: C_4  and  C_5
REMARK    3  A    between atoms: C_5  and  N_6
REMARK    4  A    between atoms: N_6  and  C_8
REMARK    5  A    between atoms: C_11  and  C_12
REMARK    6  A    between atoms: C_15  and  C_16
REMARK    7  A    between atoms: C_16  and  N_17
REMARK    8  A    between atoms: N_17  and  C_18
REMARK    9  A    between atoms: N_17  and  C_26
REMARK   10  A    between atoms: C_18  and  C_19
REMARK   11  A    between atoms: C_26  and  C_27
REMARK                            x       y       z     vdW  Elec       q    Type
REMARK                         _______ _______ _______ _____ _____    ______ ____
ROOT
ATOM     17  N   UNL     1      -3.269   0.507  24.683  0.00  0.00    -0.263 NA
ENDROOT
BRANCH  17  16
ATOM     16  C   UNL     1      -3.339   1.328  24.664  0.00  0.00    +0.104 C 
BRANCH  16  15
ATOM      8  C   UNL     1      -4.224   2.492  24.823  0.00  0.00    +0.120 C 
ATOM      9  C   UNL     1      -4.990   2.607  25.106  0.00  0.00    +0.198 C 
ATOM     10  O   UNL     1      -5.389   3.328  25.146  0.00  0.00    -0.219 OA
ATOM     11  C   UNL     1      -5.288   1.875  25.343  0.00  0.00    +0.180 C 
ATOM     14  O   UNL     1      -4.705   1.307  25.206  0.00  0.00    -0.350 OA
ATOM     15  C   UNL     1      -4.048   1.688  24.885  0.00  0.00    +0.148 C 
BRANCH   8   6
ATOM      6  N   UNL     1      -3.721   3.077  24.531  0.00  0.00    -0.267 NA
ATOM      7  C   UNL     1      -3.706   3.242  23.722  0.00  0.00    +0.090 C 
BRANCH   6   5
ATOM      5  C   UNL     1      -3.234   3.497  25.047  0.00  0.00    +0.090 C 
BRANCH   5   4
ATOM      4  C   UNL     1      -2.717   4.069  24.752  0.00  0.00    +0.090 C 
BRANCH   4   2
ATOM      1  C   UNL     1      -1.400   4.585  24.957  0.00  0.00    +0.090 C 
ATOM      2  N   UNL     1      -2.152   4.409  25.248  0.00  0.00    -0.269 NA
ATOM      3  C   UNL     1      -2.338   4.572  26.034  0.00  0.00    +0.090 C 
ENDBRANCH   4   2
ENDBRANCH   5   4
ENDBRANCH   6   5
ENDBRANCH   8   6
BRANCH  11  12
ATOM     12  C   UNL     1      -6.036   1.736  25.660  0.00  0.00    +0.214 C 
ATOM     13  O   UNL     1      -6.116   1.525  26.454  0.00  0.00    -0.218 OA
ENDBRANCH  11  12
ENDBRANCH  16  15
ENDBRANCH  17  16
BRANCH  17  18
ATOM     18  C   UNL     1      -3.872   0.035  24.375  0.00  0.00    +0.099 C 
BRANCH  18  19
ATOM     19  C   UNL     1      -3.837  -0.785  24.461  0.00  0.00    -0.006 A 
ATOM     20  C   UNL     1      -3.881  -1.272  23.795  0.00  0.00    -0.001 A 
ATOM     21  C   UNL     1      -3.846  -2.091  23.881  0.00  0.00    +0.029 A 
ATOM     22  C   UNL     1      -3.767  -2.425  24.631  0.00  0.00    +0.140 A 
ATOM     23  F   UNL     1      -3.732  -3.245  24.716  0.00  0.00    -0.204 F 
ATOM     24  C   UNL     1      -3.723  -1.939  25.296  0.00  0.00    +0.029 A 
ATOM     25  C   UNL     1      -3.758  -1.119  25.211  0.00  0.00    -0.001 A 
ENDBRANCH  18  19
ENDBRANCH  17  18
BRANCH  17  26
ATOM     26  C   UNL     1      -2.598   0.157  25.010  0.00  0.00    +0.099 C 
BRANCH  26  27
ATOM     27  C   UNL     1      -1.850   0.468  24.848  0.00  0.00    -0.006 A 
ATOM     28  C   UNL     1      -1.364   0.716  25.467  0.00  0.00    -0.001 A 
ATOM     29  C   UNL     1      -0.617   1.027  25.305  0.00  0.00    +0.029 A 
ATOM     30  C   UNL     1      -0.357   1.089  24.525  0.00  0.00    +0.140 A 
ATOM     31  F   UNL     1       0.391   1.400  24.363  0.00  0.00    -0.204 F 
ATOM     32  C   UNL     1      -0.842   0.841  23.906  0.00  0.00    +0.029 A 
ATOM     33  C   UNL     1      -1.590   0.530  24.068  0.00  0.00    -0.001 A 
ENDBRANCH  26  27
ENDBRANCH  17  26
TORSDOF 11
ENDMDL
MODEL 8
REMARK VINA RESULT:      -9.7      2.105      3.500
REMARK  Name = 
REMARK  11 active torsions:
REMARK  status: ('A' for Active; 'I' for Inactive)
REMARK    1  A    between atoms: N_2  and  C_4
REMARK    2  A    between atoms: C_4  and  C_5
REMARK    3  A    between atoms: C_5  and  N_6
REMARK    4  A    between atoms: N_6  and  C_8
REMARK    5  A    between atoms: C_11  and  C_12
REMARK    6  A    between atoms: C_15  and  C_16
REMARK    7  A    between atoms: C_16  and  N_17
REMARK    8  A    between atoms: N_17  and  C_18
REMARK    9  A    between atoms: N_17  and  C_26
REMARK   10  A    between atoms: C_18  and  C_19
REMARK   11  A    between atoms: C_26  and  C_27
REMARK                            x       y       z     vdW  Elec       q    Type
REMARK                         _______ _______ _______ _____ _____    ______ ____
ROOT
ATOM     17  N   UNL     1      -3.266   0.497  24.688  0.00  0.00    -0.263 NA
ENDROOT
BRANCH  17  16
ATOM     16  C   UNL     1      -3.332   1.319  24.668  0.00  0.00    +0.104 C 
BRANCH  16  15
ATOM      8  C   UNL     1      -4.215   2.486  24.819  0.00  0.00    +0.120 C 
ATOM      9  C   UNL     1      -4.980   2.605  25.101  0.00  0.00    +0.198 C 
ATOM     10  O   UNL     1      -5.377   3.327  25.135  0.00  0.00    -0.219 OA
ATOM     11  C   UNL     1      -5.280   1.875  25.343  0.00  0.00    +0.180 C 
ATOM     14  O   UNL     1      -4.699   1.305  25.210  0.00  0.00    -0.350 OA
ATOM     15  C   UNL     1      -4.040   1.682  24.886  0.00  0.00    +0.148 C 
BRANCH   8   6
ATOM      6  N   UNL     1      -3.711   3.067  24.521  0.00  0.00    -0.267 NA
ATOM      7  C   UNL     1      -3.697   3.227  23.712  0.00  0.00    +0.090 C 
BRANCH   6   5
ATOM      5  C   UNL     1      -3.221   3.489  25.034  0.00  0.00    +0.090 C 
BRANCH   5   4
ATOM      4  C   UNL     1      -2.709   4.064  24.735  0.00  0.00    +0.090 C 
BRANCH   4   2
ATOM      1  C   UNL     1      -1.386   4.563  24.940  0.00  0.00    +0.090 C 
ATOM      2  N   UNL     1      -2.144   4.408  25.228  0.00  0.00    -0.269 NA
ATOM      3  C   UNL     1      -2.336   4.597  26.007  0.00  0.00    +0.090 C 
ENDBRANCH   4   2
ENDBRANCH   5   4
ENDBRANCH   6   5
ENDBRANCH   8   6
BRANCH  11  12
ATOM     12  C   UNL     1      -6.028   1.740  25.661  0.00  0.00    +0.214 C 
ATOM     13  O   UNL     1      -6.106   1.500  26.447  0.00  0.00    -0.218 OA
ENDBRANCH  11  12
ENDBRANCH  16  15
ENDBRANCH  17  16
BRANCH  17  18
ATOM     18  C   UNL     1      -2.595   0.144  25.013  0.00  0.00    +0.099 C 
BRANCH  18  19
ATOM     19  C   UNL     1      -1.848   0.455  24.853  0.00  0.00    -0.006 A 
ATOM     20  C   UNL     1      -1.364   0.706  25.472  0.00  0.00    -0.001 A 
ATOM     21  C   UNL     1      -0.617   1.017  25.312  0.00  0.00    +0.029 A 
ATOM     22  C   UNL     1      -0.353   1.078  24.533  0.00  0.00    +0.140 A 
ATOM     23  F   UNL     1       0.394   1.389  24.373  0.00  0.00    -0.204 F 
ATOM     24  C   UNL     1      -0.837   0.826  23.913  0.00  0.00    +0.029 A 
ATOM     25  C   UNL     1      -1.584   0.515  24.073  0.00  0.00    -0.001 A 
ENDBRANCH  18  19
ENDBRANCH  17  18
BRANCH  17  26
ATOM     26  C   UNL     1      -3.873   0.028  24.384  0.00  0.00    +0.099 C 
BRANCH  26  27
ATOM     27  C   UNL     1      -3.838  -0.793  24.463  0.00  0.00    -0.006 A 
ATOM     28  C   UNL     1      -3.881  -1.274  23.794  0.00  0.00    -0.001 A 
ATOM     29  C   UNL     1      -3.847  -2.095  23.873  0.00  0.00    +0.029 A 
ATOM     30  C   UNL     1      -3.769  -2.434  24.621  0.00  0.00    +0.140 A 
ATOM     31  F   UNL     1      -3.735  -3.255  24.700  0.00  0.00    -0.204 F 
ATOM     32  C   UNL     1      -3.726  -1.954  25.290  0.00  0.00    +0.029 A 
ATOM     33  C   UNL     1      -3.761  -1.133  25.211  0.00  0.00    -0.001 A 
ENDBRANCH  26  27
ENDBRANCH  17  26
TORSDOF 11
ENDMDL
MODEL 9
REMARK VINA RESULT:      -9.4      1.487      2.795
REMARK  Name = 
REMARK  11 active torsions:
REMARK  status: ('A' for Active; 'I' for Inactive)
REMARK    1  A    between atoms: N_2  and  C_4
REMARK    2  A    between atoms: C_4  and  C_5
REMARK    3  A    between atoms: C_5  and  N_6
REMARK    4  A    between atoms: N_6  and  C_8
REMARK    5  A    between atoms: C_11  and  C_12
REMARK    6  A    between atoms: C_15  and  C_16
REMARK    7  A    between atoms: C_16  and  N_17
REMARK    8  A    between atoms: N_17  and  C_18
REMARK    9  A    between atoms: N_17  and  C_26
REMARK   10  A    between atoms: C_18  and  C_19
REMARK   11  A    between atoms: C_26  and  C_27
REMARK                            x       y       z     vdW  Elec       q    Type
REMARK                         _______ _______ _______ _____ _____    ______ ____
ROOT
ATOM     17  N   UNL     1      -3.575   1.099  24.796  0.00  0.00    -0.263 NA
ENDROOT
BRANCH  17  16
ATOM     16  C   UNL     1      -2.781   1.051  24.579  0.00  0.00    +0.104 C 
BRANCH  16  15
ATOM      8  C   UNL     1      -1.530   1.811  24.424  0.00  0.00    +0.120 C 
ATOM      9  C   UNL     1      -1.198   2.467  24.797  0.00  0.00    +0.198 C 
ATOM     10  O   UNL     1      -0.470   2.809  24.615  0.00  0.00    -0.219 OA
ATOM     11  C   UNL     1      -1.721   2.722  25.382  0.00  0.00    +0.180 C 
ATOM     14  O   UNL     1      -2.378   2.222  25.371  0.00  0.00    -0.350 OA
ATOM     15  C   UNL     1      -2.260   1.659  24.779  0.00  0.00    +0.148 C 
BRANCH   8   6
ATOM      6  N   UNL     1      -1.194   1.380  23.806  0.00  0.00    -0.267 NA
ATOM      7  C   UNL     1      -1.408   1.542  23.026  0.00  0.00    +0.090 C 
BRANCH   6   5
ATOM      5  C   UNL     1      -0.644   0.788  23.969  0.00  0.00    +0.090 C 
BRANCH   5   4
ATOM      4  C   UNL     1      -0.353   0.316  23.357  0.00  0.00    +0.090 C 
BRANCH   4   2
ATOM      1  C   UNL     1       0.072  -0.889  23.999  0.00  0.00    +0.090 C 
ATOM      2  N   UNL     1       0.235  -0.242  23.512  0.00  0.00    -0.269 NA
ATOM      3  C   UNL     1       0.984  -0.154  23.180  0.00  0.00    +0.090 C 
ENDBRANCH   4   2
ENDBRANCH   5   4
ENDBRANCH   6   5
ENDBRANCH   8   6
BRANCH  11  12
ATOM     12  C   UNL     1      -1.608   3.363  25.887  0.00  0.00    +0.214 C 
ATOM     13  O   UNL     1      -2.132   4.000  25.871  0.00  0.00    -0.218 OA
ENDBRANCH  11  12
ENDBRANCH  16  15
ENDBRANCH  17  16
BRANCH  17  18
ATOM     18  C   UNL     1      -4.039   1.727  24.530  0.00  0.00    +0.099 C 
BRANCH  18  19
ATOM     19  C   UNL     1      -4.786   1.854  24.855  0.00  0.00    -0.006 A 
ATOM     20  C   UNL     1      -5.462   1.640  24.432  0.00  0.00    -0.001 A 
ATOM     21  C   UNL     1      -6.209   1.766  24.756  0.00  0.00    +0.029 A 
ATOM     22  C   UNL     1      -6.283   2.107  25.504  0.00  0.00    +0.140 A 
ATOM     23  F   UNL     1      -7.031   2.233  25.829  0.00  0.00    -0.204 F 
ATOM     24  C   UNL     1      -5.607   2.321  25.927  0.00  0.00    +0.029 A 
ATOM     25  C   UNL     1      -4.860   2.194  25.603  0.00  0.00    -0.001 A 
ENDBRANCH  18  19
ENDBRANCH  17  18
BRANCH  17  26
ATOM     26  C   UNL     1      -3.905   0.519  25.280  0.00  0.00    +0.099 C 
BRANCH  26  27
ATOM     27  C   UNL     1      -3.769  -0.279  25.119  0.00  0.00    -0.006 A 
ATOM     28  C   UNL     1      -3.431  -0.764  25.695  0.00  0.00    -0.001 A 
ATOM     29  C   UNL     1      -3.294  -1.562  25.535  0.00  0.00    +0.029 A 
ATOM     30  C   UNL     1      -3.495  -1.875  24.799  0.00  0.00    +0.140 A 
ATOM     31  F   UNL     1      -3.359  -2.673  24.638  0.00  0.00    -0.204 F 
ATOM     32  C   UNL     1      -3.833  -1.390  24.223  0.00  0.00    +0.029 A 
ATOM     33  C   UNL     1      -3.970  -0.592  24.383  0.00  0.00    -0.001 A 
ENDBRANCH  26  27
ENDBRANCH  17  26
TORSDOF 11
ENDMDL
MODEL 10
REMARK VINA RESULT:      -9.4      1.991      3.446
REMARK  Name = 
REMARK  11 active torsions:
REMARK  status: ('A' for Active; 'I' for Inactive)
REMARK    1  A    between atoms: N_2  and  C_4
REMARK    2  A    between atoms: C_4  and  C_5
REMARK    3  A    between atoms: C_5  and  N_6
REMARK    4  A    between atoms: N_6  and  C_8
REMARK    5  A    between atoms: C_11  and  C_12
REMARK    6  A    between atoms: C_15  and  C_16
REMARK    7  A    between atoms: C_16  and  N_17
REMARK    8  A    between atoms: N_17  and  C_18
REMARK    9  A    between atoms: N_17  and  C_26
REMARK   10  A    between atoms: C_18  and  C_19
REMARK   11  A    between atoms: C_26  and  C_27
REMARK                            x       y       z     vdW  Elec       q    Type
REMARK                         _______ _______ _______ _____ _____    ______ ____
ROOT
ATOM     17  N   UNL     1      -2.220   0.741  24.781  0.00  0.00    -0.263 NA
ENDROOT
BRANCH  17  16
ATOM     16  C   UNL     1      -2.564   1.487  24.841  0.00  0.00    +0.104 C 
BRANCH  16  15
ATOM      8  C   UNL     1      -3.355   2.519  24.152  0.00  0.00    +0.120 C 
ATOM      9  C   UNL     1      -3.492   2.717  23.363  0.00  0.00    +0.198 C 
ATOM     10  O   UNL     1      -3.969   3.334  23.095  0.00  0.00    -0.219 OA
ATOM     11  C   UNL     1      -3.070   2.189  22.889  0.00  0.00    +0.180 C 
ATOM     14  O   UNL     1      -2.672   1.665  23.386  0.00  0.00    -0.350 OA
ATOM     15  C   UNL     1      -2.847   1.868  24.166  0.00  0.00    +0.148 C 
BRANCH   8   6
ATOM      6  N   UNL     1      -3.668   2.902  24.811  0.00  0.00    -0.267 NA
ATOM      7  C   UNL     1      -3.215   3.457  25.221  0.00  0.00    +0.090 C 
BRANCH   6   5
ATOM      5  C   UNL     1      -4.435   2.731  25.061  0.00  0.00    +0.090 C 
BRANCH   5   4
ATOM      4  C   UNL     1      -4.757   3.129  25.709  0.00  0.00    +0.090 C 
BRANCH   4   2
ATOM      1  C   UNL     1      -5.858   2.334  26.155  0.00  0.00    +0.090 C 
ATOM      2  N   UNL     1      -5.560   3.054  25.881  0.00  0.00    -0.269 NA
ATOM      3  C   UNL     1      -6.065   3.697  25.780  0.00  0.00    +0.090 C 
ENDBRANCH   4   2
ENDBRANCH   5   4
ENDBRANCH   6   5
ENDBRANCH   8   6
BRANCH  11  12
ATOM     12  C   UNL     1      -3.051   2.187  22.065  0.00  0.00    +0.214 C 
ATOM     13  O   UNL     1      -2.349   2.012  21.669  0.00  0.00    -0.218 OA
ENDBRANCH  11  12
ENDBRANCH  16  15
ENDBRANCH  17  16
BRANCH  17  18
ATOM     18  C   UNL     1      -1.513   0.578  25.174  0.00  0.00    +0.099 C 
BRANCH  18  19
ATOM     19  C   UNL     1      -0.806   0.907  24.904  0.00  0.00    -0.006 A 
ATOM     20  C   UNL     1      -0.425   0.584  24.247  0.00  0.00    -0.001 A 
ATOM     21  C   UNL     1       0.282   0.913  23.977  0.00  0.00    +0.029 A 
ATOM     22  C   UNL     1       0.608   1.565  24.363  0.00  0.00    +0.140 A 
ATOM     23  F   UNL     1       1.314   1.894  24.093  0.00  0.00    -0.204 F 
ATOM     24  C   UNL     1       0.226   1.888  25.020  0.00  0.00    +0.029 A 
ATOM     25  C   UNL     1      -0.480   1.559  25.290  0.00  0.00    -0.001 A 
ENDBRANCH  18  19
ENDBRANCH  17  18
BRANCH  17  26
ATOM     26  C   UNL     1      -2.583   0.155  24.326  0.00  0.00    +0.099 C 
BRANCH  26  27
ATOM     27  C   UNL     1      -2.862  -0.533  24.687  0.00  0.00    -0.006 A 
ATOM     28  C   UNL     1      -2.716  -1.268  24.341  0.00  0.00    -0.001 A 
ATOM     29  C   UNL     1      -2.995  -1.956  24.701  0.00  0.00    +0.029 A 
ATOM     30  C   UNL     1      -3.420  -1.908  25.406  0.00  0.00    +0.140 A 
ATOM     31  F   UNL     1      -3.699  -2.597  25.767  0.00  0.00    -0.204 F 
ATOM     32  C   UNL     1      -3.566  -1.174  25.752  0.00  0.00    +0.029 A 
ATOM     33  C   UNL     1      -3.287  -0.486  25.392  0.00  0.00    -0.001 A 
ENDBRANCH  26  27
ENDBRANCH  17  26
TORSDOF 11
ENDMDL
