REMARK  Name = 
REMARK  6 active torsions:
REMARK  status: ('A' for Active; 'I' for Inactive)
REMARK    1  A    between atoms: C_2  and  C_3
REMARK    2  A    between atoms: C_2  and  C_28
REMARK    3  A    between atoms: C_14  and  C_16
REMARK    4  A    between atoms: N_30  and  C_32
REMARK    5  A    between atoms: C_32  and  C_33
REMARK    6  A    between atoms: C_33  and  C_34
REMARK                            x       y       z     vdW  Elec       q    Type
REMARK                         _______ _______ _______ _____ _____    ______ ____
ROOT
ATOM      3  C   UNL     1       2.143  -1.238   0.000  0.00  0.00    +0.039 C 
ATOM      4  C   UNL     1       1.429  -1.650   0.000  0.00  0.00    +0.003 C 
ATOM      5  C   UNL     1       0.715  -1.238   0.000  0.00  0.00    +0.001 C 
ATOM      6  C   UNL     1       0.715  -0.412   0.000  0.00  0.00    +0.007 C 
ATOM      7  C   UNL     1       0.000  -0.825   0.000  0.00  0.00    +0.000 C 
ATOM      8  C   UNL     1       0.000   0.000   0.000  0.00  0.00    +0.034 C 
ATOM      9  C   UNL     1       0.000   0.825   0.000  0.00  0.00    +0.023 A 
ATOM     10  C   UNL     1       0.715   1.238   0.000  0.00  0.00    +0.063 A 
ATOM     11  N   UNL     1       0.543   2.045   0.000  0.00  0.00    -0.227 NA
ATOM     12  C   UNL     1      -0.278   2.131   0.000  0.00  0.00    +0.185 A 
ATOM     13  N   UNL     1      -0.690   2.845   0.000  0.00  0.00    -0.149 NA
ATOM     14  C   UNL     1      -1.515   2.845   0.000  0.00  0.00    +0.287 C 
ATOM     15  O   UNL     1      -1.927   2.131   0.000  0.00  0.00    -0.266 OA
ATOM     22  S   UNL     1      -0.613   1.377   0.000  0.00  0.00    -0.054 S 
ATOM     23  C   UNL     1       1.429   0.825   0.000  0.00  0.00    +0.043 C 
ATOM     24  C   UNL     1       2.143   1.238   0.000  0.00  0.00    +0.006 C 
ATOM     25  C   UNL     1       1.429   0.000   0.000  0.00  0.00    +0.036 C 
ATOM     26  C   UNL     1       2.143  -0.412   0.000  0.00  0.00    +0.153 C 
ATOM     27  O   UNL     1       2.858   0.000   0.000  0.00  0.00    -0.223 OA
ENDROOT
BRANCH  14  16
ATOM     16  C   UNL     1      -1.927   3.560   0.000  0.00  0.00    +0.116 A 
ATOM     17  C   UNL     1      -2.748   3.646   0.000  0.00  0.00    +0.023 A 
ATOM     18  C   UNL     1      -2.920   4.453   0.000  0.00  0.00    +0.020 A 
ATOM     19  C   UNL     1      -2.205   4.865   0.000  0.00  0.00    +0.076 A 
ATOM     20  N   UNL     1      -1.592   4.313   0.000  0.00  0.00    -0.320 N 
ATOM     21  C   UNL     1      -0.785   4.485   0.000  0.00  0.00    +0.131 C 
ENDBRANCH  14  16
BRANCH   3   2
ATOM      1  C   UNL     1       2.858  -2.475   0.000  0.00  0.00    +0.010 C 
ATOM      2  C   UNL     1       2.858  -1.650   0.000  0.00  0.00    +0.079 C 
BRANCH   2  28
ATOM     28  C   UNL     1       3.572  -1.238   0.000  0.00  0.00    +0.225 C 
ATOM     29  O   UNL     1       3.572  -0.412   0.000  0.00  0.00    -0.275 OA
ATOM     30  N   UNL     1       4.287  -1.650   0.000  0.00  0.00    -0.277 N 
ATOM     31  C   UNL     1       4.287  -2.475   0.000  0.00  0.00    +0.115 C 
BRANCH  30  32
ATOM     32  C   UNL     1       5.001  -1.238   0.000  0.00  0.00    +0.110 C 
BRANCH  32  33
ATOM     33  C   UNL     1       5.716  -1.650   0.000  0.00  0.00    +0.127 C 
BRANCH  33  34
ATOM     34  C   UNL     1       6.430  -1.238   0.000  0.00  0.00    +0.075 C 
ATOM     35  N   UNL     1       7.145  -0.825   0.000  0.00  0.00    -0.196 NA
ENDBRANCH  33  34
ENDBRANCH  32  33
ENDBRANCH  30  32
ENDBRANCH   2  28
ENDBRANCH   3   2
TORSDOF 6
