MODEL 1
REMARK VINA RESULT:      -8.9      0.000      0.000
REMARK  Name = 
REMARK  3 active torsions:
REMARK  status: ('A' for Active; 'I' for Inactive)
REMARK    1  A    between atoms: N_7  and  C_8
REMARK    2  A    between atoms: C_8  and  C_9
REMARK    3  A    between atoms: C_13  and  C_15
REMARK                            x       y       z     vdW  Elec       q    Type
REMARK                         _______ _______ _______ _____ _____    ______ ____
ROOT
ATOM      8  C   UNL     1      -4.015  -0.058  25.397  0.00  0.00    +0.099 C 
ENDROOT
BRANCH   8   7
ATOM      1  O   UNL     1      -5.769   1.989  24.728  0.00  0.00    -0.219 OA
ATOM      2  C   UNL     1      -4.970   1.787  24.691  0.00  0.00    +0.197 C 
ATOM      3  C   UNL     1      -4.474   2.348  24.346  0.00  0.00    +0.176 C 
ATOM      4  O   UNL     1      -3.658   2.310  24.228  0.00  0.00    -0.350 OA
ATOM      5  C   UNL     1      -3.137   1.702  24.427  0.00  0.00    +0.160 C 
ATOM      6  C   UNL     1      -3.303   0.981  24.792  0.00  0.00    +0.105 C 
ATOM      7  N   UNL     1      -4.031   0.691  25.049  0.00  0.00    -0.265 NA
ATOM     17  C   UNL     1      -4.773   1.049  25.004  0.00  0.00    +0.108 C 
ENDBRANCH   8   7
BRANCH   8   9
ATOM      9  C   UNL     1      -3.874  -0.725  24.933  0.00  0.00    -0.005 A 
ATOM     10  C   UNL     1      -4.452  -0.993  24.409  0.00  0.00    -0.003 A 
ATOM     11  C   UNL     1      -4.311  -1.661  23.946  0.00  0.00    +0.000 A 
ATOM     12  C   UNL     1      -3.591  -2.061  24.006  0.00  0.00    +0.010 A 
ATOM     13  C   UNL     1      -3.013  -1.792  24.530  0.00  0.00    +0.068 A 
ATOM     14  C   UNL     1      -3.155  -1.124  24.994  0.00  0.00    +0.007 A 
BRANCH  13  15
ATOM     15  C   UNL     1      -2.294  -2.192  24.591  0.00  0.00    +0.100 C 
ATOM     16  N   UNL     1      -1.575  -2.591  24.651  0.00  0.00    -0.191 NA
ENDBRANCH  13  15
ENDBRANCH   8   9
TORSDOF 3
ENDMDL
MODEL 2
REMARK VINA RESULT:      -8.6      1.182      1.826
REMARK  Name = 
REMARK  3 active torsions:
REMARK  status: ('A' for Active; 'I' for Inactive)
REMARK    1  A    between atoms: N_7  and  C_8
REMARK    2  A    between atoms: C_8  and  C_9
REMARK    3  A    between atoms: C_13  and  C_15
REMARK                            x       y       z     vdW  Elec       q    Type
REMARK                         _______ _______ _______ _____ _____    ______ ____
ROOT
ATOM      8  C   UNL     1      -3.968   1.080  24.226  0.00  0.00    +0.099 C 
ENDROOT
BRANCH   8   7
ATOM      1  O   UNL     1      -3.496   3.529  25.448  0.00  0.00    -0.219 OA
ATOM      2  C   UNL     1      -4.095   2.977  25.321  0.00  0.00    +0.197 C 
ATOM      3  C   UNL     1      -4.830   3.164  25.647  0.00  0.00    +0.176 C 
ATOM      4  O   UNL     1      -5.531   2.730  25.618  0.00  0.00    -0.350 OA
ATOM      5  C   UNL     1      -5.672   2.003  25.255  0.00  0.00    +0.160 C 
ATOM      6  C   UNL     1      -5.145   1.529  24.832  0.00  0.00    +0.105 C 
ATOM      7  N   UNL     1      -4.348   1.666  24.667  0.00  0.00    -0.265 NA
ATOM     17  C   UNL     1      -3.881   2.310  24.885  0.00  0.00    +0.108 C 
ENDBRANCH   8   7
BRANCH   8   9
ATOM      9  C   UNL     1      -3.739   0.375  24.588  0.00  0.00    -0.005 A 
ATOM     10  C   UNL     1      -4.272  -0.252  24.643  0.00  0.00    -0.003 A 
ATOM     11  C   UNL     1      -4.042  -0.957  25.005  0.00  0.00    +0.000 A 
ATOM     12  C   UNL     1      -3.279  -1.035  25.311  0.00  0.00    +0.010 A 
ATOM     13  C   UNL     1      -2.747  -0.407  25.255  0.00  0.00    +0.068 A 
ATOM     14  C   UNL     1      -2.977   0.298  24.893  0.00  0.00    +0.007 A 
BRANCH  13  15
ATOM     15  C   UNL     1      -1.984  -0.485  25.560  0.00  0.00    +0.100 C 
ATOM     16  N   UNL     1      -1.222  -0.562  25.866  0.00  0.00    -0.191 NA
ENDBRANCH  13  15
ENDBRANCH   8   9
TORSDOF 3
ENDMDL
MODEL 3
REMARK VINA RESULT:      -8.5      3.517      5.216
REMARK  Name = 
REMARK  3 active torsions:
REMARK  status: ('A' for Active; 'I' for Inactive)
REMARK    1  A    between atoms: N_7  and  C_8
REMARK    2  A    between atoms: C_8  and  C_9
REMARK    3  A    between atoms: C_13  and  C_15
REMARK                            x       y       z     vdW  Elec       q    Type
REMARK                         _______ _______ _______ _____ _____    ______ ____
ROOT
ATOM      8  C   UNL     1      -0.437   2.629  25.865  0.00  0.00    +0.099 C 
ENDROOT
BRANCH   8   7
ATOM      1  O   UNL     1      -1.388   0.032  25.619  0.00  0.00    -0.219 OA
ATOM      2  C   UNL     1      -0.901   0.579  25.240  0.00  0.00    +0.197 C 
ATOM      3  C   UNL     1      -0.546   0.318  24.541  0.00  0.00    +0.176 C 
ATOM      4  O   UNL     1      -0.035   0.729  24.040  0.00  0.00    -0.350 OA
ATOM      5  C   UNL     1       0.248   1.501  24.113  0.00  0.00    +0.160 C 
ATOM      6  C   UNL     1       0.089   2.053  24.706  0.00  0.00    +0.105 C 
ATOM      7  N   UNL     1      -0.391   1.969  25.371  0.00  0.00    -0.265 NA
ATOM     17  C   UNL     1      -0.832   1.313  25.609  0.00  0.00    +0.108 C 
ENDBRANCH   8   7
BRANCH   8   9
ATOM      9  C   UNL     1      -0.906   3.273  25.651  0.00  0.00    -0.005 A 
ATOM     10  C   UNL     1      -0.574   3.906  25.239  0.00  0.00    -0.003 A 
ATOM     11  C   UNL     1      -1.044   4.550  25.025  0.00  0.00    +0.000 A 
ATOM     12  C   UNL     1      -1.845   4.560  25.222  0.00  0.00    +0.010 A 
ATOM     13  C   UNL     1      -2.176   3.926  25.633  0.00  0.00    +0.068 A 
ATOM     14  C   UNL     1      -1.707   3.283  25.848  0.00  0.00    +0.007 A 
BRANCH  13  15
ATOM     15  C   UNL     1      -2.978   3.937  25.831  0.00  0.00    +0.100 C 
ATOM     16  N   UNL     1      -3.778   3.947  26.028  0.00  0.00    -0.191 NA
ENDBRANCH  13  15
ENDBRANCH   8   9
TORSDOF 3
ENDMDL
MODEL 4
REMARK VINA RESULT:      -8.4      2.791      3.990
REMARK  Name = 
REMARK  3 active torsions:
REMARK  status: ('A' for Active; 'I' for Inactive)
REMARK    1  A    between atoms: N_7  and  C_8
REMARK    2  A    between atoms: C_8  and  C_9
REMARK    3  A    between atoms: C_13  and  C_15
REMARK                            x       y       z     vdW  Elec       q    Type
REMARK                         _______ _______ _______ _____ _____    ______ ____
ROOT
ATOM      8  C   UNL     1      -3.449   3.212  24.380  0.00  0.00    +0.099 C 
ENDROOT
BRANCH   8   7
ATOM      1  O   UNL     1      -4.858   0.859  24.818  0.00  0.00    -0.219 OA
ATOM      2  C   UNL     1      -4.871   1.663  25.004  0.00  0.00    +0.197 C 
ATOM      3  C   UNL     1      -5.496   1.909  25.484  0.00  0.00    +0.176 C 
ATOM      4  O   UNL     1      -5.661   2.668  25.763  0.00  0.00    -0.350 OA
ATOM      5  C   UNL     1      -5.243   3.367  25.633  0.00  0.00    +0.160 C 
ATOM      6  C   UNL     1      -4.555   3.480  25.191  0.00  0.00    +0.105 C 
ATOM      7  N   UNL     1      -4.117   2.922  24.770  0.00  0.00    -0.265 NA
ATOM     17  C   UNL     1      -4.257   2.113  24.687  0.00  0.00    +0.108 C 
ENDBRANCH   8   7
BRANCH   8   9
ATOM      9  C   UNL     1      -2.773   3.407  24.810  0.00  0.00    -0.005 A 
ATOM     10  C   UNL     1      -2.662   4.180  25.076  0.00  0.00    -0.003 A 
ATOM     11  C   UNL     1      -1.985   4.375  25.506  0.00  0.00    +0.000 A 
ATOM     12  C   UNL     1      -1.419   3.796  25.669  0.00  0.00    +0.010 A 
ATOM     13  C   UNL     1      -1.531   3.024  25.402  0.00  0.00    +0.068 A 
ATOM     14  C   UNL     1      -2.208   2.829  24.973  0.00  0.00    +0.007 A 
BRANCH  13  15
ATOM     15  C   UNL     1      -0.965   2.445  25.565  0.00  0.00    +0.100 C 
ATOM     16  N   UNL     1      -0.399   1.868  25.728  0.00  0.00    -0.191 NA
ENDBRANCH  13  15
ENDBRANCH   8   9
TORSDOF 3
ENDMDL
MODEL 5
REMARK VINA RESULT:      -8.4      2.006      3.319
REMARK  Name = 
REMARK  3 active torsions:
REMARK  status: ('A' for Active; 'I' for Inactive)
REMARK    1  A    between atoms: N_7  and  C_8
REMARK    2  A    between atoms: C_8  and  C_9
REMARK    3  A    between atoms: C_13  and  C_15
REMARK                            x       y       z     vdW  Elec       q    Type
REMARK                         _______ _______ _______ _____ _____    ______ ____
ROOT
ATOM      8  C   UNL     1      -2.332  -0.859  25.554  0.00  0.00    +0.099 C 
ENDROOT
BRANCH   8   7
ATOM      1  O   UNL     1      -0.662   1.357  25.438  0.00  0.00    -0.219 OA
ATOM      2  C   UNL     1      -0.743   0.594  25.136  0.00  0.00    +0.197 C 
ATOM      3  C   UNL     1      -0.152   0.352  24.614  0.00  0.00    +0.176 C 
ATOM      4  O   UNL     1      -0.076  -0.371  24.223  0.00  0.00    -0.350 OA
ATOM      5  C   UNL     1      -0.571  -1.029  24.257  0.00  0.00    +0.160 C 
ATOM      6  C   UNL     1      -1.267  -1.128  24.691  0.00  0.00    +0.105 C 
ATOM      7  N   UNL     1      -1.636  -0.592  25.198  0.00  0.00    -0.265 NA
ATOM     17  C   UNL     1      -1.404   0.174  25.396  0.00  0.00    +0.108 C 
ENDBRANCH   8   7
BRANCH   8   9
ATOM      9  C   UNL     1      -3.048  -0.814  25.146  0.00  0.00    -0.005 A 
ATOM     10  C   UNL     1      -3.300  -1.451  24.686  0.00  0.00    -0.003 A 
ATOM     11  C   UNL     1      -4.016  -1.406  24.278  0.00  0.00    +0.000 A 
ATOM     12  C   UNL     1      -4.479  -0.725  24.331  0.00  0.00    +0.010 A 
ATOM     13  C   UNL     1      -4.226  -0.089  24.791  0.00  0.00    +0.068 A 
ATOM     14  C   UNL     1      -3.510  -0.134  25.199  0.00  0.00    +0.007 A 
BRANCH  13  15
ATOM     15  C   UNL     1      -4.689   0.592  24.844  0.00  0.00    +0.100 C 
ATOM     16  N   UNL     1      -5.152   1.272  24.897  0.00  0.00    -0.191 NA
ENDBRANCH  13  15
ENDBRANCH   8   9
TORSDOF 3
ENDMDL
MODEL 6
REMARK VINA RESULT:      -8.4      2.100      3.383
REMARK  Name = 
REMARK  3 active torsions:
REMARK  status: ('A' for Active; 'I' for Inactive)
REMARK    1  A    between atoms: N_7  and  C_8
REMARK    2  A    between atoms: C_8  and  C_9
REMARK    3  A    between atoms: C_13  and  C_15
REMARK                            x       y       z     vdW  Elec       q    Type
REMARK                         _______ _______ _______ _____ _____    ______ ____
ROOT
ATOM      8  C   UNL     1      -3.616   2.890  24.102  0.00  0.00    +0.099 C 
ENDROOT
BRANCH   8   7
ATOM      1  O   UNL     1      -0.862   2.651  24.369  0.00  0.00    -0.219 OA
ATOM      2  C   UNL     1      -1.509   3.044  24.695  0.00  0.00    +0.197 C 
ATOM      3  C   UNL     1      -1.340   3.557  25.319  0.00  0.00    +0.176 C 
ATOM      4  O   UNL     1      -1.862   4.025  25.755  0.00  0.00    -0.350 OA
ATOM      5  C   UNL     1      -2.679   4.096  25.676  0.00  0.00    +0.160 C 
ATOM      6  C   UNL     1      -3.179   3.716  25.140  0.00  0.00    +0.105 C 
ATOM      7  N   UNL     1      -2.984   3.172  24.552  0.00  0.00    -0.265 NA
ATOM     17  C   UNL     1      -2.241   2.873  24.353  0.00  0.00    +0.108 C 
ENDBRANCH   8   7
BRANCH   8   9
ATOM      9  C   UNL     1      -4.141   2.343  24.426  0.00  0.00    -0.005 A 
ATOM     10  C   UNL     1      -4.839   2.603  24.781  0.00  0.00    -0.003 A 
ATOM     11  C   UNL     1      -5.365   2.057  25.105  0.00  0.00    +0.000 A 
ATOM     12  C   UNL     1      -5.193   1.250  25.075  0.00  0.00    +0.010 A 
ATOM     13  C   UNL     1      -4.495   0.991  24.720  0.00  0.00    +0.068 A 
ATOM     14  C   UNL     1      -3.969   1.537  24.396  0.00  0.00    +0.007 A 
BRANCH  13  15
ATOM     15  C   UNL     1      -4.323   0.184  24.690  0.00  0.00    +0.100 C 
ATOM     16  N   UNL     1      -4.151  -0.622  24.660  0.00  0.00    -0.191 NA
ENDBRANCH  13  15
ENDBRANCH   8   9
TORSDOF 3
ENDMDL
MODEL 7
REMARK VINA RESULT:      -8.3      1.885      3.823
REMARK  Name = 
REMARK  3 active torsions:
REMARK  status: ('A' for Active; 'I' for Inactive)
REMARK    1  A    between atoms: N_7  and  C_8
REMARK    2  A    between atoms: C_8  and  C_9
REMARK    3  A    between atoms: C_13  and  C_15
REMARK                            x       y       z     vdW  Elec       q    Type
REMARK                         _______ _______ _______ _____ _____    ______ ____
ROOT
ATOM      8  C   UNL     1      -3.978   0.422  24.253  0.00  0.00    +0.099 C 
ENDROOT
BRANCH   8   7
ATOM      1  O   UNL     1      -1.273   0.143  24.817  0.00  0.00    -0.219 OA
ATOM      2  C   UNL     1      -2.010  -0.157  25.031  0.00  0.00    +0.197 C 
ATOM      3  C   UNL     1      -2.003  -0.746  25.609  0.00  0.00    +0.176 C 
ATOM      4  O   UNL     1      -2.642  -1.152  25.938  0.00  0.00    -0.350 OA
ATOM      5  C   UNL     1      -3.445  -1.069  25.771  0.00  0.00    +0.160 C 
ATOM      6  C   UNL     1      -3.809  -0.560  25.233  0.00  0.00    +0.105 C 
ATOM      7  N   UNL     1      -3.458  -0.008  24.730  0.00  0.00    -0.265 NA
ATOM     17  C   UNL     1      -2.658   0.172  24.640  0.00  0.00    +0.108 C 
ENDBRANCH   8   7
BRANCH   8   9
ATOM      9  C   UNL     1      -4.340   1.102  24.547  0.00  0.00    -0.005 A 
ATOM     10  C   UNL     1      -5.020   1.039  25.011  0.00  0.00    -0.003 A 
ATOM     11  C   UNL     1      -5.383   1.719  25.304  0.00  0.00    +0.000 A 
ATOM     12  C   UNL     1      -5.066   2.462  25.134  0.00  0.00    +0.010 A 
ATOM     13  C   UNL     1      -4.387   2.524  24.670  0.00  0.00    +0.068 A 
ATOM     14  C   UNL     1      -4.024   1.844  24.377  0.00  0.00    +0.007 A 
BRANCH  13  15
ATOM     15  C   UNL     1      -4.070   3.267  24.500  0.00  0.00    +0.100 C 
ATOM     16  N   UNL     1      -3.754   4.009  24.330  0.00  0.00    -0.191 NA
ENDBRANCH  13  15
ENDBRANCH   8   9
TORSDOF 3
ENDMDL
MODEL 8
REMARK VINA RESULT:      -8.3      2.144      2.898
REMARK  Name = 
REMARK  3 active torsions:
REMARK  status: ('A' for Active; 'I' for Inactive)
REMARK    1  A    between atoms: N_7  and  C_8
REMARK    2  A    between atoms: C_8  and  C_9
REMARK    3  A    between atoms: C_13  and  C_15
REMARK                            x       y       z     vdW  Elec       q    Type
REMARK                         _______ _______ _______ _____ _____    ______ ____
ROOT
ATOM      8  C   UNL     1      -2.297  -0.082  25.325  0.00  0.00    +0.099 C 
ENDROOT
BRANCH   8   7
ATOM      1  O   UNL     1       0.112  -0.715  24.095  0.00  0.00    -0.219 OA
ATOM      2  C   UNL     1      -0.415  -0.089  24.197  0.00  0.00    +0.197 C 
ATOM      3  C   UNL     1      -0.205   0.620  23.830  0.00  0.00    +0.176 C 
ATOM      4  O   UNL     1      -0.611   1.338  23.828  0.00  0.00    -0.350 OA
ATOM      5  C   UNL     1      -1.326   1.527  24.193  0.00  0.00    +0.160 C 
ATOM      6  C   UNL     1      -1.813   1.042  24.651  0.00  0.00    +0.105 C 
ATOM      7  N   UNL     1      -1.704   0.250  24.856  0.00  0.00    -0.265 NA
ATOM     17  C   UNL     1      -1.082  -0.253  24.654  0.00  0.00    +0.108 C 
ENDBRANCH   8   7
BRANCH   8   9
ATOM      9  C   UNL     1      -2.964  -0.415  24.972  0.00  0.00    -0.005 A 
ATOM     10  C   UNL     1      -3.592   0.067  24.741  0.00  0.00    -0.003 A 
ATOM     11  C   UNL     1      -4.260  -0.266  24.388  0.00  0.00    +0.000 A 
ATOM     12  C   UNL     1      -4.299  -1.082  24.266  0.00  0.00    +0.010 A 
ATOM     13  C   UNL     1      -3.670  -1.563  24.498  0.00  0.00    +0.068 A 
ATOM     14  C   UNL     1      -3.003  -1.230  24.850  0.00  0.00    +0.007 A 
BRANCH  13  15
ATOM     15  C   UNL     1      -3.709  -2.379  24.376  0.00  0.00    +0.100 C 
ATOM     16  N   UNL     1      -3.747  -3.193  24.254  0.00  0.00    -0.191 NA
ENDBRANCH  13  15
ENDBRANCH   8   9
TORSDOF 3
ENDMDL
