MODEL 1
REMARK VINA RESULT:     -11.5      0.000      0.000
REMARK  Name = 
REMARK  5 active torsions:
REMARK  status: ('A' for Active; 'I' for Inactive)
REMARK    1  A    between atoms: C_2  and  C_3
REMARK    2  A    between atoms: C_8  and  C_9
REMARK    3  A    between atoms: C_9  and  C_10
REMARK    4  A    between atoms: N_12  and  C_13
REMARK    5  A    between atoms: C_13  and  C_14
REMARK                            x       y       z     vdW  Elec       q    Type
REMARK                         _______ _______ _______ _____ _____    ______ ____
ROOT
ATOM      3  C   UNL     1      -2.881   2.172  23.949  0.00  0.00    +0.020 C 
ATOM      4  C   UNL     1      -2.569   2.840  24.318  0.00  0.00    +0.095 C 
ATOM      5  N   UNL     1      -2.979   3.201  24.934  0.00  0.00    -0.264 N 
ATOM      6  C   UNL     1      -3.703   2.894  25.184  0.00  0.00    +0.095 C 
ATOM      7  C   UNL     1      -4.016   2.225  24.816  0.00  0.00    +0.022 C 
ATOM      8  C   UNL     1      -3.605   1.864  24.199  0.00  0.00    +0.012 C 
ATOM     20  C   UNL     1      -2.666   3.871  25.303  0.00  0.00    +0.307 C 
ATOM     21  O   UNL     1      -3.077   4.232  25.920  0.00  0.00    -0.252 OA
ATOM     22  N   UNL     1      -1.943   4.178  25.053  0.00  0.00    -0.259 N 
ATOM     23  C   UNL     1      -1.532   3.817  24.436  0.00  0.00    +0.127 C 
ATOM     24  C   UNL     1      -0.808   4.125  24.186  0.00  0.00    +0.164 C 
ATOM     25  O   UNL     1      -0.496   4.794  24.555  0.00  0.00    -0.350 OA
ATOM     26  C   UNL     1      -0.906   5.154  25.171  0.00  0.00    +0.164 C 
ATOM     27  C   UNL     1      -1.630   4.847  25.421  0.00  0.00    +0.127 C 
ENDROOT
BRANCH   3   2
ATOM      1  C   UNL     1      -2.532   2.109  22.565  0.00  0.00    +0.000 C 
ATOM      2  C   UNL     1      -2.470   1.811  23.332  0.00  0.00    +0.002 C 
ENDBRANCH   3   2
BRANCH   8   9
ATOM      9  C   UNL     1      -3.917   1.195  23.831  0.00  0.00    +0.087 C 
BRANCH   9  10
ATOM     10  C   UNL     1      -4.254   0.594  24.285  0.00  0.00    +0.242 C 
ATOM     11  O   UNL     1      -4.899   0.757  24.772  0.00  0.00    -0.273 OA
ATOM     12  N   UNL     1      -3.946  -0.170  24.251  0.00  0.00    -0.201 NA
BRANCH  12  13
ATOM     13  C   UNL     1      -4.283  -0.771  24.706  0.00  0.00    +0.141 C 
BRANCH  13  14
ATOM     14  C   UNL     1      -3.975  -1.536  24.671  0.00  0.00    -0.001 A 
ATOM     15  C   UNL     1      -4.144  -2.020  24.024  0.00  0.00    -0.003 A 
ATOM     16  C   UNL     1      -3.836  -2.785  23.990  0.00  0.00    -0.000 A 
ATOM     17  C   UNL     1      -3.359  -3.065  24.602  0.00  0.00    -0.000 A 
ATOM     18  C   UNL     1      -3.190  -2.582  25.247  0.00  0.00    -0.000 A 
ATOM     19  C   UNL     1      -3.497  -1.817  25.283  0.00  0.00    -0.003 A 
ENDBRANCH  13  14
ENDBRANCH  12  13
ENDBRANCH   9  10
ENDBRANCH   8   9
TORSDOF 5
ENDMDL
MODEL 2
REMARK VINA RESULT:     -10.6      1.505      1.706
REMARK  Name = 
REMARK  5 active torsions:
REMARK  status: ('A' for Active; 'I' for Inactive)
REMARK    1  A    between atoms: C_2  and  C_3
REMARK    2  A    between atoms: C_8  and  C_9
REMARK    3  A    between atoms: C_9  and  C_10
REMARK    4  A    between atoms: N_12  and  C_13
REMARK    5  A    between atoms: C_13  and  C_14
REMARK                            x       y       z     vdW  Elec       q    Type
REMARK                         _______ _______ _______ _____ _____    ______ ____
ROOT
ATOM      3  C   UNL     1      -1.066   1.697  24.935  0.00  0.00    +0.020 C 
ATOM      4  C   UNL     1      -1.297   2.487  24.995  0.00  0.00    +0.095 C 
ATOM      5  N   UNL     1      -2.083   2.675  25.155  0.00  0.00    -0.264 N 
ATOM      6  C   UNL     1      -2.640   2.075  25.256  0.00  0.00    +0.095 C 
ATOM      7  C   UNL     1      -2.408   1.284  25.197  0.00  0.00    +0.022 C 
ATOM      8  C   UNL     1      -1.622   1.096  25.037  0.00  0.00    +0.012 C 
ATOM     20  C   UNL     1      -2.315   3.466  25.214  0.00  0.00    +0.307 C 
ATOM     21  O   UNL     1      -3.101   3.654  25.375  0.00  0.00    -0.252 OA
ATOM     22  N   UNL     1      -1.758   4.066  25.113  0.00  0.00    -0.259 N 
ATOM     23  C   UNL     1      -0.972   3.878  24.953  0.00  0.00    +0.127 C 
ATOM     24  C   UNL     1      -0.416   4.479  24.851  0.00  0.00    +0.164 C 
ATOM     25  O   UNL     1      -0.647   5.269  24.911  0.00  0.00    -0.350 OA
ATOM     26  C   UNL     1      -1.433   5.457  25.071  0.00  0.00    +0.164 C 
ATOM     27  C   UNL     1      -1.990   4.856  25.173  0.00  0.00    +0.127 C 
ENDROOT
BRANCH   3   2
ATOM      1  C   UNL     1       0.009   1.564  24.003  0.00  0.00    +0.000 C 
ATOM      2  C   UNL     1      -0.279   1.509  24.775  0.00  0.00    +0.002 C 
ENDBRANCH   3   2
BRANCH   8   9
ATOM      9  C   UNL     1      -1.391   0.306  24.977  0.00  0.00    +0.087 C 
BRANCH   9  10
ATOM     10  C   UNL     1      -1.846  -0.285  25.331  0.00  0.00    +0.242 C 
ATOM     11  O   UNL     1      -1.820  -0.392  26.147  0.00  0.00    -0.273 OA
ATOM     12  N   UNL     1      -2.328  -0.767  24.866  0.00  0.00    -0.201 NA
BRANCH  12  13
ATOM     13  C   UNL     1      -2.783  -1.357  25.219  0.00  0.00    +0.141 C 
BRANCH  13  14
ATOM     14  C   UNL     1      -3.266  -1.839  24.754  0.00  0.00    -0.001 A 
ATOM     15  C   UNL     1      -3.902  -1.511  24.342  0.00  0.00    -0.003 A 
ATOM     16  C   UNL     1      -4.384  -1.993  23.878  0.00  0.00    -0.000 A 
ATOM     17  C   UNL     1      -4.232  -2.802  23.825  0.00  0.00    -0.000 A 
ATOM     18  C   UNL     1      -3.597  -3.129  24.237  0.00  0.00    -0.000 A 
ATOM     19  C   UNL     1      -3.113  -2.648  24.702  0.00  0.00    -0.003 A 
ENDBRANCH  13  14
ENDBRANCH  12  13
ENDBRANCH   9  10
ENDBRANCH   8   9
TORSDOF 5
ENDMDL
MODEL 3
REMARK VINA RESULT:     -10.3      2.001      5.720
REMARK  Name = 
REMARK  5 active torsions:
REMARK  status: ('A' for Active; 'I' for Inactive)
REMARK    1  A    between atoms: C_2  and  C_3
REMARK    2  A    between atoms: C_8  and  C_9
REMARK    3  A    between atoms: C_9  and  C_10
REMARK    4  A    between atoms: N_12  and  C_13
REMARK    5  A    between atoms: C_13  and  C_14
REMARK                            x       y       z     vdW  Elec       q    Type
REMARK                         _______ _______ _______ _____ _____    ______ ____
ROOT
ATOM      3  C   UNL     1      -1.297  -0.167  24.780  0.00  0.00    +0.020 C 
ATOM      4  C   UNL     1      -1.957  -0.655  24.692  0.00  0.00    +0.095 C 
ATOM      5  N   UNL     1      -2.715  -0.335  24.732  0.00  0.00    -0.264 N 
ATOM      6  C   UNL     1      -2.816   0.473  24.862  0.00  0.00    +0.095 C 
ATOM      7  C   UNL     1      -2.157   0.962  24.951  0.00  0.00    +0.022 C 
ATOM      8  C   UNL     1      -1.398   0.642  24.910  0.00  0.00    +0.012 C 
ATOM     20  C   UNL     1      -3.375  -0.824  24.643  0.00  0.00    +0.307 C 
ATOM     21  O   UNL     1      -4.134  -0.504  24.684  0.00  0.00    -0.252 OA
ATOM     22  N   UNL     1      -3.273  -1.633  24.513  0.00  0.00    -0.259 N 
ATOM     23  C   UNL     1      -2.515  -1.952  24.473  0.00  0.00    +0.127 C 
ATOM     24  C   UNL     1      -2.414  -2.761  24.343  0.00  0.00    +0.164 C 
ATOM     25  O   UNL     1      -3.073  -3.249  24.254  0.00  0.00    -0.350 OA
ATOM     26  C   UNL     1      -3.832  -2.930  24.295  0.00  0.00    +0.164 C 
ATOM     27  C   UNL     1      -3.933  -2.121  24.424  0.00  0.00    +0.127 C 
ENDROOT
BRANCH   3   2
ATOM      1  C   UNL     1      -0.180  -0.607  24.006  0.00  0.00    +0.000 C 
ATOM      2  C   UNL     1      -0.538  -0.487  24.740  0.00  0.00    +0.002 C 
ENDBRANCH   3   2
BRANCH   8   9
ATOM      9  C   UNL     1      -0.739   1.130  24.999  0.00  0.00    +0.087 C 
BRANCH   9  10
ATOM     10  C   UNL     1      -0.771   1.776  25.513  0.00  0.00    +0.242 C 
ATOM     11  O   UNL     1      -0.713   1.658  26.326  0.00  0.00    -0.273 OA
ATOM     12  N   UNL     1      -0.859   2.538  25.211  0.00  0.00    -0.201 NA
BRANCH  12  13
ATOM     13  C   UNL     1      -0.891   3.183  25.724  0.00  0.00    +0.141 C 
BRANCH  13  14
ATOM     14  C   UNL     1      -1.054   3.937  25.430  0.00  0.00    -0.001 A 
ATOM     15  C   UNL     1      -1.779   4.296  25.595  0.00  0.00    -0.003 A 
ATOM     16  C   UNL     1      -1.942   5.049  25.300  0.00  0.00    -0.000 A 
ATOM     17  C   UNL     1      -1.381   5.443  24.841  0.00  0.00    -0.000 A 
ATOM     18  C   UNL     1      -0.658   5.084  24.676  0.00  0.00    -0.000 A 
ATOM     19  C   UNL     1      -0.493   4.331  24.970  0.00  0.00    -0.003 A 
ENDBRANCH  13  14
ENDBRANCH  12  13
ENDBRANCH   9  10
ENDBRANCH   8   9
TORSDOF 5
ENDMDL
MODEL 4
REMARK VINA RESULT:      -9.9      1.691      5.840
REMARK  Name = 
REMARK  5 active torsions:
REMARK  status: ('A' for Active; 'I' for Inactive)
REMARK    1  A    between atoms: C_2  and  C_3
REMARK    2  A    between atoms: C_8  and  C_9
REMARK    3  A    between atoms: C_9  and  C_10
REMARK    4  A    between atoms: N_12  and  C_13
REMARK    5  A    between atoms: C_13  and  C_14
REMARK                            x       y       z     vdW  Elec       q    Type
REMARK                         _______ _______ _______ _____ _____    ______ ____
ROOT
ATOM      3  C   UNL     1      -3.213   0.374  24.669  0.00  0.00    +0.020 C 
ATOM      4  C   UNL     1      -3.159  -0.445  24.589  0.00  0.00    +0.095 C 
ATOM      5  N   UNL     1      -2.467  -0.836  24.805  0.00  0.00    -0.264 N 
ATOM      6  C   UNL     1      -1.827  -0.409  25.102  0.00  0.00    +0.095 C 
ATOM      7  C   UNL     1      -1.880   0.411  25.183  0.00  0.00    +0.022 C 
ATOM      8  C   UNL     1      -2.573   0.802  24.967  0.00  0.00    +0.012 C 
ATOM     20  C   UNL     1      -2.414  -1.656  24.724  0.00  0.00    +0.307 C 
ATOM     21  O   UNL     1      -1.721  -2.048  24.941  0.00  0.00    -0.252 OA
ATOM     22  N   UNL     1      -3.054  -2.083  24.427  0.00  0.00    -0.259 N 
ATOM     23  C   UNL     1      -3.746  -1.692  24.211  0.00  0.00    +0.127 C 
ATOM     24  C   UNL     1      -4.386  -2.120  23.913  0.00  0.00    +0.164 C 
ATOM     25  O   UNL     1      -4.333  -2.939  23.833  0.00  0.00    -0.350 OA
ATOM     26  C   UNL     1      -3.640  -3.330  24.049  0.00  0.00    +0.164 C 
ATOM     27  C   UNL     1      -3.000  -2.903  24.346  0.00  0.00    +0.127 C 
ENDROOT
BRANCH   3   2
ATOM      1  C   UNL     1      -4.555   0.768  24.962  0.00  0.00    +0.000 C 
ATOM      2  C   UNL     1      -3.906   0.766  24.452  0.00  0.00    +0.002 C 
ENDBRANCH   3   2
BRANCH   8   9
ATOM      9  C   UNL     1      -2.626   1.621  25.047  0.00  0.00    +0.087 C 
BRANCH   9  10
ATOM     10  C   UNL     1      -1.963   2.057  25.275  0.00  0.00    +0.242 C 
ATOM     11  O   UNL     1      -1.367   1.700  25.717  0.00  0.00    -0.273 OA
ATOM     12  N   UNL     1      -1.899   2.851  25.060  0.00  0.00    -0.201 NA
BRANCH  12  13
ATOM     13  C   UNL     1      -1.236   3.286  25.288  0.00  0.00    +0.141 C 
BRANCH  13  14
ATOM     14  C   UNL     1      -1.206   4.099  25.142  0.00  0.00    -0.001 A 
ATOM     15  C   UNL     1      -0.553   4.425  24.757  0.00  0.00    -0.003 A 
ATOM     16  C   UNL     1      -0.524   5.237  24.612  0.00  0.00    -0.000 A 
ATOM     17  C   UNL     1      -1.147   5.722  24.851  0.00  0.00    -0.000 A 
ATOM     18  C   UNL     1      -1.799   5.395  25.235  0.00  0.00    -0.000 A 
ATOM     19  C   UNL     1      -1.830   4.584  25.381  0.00  0.00    -0.003 A 
ENDBRANCH  13  14
ENDBRANCH  12  13
ENDBRANCH   9  10
ENDBRANCH   8   9
TORSDOF 5
ENDMDL
