MODEL 1
REMARK VINA RESULT:     -10.2      0.000      0.000
REMARK  Name = 
REMARK  7 active torsions:
REMARK  status: ('A' for Active; 'I' for Inactive)
REMARK    1  A    between atoms: O_2  and  C_3
REMARK    2  A    between atoms: C_6  and  C_11
REMARK    3  A    between atoms: C_8  and  O_9
REMARK    4  A    between atoms: C_15  and  C_17
REMARK    5  A    between atoms: C_24  and  C_25
REMARK    6  A    between atoms: C_25  and  N_26
REMARK    7  A    between atoms: C_27  and  C_29
REMARK                            x       y       z     vdW  Elec       q    Type
REMARK                         _______ _______ _______ _____ _____    ______ ____
ROOT
ATOM     17  C   UNL     1      -0.443   0.891  23.957  0.00  0.00    +0.056 C 
ATOM     18  C   UNL     1      -0.008   1.386  23.543  0.00  0.00    +0.078 C 
ATOM     19  N   UNL     1       0.091   0.567  23.586  0.00  0.00    -0.272 NA
ATOM     20  C   UNL     1      -0.655   0.198  24.224  0.00  0.00    +0.072 C 
ATOM     21  C   UNL     1      -0.947  -0.302  24.526  0.00  0.00    +0.018 C 
ATOM     22  C   UNL     1      -0.341   0.089  23.994  0.00  0.00    +0.010 C 
ATOM     23  C   UNL     1       0.242  -0.447  23.615  0.00  0.00    +0.018 C 
ATOM     24  C   UNL     1       0.694   0.004  23.196  0.00  0.00    +0.079 C 
ENDROOT
BRANCH  17  15
ATOM     11  C   UNL     1      -2.285   1.594  24.779  0.00  0.00    +0.102 A 
ATOM     12  N   UNL     1      -1.752   1.817  25.368  0.00  0.00    -0.170 NA
ATOM     13  N   UNL     1      -0.998   1.581  25.132  0.00  0.00    -0.253 N 
ATOM     14  C   UNL     1      -0.299   1.694  25.556  0.00  0.00    +0.153 C 
ATOM     15  C   UNL     1      -1.065   1.212  24.397  0.00  0.00    +0.058 A 
ATOM     16  C   UNL     1      -1.860   1.220  24.178  0.00  0.00    +0.035 A 
BRANCH  11   6
ATOM      3  C   UNL     1      -4.730   1.979  24.807  0.00  0.00    +0.172 A 
ATOM      4  C   UNL     1      -4.429   1.229  24.973  0.00  0.00    +0.040 A 
ATOM      5  C   UNL     1      -3.614   1.101  24.963  0.00  0.00    +0.005 A 
ATOM      6  C   UNL     1      -3.100   1.722  24.789  0.00  0.00    +0.023 A 
ATOM      7  C   UNL     1      -3.401   2.472  24.623  0.00  0.00    +0.042 A 
ATOM      8  C   UNL     1      -4.217   2.601  24.633  0.00  0.00    +0.172 A 
BRANCH   3   2
ATOM      1  C   UNL     1      -6.052   1.514  25.082  0.00  0.00    +0.253 C 
ATOM      2  O   UNL     1      -5.545   2.108  24.817  0.00  0.00    -0.468 OA
ENDBRANCH   3   2
BRANCH   8   9
ATOM      9  O   UNL     1      -4.518   3.351  24.467  0.00  0.00    -0.468 OA
ATOM     10  C   UNL     1      -4.004   3.986  24.357  0.00  0.00    +0.253 C 
ENDBRANCH   8   9
ENDBRANCH  11   6
ENDBRANCH  17  15
BRANCH  24  25
ATOM     25  C   UNL     1       1.343  -0.011  22.689  0.00  0.00    +0.131 C 
BRANCH  25  26
ATOM     26  N   UNL     1       2.106   0.080  22.991  0.00  0.00    -0.198 NA
ATOM     27  C   UNL     1       2.752   0.100  22.479  0.00  0.00    +0.300 C 
ATOM     28  O   UNL     1       2.637   0.029  21.666  0.00  0.00    -0.265 OA
BRANCH  27  29
ATOM     29  C   UNL     1       3.514   0.190  22.782  0.00  0.00    +0.200 A 
ATOM     30  C   UNL     1       3.961   0.884  22.773  0.00  0.00    +0.046 A 
ATOM     31  C   UNL     1       4.686   0.725  23.132  0.00  0.00    +0.044 A 
ATOM     32  C   UNL     1       4.688  -0.067  23.363  0.00  0.00    +0.180 A 
ATOM     33  O   UNL     1       3.964  -0.397  23.147  0.00  0.00    -0.446 OA
ENDBRANCH  27  29
ENDBRANCH  25  26
ENDBRANCH  24  25
TORSDOF 7
ENDMDL
