REMARK  Name = 
REMARK  9 active torsions:
REMARK  status: ('A' for Active; 'I' for Inactive)
REMARK    1  A    between atoms: O_2  and  C_3
REMARK    2  A    between atoms: C_3  and  C_5
REMARK    3  A    between atoms: C_5  and  N_6
REMARK    4  A    between atoms: C_5  and  C_34
REMARK    5  A    between atoms: C_7  and  C_9
REMARK    6  A    between atoms: C_10  and  N_22
REMARK    7  A    between atoms: C_14  and  C_16
REMARK    8  A    between atoms: N_25  and  C_26
REMARK    9  A    between atoms: C_30  and  O_31
REMARK                            x       y       z     vdW  Elec       q    Type
REMARK                         _______ _______ _______ _____ _____    ______ ____
ROOT
ATOM      9  C   UNL     1       9.268   2.029   0.000  0.00  0.00    +0.174 C 
ATOM     10  C   UNL     1      10.021   1.693   0.000  0.00  0.00    +0.126 C 
ATOM     11  C   UNL     1      10.573   2.306   0.000  0.00  0.00    +0.045 C 
ATOM     12  C   UNL     1      10.161   3.021   0.000  0.00  0.00    +0.096 C 
ATOM     13  N   UNL     1       9.354   2.849   0.000  0.00  0.00    -0.267 N 
ATOM     14  C   UNL     1       8.741   3.401   0.000  0.00  0.00    +0.269 C 
ATOM     15  O   UNL     1       7.956   3.146   0.000  0.00  0.00    -0.268 OA
ENDROOT
BRANCH  14  16
ATOM     16  C   UNL     1       8.912   4.208   0.000  0.00  0.00    +0.154 A 
ATOM     17  C   UNL     1       9.697   4.463   0.000  0.00  0.00    +0.123 A 
ATOM     18  N   UNL     1       9.869   5.270   0.000  0.00  0.00    -0.239 NA
ATOM     19  C   UNL     1       9.255   5.822   0.000  0.00  0.00    +0.120 A 
ATOM     20  C   UNL     1       8.471   5.567   0.000  0.00  0.00    +0.120 A 
ATOM     21  N   UNL     1       8.299   4.760   0.000  0.00  0.00    -0.236 NA
ENDBRANCH  14  16
BRANCH  10  22
ATOM     22  N   UNL     1      10.193   0.886   0.000  0.00  0.00    -0.186 NA
ATOM     23  C   UNL     1      10.978   0.631   0.000  0.00  0.00    +0.344 C 
ATOM     24  O   UNL     1      11.591   1.183   0.000  0.00  0.00    -0.249 OA
ATOM     25  N   UNL     1      11.149  -0.176   0.000  0.00  0.00    -0.161 NA
BRANCH  25  26
ATOM     26  C   UNL     1      10.536  -0.728   0.000  0.00  0.00    +0.078 A 
ATOM     27  C   UNL     1      10.707  -1.535   0.000  0.00  0.00    +0.017 A 
ATOM     28  C   UNL     1      10.094  -2.087   0.000  0.00  0.00    +0.004 A 
ATOM     29  C   UNL     1       9.310  -1.832   0.000  0.00  0.00    +0.037 A 
ATOM     30  C   UNL     1       9.138  -1.025   0.000  0.00  0.00    +0.140 A 
ATOM     33  C   UNL     1       9.751  -0.473   0.000  0.00  0.00    +0.054 A 
BRANCH  30  31
ATOM     31  O   UNL     1       8.354  -0.770   0.000  0.00  0.00    -0.471 OA
ATOM     32  C   UNL     1       7.741  -1.322   0.000  0.00  0.00    +0.252 C 
ENDBRANCH  30  31
ENDBRANCH  25  26
ENDBRANCH  10  22
BRANCH   9   7
ATOM      6  N   UNL     1       7.839   2.029   0.000  0.00  0.00    -0.194 NA
ATOM      7  C   UNL     1       8.553   1.616   0.000  0.00  0.00    +0.262 C 
ATOM      8  O   UNL     1       8.553   0.791   0.000  0.00  0.00    -0.271 OA
BRANCH   6   5
ATOM      5  C   UNL     1       7.124   1.616   0.000  0.00  0.00    +0.193 C 
BRANCH   5  34
ATOM     34  C   UNL     1       7.124   0.791   0.000  0.00  0.00    +0.031 C 
ATOM     35  C   UNL     1       7.839   0.379   0.000  0.00  0.00    +0.002 C 
ATOM     36  C   UNL     1       6.410   0.379   0.000  0.00  0.00    +0.002 C 
ENDBRANCH   5  34
BRANCH   5   3
ATOM      3  C   UNL     1       6.410   2.029   0.000  0.00  0.00    +0.337 C 
ATOM      4  O   UNL     1       6.410   2.854   0.000  0.00  0.00    -0.248 OA
BRANCH   3   2
ATOM      1  C   UNL     1       4.981   2.029   0.000  0.00  0.00    +0.256 C 
ATOM      2  O   UNL     1       5.695   1.616   0.000  0.00  0.00    -0.443 OA
ENDBRANCH   3   2
ENDBRANCH   5   3
ENDBRANCH   6   5
ENDBRANCH   9   7
TORSDOF 9
