MODEL 1
REMARK VINA RESULT:     -15.2      0.000      0.000
REMARK  Name = 
REMARK  5 active torsions:
REMARK  status: ('A' for Active; 'I' for Inactive)
REMARK    1  A    between atoms: C_5  and  C_8
REMARK    2  A    between atoms: C_19  and  N_20
REMARK    3  A    between atoms: C_21  and  C_23
REMARK    4  A    between atoms: C_23  and  O_24
REMARK    5  A    between atoms: O_24  and  C_25
REMARK                            x       y       z     vdW  Elec       q    Type
REMARK                         _______ _______ _______ _____ _____    ______ ____
ROOT
ATOM      8  C   UNL     1      -2.641   3.982  25.564  0.00  0.00    +0.249 C 
ATOM      9  O   UNL     1      -2.840   4.562  26.115  0.00  0.00    -0.270 OA
ATOM     10  N   UNL     1      -1.851   3.869  25.352  0.00  0.00    -0.276 N 
ATOM     11  C   UNL     1      -1.024   3.982  25.340  0.00  0.00    +0.096 C 
ATOM     12  C   UNL     1      -0.771   3.291  24.681  0.00  0.00    +0.043 C 
ATOM     13  C   UNL     1      -0.405   2.777  24.166  0.00  0.00    +0.011 C 
ATOM     14  C   UNL     1      -1.058   2.917  24.383  0.00  0.00    +0.058 C 
ATOM     15  C   UNL     1      -1.286   3.589  25.022  0.00  0.00    +0.099 C 
ATOM     16  C   UNL     1      -1.929   2.651  24.264  0.00  0.00    +0.041 A 
ATOM     17  C   UNL     1      -2.381   2.109  23.837  0.00  0.00    +0.014 A 
ATOM     18  C   UNL     1      -3.200   2.089  23.932  0.00  0.00    +0.023 A 
ATOM     19  C   UNL     1      -3.568   2.611  24.455  0.00  0.00    +0.129 A 
ATOM     31  C   UNL     1      -3.116   3.153  24.882  0.00  0.00    +0.276 A 
ATOM     32  O   UNL     1      -3.692   3.550  25.319  0.00  0.00    -0.266 OA
ATOM     33  N   UNL     1      -2.297   3.173  24.786  0.00  0.00    -0.298 N 
ATOM     34  C   UNL     1      -1.685   3.020  24.563  0.00  0.00    +0.110 C 
ENDROOT
BRANCH   8   5
ATOM      1  F   UNL     1      -5.222   1.901  24.124  0.00  0.00    -0.204 F 
ATOM      2  C   UNL     1      -4.650   2.463  24.321  0.00  0.00    +0.140 A 
ATOM      3  C   UNL     1      -4.216   3.214  24.075  0.00  0.00    +0.030 A 
ATOM      4  C   UNL     1      -3.546   3.720  24.491  0.00  0.00    +0.007 A 
ATOM      5  C   UNL     1      -3.231   3.515  25.224  0.00  0.00    +0.054 A 
ATOM      6  C   UNL     1      -3.504   2.845  25.619  0.00  0.00    +0.007 A 
ATOM      7  C   UNL     1      -4.094   2.378  25.279  0.00  0.00    +0.030 A 
ENDBRANCH   8   5
BRANCH  19  20
ATOM     20  N   UNL     1      -4.387   2.590  24.549  0.00  0.00    -0.171 NA
ATOM     21  C   UNL     1      -4.771   1.870  24.667  0.00  0.00    +0.290 C 
ATOM     22  O   UNL     1      -5.591   1.850  24.761  0.00  0.00    -0.269 OA
BRANCH  21  23
ATOM     23  C   UNL     1      -4.335   1.169  24.689  0.00  0.00    +0.291 C 
BRANCH  23  24
ATOM     24  O   UNL     1      -4.709   0.458  24.880  0.00  0.00    -0.466 OA
BRANCH  24  25
ATOM     25  C   UNL     1      -4.284  -0.249  24.857  0.00  0.00    +0.139 A 
ATOM     26  C   UNL     1      -3.872  -0.504  25.525  0.00  0.00    +0.037 A 
ATOM     27  C   UNL     1      -3.447  -1.211  25.502  0.00  0.00    +0.003 A 
ATOM     28  C   UNL     1      -3.436  -1.663  24.813  0.00  0.00    +0.000 A 
ATOM     29  C   UNL     1      -3.848  -1.408  24.145  0.00  0.00    +0.003 A 
ATOM     30  C   UNL     1      -4.273  -0.701  24.168  0.00  0.00    +0.037 A 
ENDBRANCH  24  25
ENDBRANCH  23  24
ENDBRANCH  21  23
ENDBRANCH  19  20
TORSDOF 5
ENDMDL
MODEL 2
REMARK VINA RESULT:     -14.6      1.536      2.611
REMARK  Name = 
REMARK  5 active torsions:
REMARK  status: ('A' for Active; 'I' for Inactive)
REMARK    1  A    between atoms: C_5  and  C_8
REMARK    2  A    between atoms: C_19  and  N_20
REMARK    3  A    between atoms: C_21  and  C_23
REMARK    4  A    between atoms: C_23  and  O_24
REMARK    5  A    between atoms: O_24  and  C_25
REMARK                            x       y       z     vdW  Elec       q    Type
REMARK                         _______ _______ _______ _____ _____    ______ ____
ROOT
ATOM      8  C   UNL     1      -3.257   3.496  25.431  0.00  0.00    +0.249 C 
ATOM      9  O   UNL     1      -2.765   4.093  25.718  0.00  0.00    -0.270 OA
ATOM     10  N   UNL     1      -4.061   3.499  25.616  0.00  0.00    -0.276 N 
ATOM     11  C   UNL     1      -4.782   3.753  25.953  0.00  0.00    +0.096 C 
ATOM     12  C   UNL     1      -5.382   3.045  25.615  0.00  0.00    +0.043 C 
ATOM     13  C   UNL     1      -5.996   2.546  25.421  0.00  0.00    +0.011 C 
ATOM     14  C   UNL     1      -5.307   2.594  25.295  0.00  0.00    +0.058 C 
ATOM     15  C   UNL     1      -4.740   3.286  25.629  0.00  0.00    +0.099 C 
ATOM     16  C   UNL     1      -4.624   2.167  24.853  0.00  0.00    +0.041 A 
ATOM     17  C   UNL     1      -4.481   1.508  24.378  0.00  0.00    +0.014 A 
ATOM     18  C   UNL     1      -3.719   1.356  24.101  0.00  0.00    +0.023 A 
ATOM     19  C   UNL     1      -3.099   1.863  24.300  0.00  0.00    +0.129 A 
ATOM     31  C   UNL     1      -3.242   2.523  24.774  0.00  0.00    +0.276 A 
ATOM     32  O   UNL     1      -2.491   2.860  24.829  0.00  0.00    -0.266 OA
ATOM     33  N   UNL     1      -4.004   2.674  25.051  0.00  0.00    -0.298 N 
ATOM     34  C   UNL     1      -4.662   2.606  25.155  0.00  0.00    +0.110 C 
ENDROOT
BRANCH   8   5
ATOM      1  F   UNL     1      -1.871   0.842  23.406  0.00  0.00    -0.204 F 
ATOM      2  C   UNL     1      -2.230   1.511  23.729  0.00  0.00    +0.140 A 
ATOM      3  C   UNL     1      -2.669   2.282  23.569  0.00  0.00    +0.030 A 
ATOM      4  C   UNL     1      -3.011   2.943  24.137  0.00  0.00    +0.007 A 
ATOM      5  C   UNL     1      -2.944   2.897  24.957  0.00  0.00    +0.054 A 
ATOM      6  C   UNL     1      -2.566   2.252  25.305  0.00  0.00    +0.007 A 
ATOM      7  C   UNL     1      -2.254   1.652  24.831  0.00  0.00    +0.030 A 
ENDBRANCH   8   5
BRANCH  19  20
ATOM     20  N   UNL     1      -2.338   1.711  24.023  0.00  0.00    -0.171 NA
ATOM     21  C   UNL     1      -2.022   0.951  24.080  0.00  0.00    +0.290 C 
ATOM     22  O   UNL     1      -1.259   0.798  23.802  0.00  0.00    -0.269 OA
BRANCH  21  23
ATOM     23  C   UNL     1      -2.469   0.343  24.414  0.00  0.00    +0.291 C 
BRANCH  23  24
ATOM     24  O   UNL     1      -2.119  -0.389  24.567  0.00  0.00    -0.466 OA
BRANCH  24  25
ATOM     25  C   UNL     1      -2.583  -1.021  24.825  0.00  0.00    +0.139 A 
ATOM     26  C   UNL     1      -2.876  -1.567  24.281  0.00  0.00    +0.037 A 
ATOM     27  C   UNL     1      -3.339  -2.199  24.539  0.00  0.00    +0.003 A 
ATOM     28  C   UNL     1      -3.509  -2.285  25.342  0.00  0.00    +0.000 A 
ATOM     29  C   UNL     1      -3.215  -1.739  25.886  0.00  0.00    +0.003 A 
ATOM     30  C   UNL     1      -2.752  -1.107  25.628  0.00  0.00    +0.037 A 
ENDBRANCH  24  25
ENDBRANCH  23  24
ENDBRANCH  21  23
ENDBRANCH  19  20
TORSDOF 5
ENDMDL
MODEL 3
REMARK VINA RESULT:     -13.8      2.380      4.705
REMARK  Name = 
REMARK  5 active torsions:
REMARK  status: ('A' for Active; 'I' for Inactive)
REMARK    1  A    between atoms: C_5  and  C_8
REMARK    2  A    between atoms: C_19  and  N_20
REMARK    3  A    between atoms: C_21  and  C_23
REMARK    4  A    between atoms: C_23  and  O_24
REMARK    5  A    between atoms: O_24  and  C_25
REMARK                            x       y       z     vdW  Elec       q    Type
REMARK                         _______ _______ _______ _____ _____    ______ ____
ROOT
ATOM      8  C   UNL     1      -1.620  -0.974  25.282  0.00  0.00    +0.249 C 
ATOM      9  O   UNL     1      -1.236  -1.584  25.682  0.00  0.00    -0.270 OA
ATOM     10  N   UNL     1      -2.429  -1.026  25.130  0.00  0.00    -0.276 N 
ATOM     11  C   UNL     1      -3.202  -1.343  25.124  0.00  0.00    +0.096 C 
ATOM     12  C   UNL     1      -3.674  -0.619  24.645  0.00  0.00    +0.043 C 
ATOM     13  C   UNL     1      -4.200  -0.121  24.272  0.00  0.00    +0.011 C 
ATOM     14  C   UNL     1      -3.516  -0.130  24.427  0.00  0.00    +0.058 C 
ATOM     15  C   UNL     1      -3.074  -0.839  24.891  0.00  0.00    +0.099 C 
ATOM     16  C   UNL     1      -2.749   0.368  24.338  0.00  0.00    +0.041 A 
ATOM     17  C   UNL     1      -2.484   1.084  24.025  0.00  0.00    +0.014 A 
ATOM     18  C   UNL     1      -1.689   1.293  24.092  0.00  0.00    +0.023 A 
ATOM     19  C   UNL     1      -1.159   0.787  24.471  0.00  0.00    +0.129 A 
ATOM     31  C   UNL     1      -1.424   0.071  24.783  0.00  0.00    +0.276 A 
ATOM     32  O   UNL     1      -0.732  -0.246  25.100  0.00  0.00    -0.266 OA
ATOM     33  N   UNL     1      -2.220  -0.138  24.717  0.00  0.00    -0.298 N 
ATOM     34  C   UNL     1      -2.868  -0.105  24.556  0.00  0.00    +0.110 C 
ENDROOT
BRANCH   8   5
ATOM      1  F   UNL     1       0.234   1.950  24.245  0.00  0.00    -0.204 F 
ATOM      2  C   UNL     1      -0.159   1.230  24.335  0.00  0.00    +0.140 A 
ATOM      3  C   UNL     1      -0.400   0.451  23.951  0.00  0.00    +0.030 A 
ATOM      4  C   UNL     1      -0.888  -0.284  24.268  0.00  0.00    +0.007 A 
ATOM      5  C   UNL     1      -1.194  -0.312  25.033  0.00  0.00    +0.054 A 
ATOM      6  C   UNL     1      -1.077   0.320  25.549  0.00  0.00    +0.007 A 
ATOM      7  C   UNL     1      -0.652   0.982  25.300  0.00  0.00    +0.030 A 
ENDBRANCH   8   5
BRANCH  19  20
ATOM     20  N   UNL     1      -0.364   0.997  24.538  0.00  0.00    -0.171 NA
ATOM     21  C   UNL     1      -0.157   1.752  24.795  0.00  0.00    +0.290 C 
ATOM     22  O   UNL     1       0.639   1.962  24.861  0.00  0.00    -0.269 OA
BRANCH  21  23
ATOM     23  C   UNL     1      -0.745   2.299  24.986  0.00  0.00    +0.291 C 
BRANCH  23  24
ATOM     24  O   UNL     1      -0.554   2.974  25.422  0.00  0.00    -0.466 OA
BRANCH  24  25
ATOM     25  C   UNL     1      -1.059   3.627  25.412  0.00  0.00    +0.139 A 
ATOM     26  C   UNL     1      -1.741   3.627  25.875  0.00  0.00    +0.037 A 
ATOM     27  C   UNL     1      -2.246   4.280  25.865  0.00  0.00    +0.003 A 
ATOM     28  C   UNL     1      -2.067   4.932  25.392  0.00  0.00    +0.000 A 
ATOM     29  C   UNL     1      -1.384   4.931  24.930  0.00  0.00    +0.003 A 
ATOM     30  C   UNL     1      -0.880   4.278  24.940  0.00  0.00    +0.037 A 
ENDBRANCH  24  25
ENDBRANCH  23  24
ENDBRANCH  21  23
ENDBRANCH  19  20
TORSDOF 5
ENDMDL
MODEL 4
REMARK VINA RESULT:     -13.7      1.625      4.306
REMARK  Name = 
REMARK  5 active torsions:
REMARK  status: ('A' for Active; 'I' for Inactive)
REMARK    1  A    between atoms: C_5  and  C_8
REMARK    2  A    between atoms: C_19  and  N_20
REMARK    3  A    between atoms: C_21  and  C_23
REMARK    4  A    between atoms: C_23  and  O_24
REMARK    5  A    between atoms: O_24  and  C_25
REMARK                            x       y       z     vdW  Elec       q    Type
REMARK                         _______ _______ _______ _____ _____    ______ ____
ROOT
ATOM      8  C   UNL     1      -3.743  -1.687  24.024  0.00  0.00    +0.249 C 
ATOM      9  O   UNL     1      -4.315  -2.060  23.562  0.00  0.00    -0.270 OA
ATOM     10  N   UNL     1      -3.037  -2.076  24.200  0.00  0.00    -0.276 N 
ATOM     11  C   UNL     1      -2.462  -2.682  24.208  0.00  0.00    +0.096 C 
ATOM     12  C   UNL     1      -1.769  -2.247  24.761  0.00  0.00    +0.043 C 
ATOM     13  C   UNL     1      -1.112  -2.033  25.193  0.00  0.00    +0.011 C 
ATOM     14  C   UNL     1      -1.729  -1.750  25.013  0.00  0.00    +0.058 C 
ATOM     15  C   UNL     1      -2.389  -2.185  24.477  0.00  0.00    +0.099 C 
ATOM     16  C   UNL     1      -2.230  -0.986  25.115  0.00  0.00    +0.041 A 
ATOM     17  C   UNL     1      -2.200  -0.245  25.474  0.00  0.00    +0.014 A 
ATOM     18  C   UNL     1      -2.835   0.277  25.396  0.00  0.00    +0.023 A 
ATOM     19  C   UNL     1      -3.498   0.056  24.958  0.00  0.00    +0.129 A 
ATOM     31  C   UNL     1      -3.528  -0.685  24.599  0.00  0.00    +0.276 A 
ATOM     32  O   UNL     1      -4.267  -0.670  24.233  0.00  0.00    -0.266 OA
ATOM     33  N   UNL     1      -2.893  -1.207  24.677  0.00  0.00    -0.298 N 
ATOM     34  C   UNL     1      -2.299  -1.453  24.863  0.00  0.00    +0.110 C 
ENDROOT
BRANCH   8   5
ATOM      1  F   UNL     1      -4.309   1.674  25.228  0.00  0.00    -0.204 F 
ATOM      2  C   UNL     1      -4.236   0.863  25.096  0.00  0.00    +0.140 A 
ATOM      3  C   UNL     1      -4.346   0.032  25.427  0.00  0.00    +0.030 A 
ATOM      4  C   UNL     1      -4.182  -0.818  25.070  0.00  0.00    +0.007 A 
ATOM      5  C   UNL     1      -3.877  -0.924  24.311  0.00  0.00    +0.054 A 
ATOM      6  C   UNL     1      -3.706  -0.271  23.838  0.00  0.00    +0.007 A 
ATOM      7  C   UNL     1      -3.840   0.492  24.125  0.00  0.00    +0.030 A 
ENDBRANCH   8   5
BRANCH  19  20
ATOM     20  N   UNL     1      -4.132   0.578  24.881  0.00  0.00    -0.171 NA
ATOM     21  C   UNL     1      -3.993   1.382  24.758  0.00  0.00    +0.290 C 
ATOM     22  O   UNL     1      -4.628   1.904  24.681  0.00  0.00    -0.269 OA
BRANCH  21  23
ATOM     23  C   UNL     1      -3.219   1.664  24.714  0.00  0.00    +0.291 C 
BRANCH  23  24
ATOM     24  O   UNL     1      -3.076   2.439  24.466  0.00  0.00    -0.466 OA
BRANCH  24  25
ATOM     25  C   UNL     1      -2.335   2.780  24.587  0.00  0.00    +0.139 A 
ATOM     26  C   UNL     1      -1.735   2.673  24.031  0.00  0.00    +0.037 A 
ATOM     27  C   UNL     1      -0.994   3.014  24.153  0.00  0.00    +0.003 A 
ATOM     28  C   UNL     1      -0.853   3.463  24.830  0.00  0.00    +0.000 A 
ATOM     29  C   UNL     1      -1.453   3.570  25.386  0.00  0.00    +0.003 A 
ATOM     30  C   UNL     1      -2.194   3.229  25.265  0.00  0.00    +0.037 A 
ENDBRANCH  24  25
ENDBRANCH  23  24
ENDBRANCH  21  23
ENDBRANCH  19  20
TORSDOF 5
ENDMDL
