MODEL 1
REMARK VINA RESULT:     -10.1      0.000      0.000
REMARK  Name = 
REMARK  6 active torsions:
REMARK  status: ('A' for Active; 'I' for Inactive)
REMARK    1  A    between atoms: C_2  and  C_4
REMARK    2  A    between atoms: C_4  and  O_5
REMARK    3  A    between atoms: O_5  and  C_6
REMARK    4  A    between atoms: C_10  and  N_14
REMARK    5  A    between atoms: N_14  and  S_15
REMARK    6  A    between atoms: S_15  and  C_18
REMARK                            x       y       z     vdW  Elec       q    Type
REMARK                         _______ _______ _______ _____ _____    ______ ____
ROOT
ATOM      6  C   UNL     1      -2.919   3.254  24.899  0.00  0.00    +0.175 C 
ATOM      7  C   UNL     1      -3.551   3.368  25.416  0.00  0.00    +0.174 C 
ATOM      8  O   UNL     1      -4.005   2.679  25.417  0.00  0.00    -0.349 OA
ATOM      9  C   UNL     1      -3.654   2.141  24.901  0.00  0.00    +0.165 C 
ATOM     10  C   UNL     1      -3.717   1.382  24.582  0.00  0.00    +0.157 C 
ATOM     11  C   UNL     1      -3.085   1.269  24.065  0.00  0.00    +0.164 C 
ATOM     12  O   UNL     1      -2.631   1.957  24.064  0.00  0.00    -0.350 OA
ATOM     13  C   UNL     1      -2.982   2.496  24.581  0.00  0.00    +0.173 C 
ENDROOT
BRANCH   6   5
ATOM      5  O   UNL     1      -2.326   3.803  24.729  0.00  0.00    -0.342 OA
BRANCH   5   4
ATOM      4  C   UNL     1      -2.035   4.294  25.326  0.00  0.00    +0.230 C 
BRANCH   4   2
ATOM      1  N   UNL     1      -0.668   4.566  25.009  0.00  0.00    -0.086 NA
ATOM      2  C   UNL     1      -1.434   4.833  25.160  0.00  0.00    +0.291 C 
ATOM      3  O   UNL     1      -1.599   5.641  25.144  0.00  0.00    -0.269 OA
ENDBRANCH   4   2
ENDBRANCH   5   4
ENDBRANCH   6   5
BRANCH  10  14
ATOM     14  N   UNL     1      -4.309   0.833  24.752  0.00  0.00    -0.074 NA
BRANCH  14  15
ATOM     15  S   UNL     1      -4.148   0.025  24.708  0.00  0.00    +0.077 S 
ATOM     16  O   UNL     1      -4.318   0.036  23.901  0.00  0.00    -0.152 OA
ATOM     17  O   UNL     1      -3.978   0.016  25.516  0.00  0.00    -0.152 OA
BRANCH  15  18
ATOM     18  C   UNL     1      -3.987  -0.783  24.664  0.00  0.00    +0.124 A 
ATOM     19  C   UNL     1      -3.585  -1.157  25.280  0.00  0.00    +0.021 A 
ATOM     20  C   UNL     1      -3.423  -1.965  25.235  0.00  0.00    +0.013 A 
ATOM     21  C   UNL     1      -3.664  -2.398  24.576  0.00  0.00    +0.058 A 
ATOM     22 CL   UNL     1      -3.503  -3.206  24.533  0.00  0.00    -0.082 Cl
ATOM     23  C   UNL     1      -4.067  -2.024  23.961  0.00  0.00    +0.013 A 
ATOM     24  C   UNL     1      -4.228  -1.216  24.005  0.00  0.00    +0.021 A 
ENDBRANCH  15  18
ENDBRANCH  14  15
ENDBRANCH  10  14
TORSDOF 6
ENDMDL
MODEL 2
REMARK VINA RESULT:      -9.3      1.914      2.194
REMARK  Name = 
REMARK  6 active torsions:
REMARK  status: ('A' for Active; 'I' for Inactive)
REMARK    1  A    between atoms: C_2  and  C_4
REMARK    2  A    between atoms: C_4  and  O_5
REMARK    3  A    between atoms: O_5  and  C_6
REMARK    4  A    between atoms: C_10  and  N_14
REMARK    5  A    between atoms: N_14  and  S_15
REMARK    6  A    between atoms: S_15  and  C_18
REMARK                            x       y       z     vdW  Elec       q    Type
REMARK                         _______ _______ _______ _____ _____    ______ ____
ROOT
ATOM      6  C   UNL     1      -0.785   2.620  25.270  0.00  0.00    +0.175 C 
ATOM      7  C   UNL     1      -0.434   2.444  25.995  0.00  0.00    +0.174 C 
ATOM      8  O   UNL     1      -0.491   1.630  26.114  0.00  0.00    -0.349 OA
ATOM      9  C   UNL     1      -0.876   1.303  25.464  0.00  0.00    +0.165 C 
ATOM     10  C   UNL     1      -1.150   0.598  25.134  0.00  0.00    +0.157 C 
ATOM     11  C   UNL     1      -1.501   0.773  24.409  0.00  0.00    +0.164 C 
ATOM     12  O   UNL     1      -1.444   1.587  24.289  0.00  0.00    -0.350 OA
ATOM     13  C   UNL     1      -1.058   1.915  24.941  0.00  0.00    +0.173 C 
ENDROOT
BRANCH   6   5
ATOM      5  O   UNL     1      -0.851   3.370  24.932  0.00  0.00    -0.342 OA
BRANCH   5   4
ATOM      4  C   UNL     1      -0.894   4.038  25.415  0.00  0.00    +0.230 C 
BRANCH   4   2
ATOM      1  N   UNL     1      -1.782   5.137  25.202  0.00  0.00    -0.086 NA
ATOM      2  C   UNL     1      -1.049   4.777  25.084  0.00  0.00    +0.291 C 
ATOM      3  O   UNL     1      -0.471   5.157  24.635  0.00  0.00    -0.269 OA
ENDBRANCH   4   2
ENDBRANCH   5   4
ENDBRANCH   6   5
BRANCH  10  14
ATOM     14  N   UNL     1      -1.084  -0.153  25.472  0.00  0.00    -0.074 NA
BRANCH  14  15
ATOM     15  S   UNL     1      -1.622  -0.745  25.270  0.00  0.00    +0.077 S 
ATOM     16  O   UNL     1      -2.108  -0.515  25.896  0.00  0.00    -0.152 OA
ATOM     17  O   UNL     1      -1.135  -0.974  24.645  0.00  0.00    -0.152 OA
BRANCH  15  18
ATOM     18  C   UNL     1      -2.160  -1.337  25.070  0.00  0.00    +0.124 A 
ATOM     19  C   UNL     1      -1.923  -1.964  24.589  0.00  0.00    +0.021 A 
ATOM     20  C   UNL     1      -2.461  -2.556  24.388  0.00  0.00    +0.013 A 
ATOM     21  C   UNL     1      -3.236  -2.521  24.668  0.00  0.00    +0.058 A 
ATOM     22 CL   UNL     1      -3.774  -3.114  24.467  0.00  0.00    -0.082 Cl
ATOM     23  C   UNL     1      -3.473  -1.895  25.149  0.00  0.00    +0.013 A 
ATOM     24  C   UNL     1      -2.935  -1.302  25.350  0.00  0.00    +0.021 A 
ENDBRANCH  15  18
ENDBRANCH  14  15
ENDBRANCH  10  14
TORSDOF 6
ENDMDL
MODEL 3
REMARK VINA RESULT:      -9.1      2.707      5.489
REMARK  Name = 
REMARK  6 active torsions:
REMARK  status: ('A' for Active; 'I' for Inactive)
REMARK    1  A    between atoms: C_2  and  C_4
REMARK    2  A    between atoms: C_4  and  O_5
REMARK    3  A    between atoms: O_5  and  C_6
REMARK    4  A    between atoms: C_10  and  N_14
REMARK    5  A    between atoms: N_14  and  S_15
REMARK    6  A    between atoms: S_15  and  C_18
REMARK                            x       y       z     vdW  Elec       q    Type
REMARK                         _______ _______ _______ _____ _____    ______ ____
ROOT
ATOM      6  C   UNL     1      -2.270  -0.710  24.792  0.00  0.00    +0.175 C 
ATOM      7  C   UNL     1      -1.901  -0.870  25.513  0.00  0.00    +0.174 C 
ATOM      8  O   UNL     1      -1.480  -0.197  25.737  0.00  0.00    -0.349 OA
ATOM      9  C   UNL     1      -1.588   0.378  25.156  0.00  0.00    +0.165 C 
ATOM     10  C   UNL     1      -1.395   1.148  24.934  0.00  0.00    +0.157 C 
ATOM     11  C   UNL     1      -1.763   1.307  24.213  0.00  0.00    +0.164 C 
ATOM     12  O   UNL     1      -2.184   0.635  23.989  0.00  0.00    -0.350 OA
ATOM     13  C   UNL     1      -2.076   0.060  24.572  0.00  0.00    +0.173 C 
ENDROOT
BRANCH   6   5
ATOM      5  O   UNL     1      -2.748  -1.231  24.367  0.00  0.00    -0.342 OA
BRANCH   5   4
ATOM      4  C   UNL     1      -3.206  -1.791  24.765  0.00  0.00    +0.230 C 
BRANCH   4   2
ATOM      1  N   UNL     1      -3.598  -3.094  24.330  0.00  0.00    -0.086 NA
ATOM      2  C   UNL     1      -3.721  -2.278  24.345  0.00  0.00    +0.291 C 
ATOM      3  O   UNL     1      -4.359  -1.950  23.939  0.00  0.00    -0.269 OA
ENDBRANCH   4   2
ENDBRANCH   5   4
ENDBRANCH   6   5
BRANCH  10  14
ATOM     14  N   UNL     1      -0.916   1.669  25.359  0.00  0.00    -0.074 NA
BRANCH  14  15
ATOM     15  S   UNL     1      -1.045   2.483  25.309  0.00  0.00    +0.077 S 
ATOM     16  O   UNL     1      -0.543   2.521  24.655  0.00  0.00    -0.152 OA
ATOM     17  O   UNL     1      -1.546   2.444  25.963  0.00  0.00    -0.152 OA
BRANCH  15  18
ATOM     18  C   UNL     1      -1.173   3.296  25.258  0.00  0.00    +0.124 A 
ATOM     19  C   UNL     1      -1.839   3.631  25.611  0.00  0.00    +0.021 A 
ATOM     20  C   UNL     1      -1.967   4.445  25.561  0.00  0.00    +0.013 A 
ATOM     21  C   UNL     1      -1.430   4.923  25.157  0.00  0.00    +0.058 A 
ATOM     22 CL   UNL     1      -1.559   5.736  25.107  0.00  0.00    -0.082 Cl
ATOM     23  C   UNL     1      -0.764   4.588  24.804  0.00  0.00    +0.013 A 
ATOM     24  C   UNL     1      -0.635   3.774  24.855  0.00  0.00    +0.021 A 
ENDBRANCH  15  18
ENDBRANCH  14  15
ENDBRANCH  10  14
TORSDOF 6
ENDMDL
MODEL 4
REMARK VINA RESULT:      -8.8      2.335      5.237
REMARK  Name = 
REMARK  6 active torsions:
REMARK  status: ('A' for Active; 'I' for Inactive)
REMARK    1  A    between atoms: C_2  and  C_4
REMARK    2  A    between atoms: C_4  and  O_5
REMARK    3  A    between atoms: O_5  and  C_6
REMARK    4  A    between atoms: C_10  and  N_14
REMARK    5  A    between atoms: N_14  and  S_15
REMARK    6  A    between atoms: S_15  and  C_18
REMARK                            x       y       z     vdW  Elec       q    Type
REMARK                         _______ _______ _______ _____ _____    ______ ____
ROOT
ATOM      6  C   UNL     1      -3.984  -0.118  24.470  0.00  0.00    +0.175 C 
ATOM      7  C   UNL     1      -4.411   0.004  25.164  0.00  0.00    +0.174 C 
ATOM      8  O   UNL     1      -4.336   0.798  25.373  0.00  0.00    -0.349 OA
ATOM      9  C   UNL     1      -3.862   1.167  24.808  0.00  0.00    +0.165 C 
ATOM     10  C   UNL     1      -3.522   1.886  24.587  0.00  0.00    +0.157 C 
ATOM     11  C   UNL     1      -3.095   1.764  23.893  0.00  0.00    +0.164 C 
ATOM     12  O   UNL     1      -3.170   0.969  23.684  0.00  0.00    -0.350 OA
ATOM     13  C   UNL     1      -3.645   0.600  24.250  0.00  0.00    +0.173 C 
ENDROOT
BRANCH   6   5
ATOM      5  O   UNL     1      -3.909  -0.834  24.066  0.00  0.00    -0.342 OA
BRANCH   5   4
ATOM      4  C   UNL     1      -4.072  -1.545  24.451  0.00  0.00    +0.230 C 
BRANCH   4   2
ATOM      1  N   UNL     1      -3.279  -2.720  24.272  0.00  0.00    -0.086 NA
ATOM      2  C   UNL     1      -3.936  -2.263  24.069  0.00  0.00    +0.291 C 
ATOM      3  O   UNL     1      -4.455  -2.524  23.484  0.00  0.00    -0.269 OA
ENDBRANCH   4   2
ENDBRANCH   5   4
ENDBRANCH   6   5
BRANCH  10  14
ATOM     14  N   UNL     1      -3.597   2.601  24.991  0.00  0.00    -0.074 NA
BRANCH  14  15
ATOM     15  S   UNL     1      -2.975   3.143  24.991  0.00  0.00    +0.077 S 
ATOM     16  O   UNL     1      -2.671   2.792  25.673  0.00  0.00    -0.152 OA
ATOM     17  O   UNL     1      -3.279   3.493  24.309  0.00  0.00    -0.152 OA
BRANCH  15  18
ATOM     18  C   UNL     1      -2.352   3.683  24.992  0.00  0.00    +0.124 A 
ATOM     19  C   UNL     1      -1.572   3.414  24.984  0.00  0.00    +0.021 A 
ATOM     20  C   UNL     1      -0.949   3.954  24.985  0.00  0.00    +0.013 A 
ATOM     21  C   UNL     1      -1.105   4.764  24.994  0.00  0.00    +0.058 A 
ATOM     22 CL   UNL     1      -0.481   5.304  24.995  0.00  0.00    -0.082 Cl
ATOM     23  C   UNL     1      -1.884   5.033  25.002  0.00  0.00    +0.013 A 
ATOM     24  C   UNL     1      -2.508   4.493  25.002  0.00  0.00    +0.021 A 
ENDBRANCH  15  18
ENDBRANCH  14  15
ENDBRANCH  10  14
TORSDOF 6
ENDMDL
MODEL 5
REMARK VINA RESULT:      -8.1      3.096      4.372
REMARK  Name = 
REMARK  6 active torsions:
REMARK  status: ('A' for Active; 'I' for Inactive)
REMARK    1  A    between atoms: C_2  and  C_4
REMARK    2  A    between atoms: C_4  and  O_5
REMARK    3  A    between atoms: O_5  and  C_6
REMARK    4  A    between atoms: C_10  and  N_14
REMARK    5  A    between atoms: N_14  and  S_15
REMARK    6  A    between atoms: S_15  and  C_18
REMARK                            x       y       z     vdW  Elec       q    Type
REMARK                         _______ _______ _______ _____ _____    ______ ____
ROOT
ATOM      6  C   UNL     1      -0.182   0.322  23.663  0.00  0.00    +0.175 C 
ATOM      7  C   UNL     1      -0.285  -0.285  24.212  0.00  0.00    +0.174 C 
ATOM      8  O   UNL     1      -1.038  -0.207  24.539  0.00  0.00    -0.349 OA
ATOM      9  C   UNL     1      -1.401   0.447  24.193  0.00  0.00    +0.165 C 
ATOM     10  C   UNL     1      -2.090   0.901  24.180  0.00  0.00    +0.157 C 
ATOM     11  C   UNL     1      -1.987   1.507  23.630  0.00  0.00    +0.164 C 
ATOM     12  O   UNL     1      -1.234   1.429  23.304  0.00  0.00    -0.350 OA
ATOM     13  C   UNL     1      -0.872   0.774  23.651  0.00  0.00    +0.173 C 
ENDROOT
BRANCH   6   5
ATOM      5  O   UNL     1       0.492   0.453  23.206  0.00  0.00    -0.342 OA
BRANCH   5   4
ATOM      4  C   UNL     1       1.039  -0.155  23.093  0.00  0.00    +0.230 C 
BRANCH   4   2
ATOM      1  N   UNL     1       2.381   0.239  22.800  0.00  0.00    -0.086 NA
ATOM      2  C   UNL     1       1.653  -0.061  22.551  0.00  0.00    +0.291 C 
ATOM      3  O   UNL     1       1.541  -0.268  21.761  0.00  0.00    -0.269 OA
ENDBRANCH   4   2
ENDBRANCH   5   4
ENDBRANCH   6   5
BRANCH  10  14
ATOM     14  N   UNL     1      -2.765   0.769  24.637  0.00  0.00    -0.074 NA
BRANCH  14  15
ATOM     15  S   UNL     1      -3.291   1.388  24.783  0.00  0.00    +0.077 S 
ATOM     16  O   UNL     1      -3.740   1.159  24.130  0.00  0.00    -0.152 OA
ATOM     17  O   UNL     1      -2.842   1.616  25.437  0.00  0.00    -0.152 OA
BRANCH  15  18
ATOM     18  C   UNL     1      -3.818   2.006  24.929  0.00  0.00    +0.124 A 
ATOM     19  C   UNL     1      -4.614   1.925  24.727  0.00  0.00    +0.021 A 
ATOM     20  C   UNL     1      -5.141   2.543  24.872  0.00  0.00    +0.013 A 
ATOM     21  C   UNL     1      -4.872   3.242  25.220  0.00  0.00    +0.058 A 
ATOM     22 CL   UNL     1      -5.399   3.859  25.365  0.00  0.00    -0.082 Cl
ATOM     23  C   UNL     1      -4.076   3.322  25.421  0.00  0.00    +0.013 A 
ATOM     24  C   UNL     1      -3.549   2.704  25.276  0.00  0.00    +0.021 A 
ENDBRANCH  15  18
ENDBRANCH  14  15
ENDBRANCH  10  14
TORSDOF 6
ENDMDL
MODEL 6
REMARK VINA RESULT:      -7.5     16.206     18.353
REMARK  Name = 
REMARK  6 active torsions:
REMARK  status: ('A' for Active; 'I' for Inactive)
REMARK    1  A    between atoms: C_2  and  C_4
REMARK    2  A    between atoms: C_4  and  O_5
REMARK    3  A    between atoms: O_5  and  C_6
REMARK    4  A    between atoms: C_10  and  N_14
REMARK    5  A    between atoms: N_14  and  S_15
REMARK    6  A    between atoms: S_15  and  C_18
REMARK                            x       y       z     vdW  Elec       q    Type
REMARK                         _______ _______ _______ _____ _____    ______ ____
ROOT
ATOM      6  C   UNL     1      13.581   7.687  17.449  0.00  0.00    +0.175 C 
ATOM      7  C   UNL     1      14.298   7.522  17.820  0.00  0.00    +0.174 C 
ATOM      8  O   UNL     1      14.135   7.275  18.590  0.00  0.00    -0.349 OA
ATOM      9  C   UNL     1      13.317   7.288  18.695  0.00  0.00    +0.165 C 
ATOM     10  C   UNL     1      12.710   7.144  19.234  0.00  0.00    +0.157 C 
ATOM     11  C   UNL     1      11.993   7.309  18.863  0.00  0.00    +0.164 C 
ATOM     12  O   UNL     1      12.156   7.556  18.093  0.00  0.00    -0.350 OA
ATOM     13  C   UNL     1      12.975   7.543  17.989  0.00  0.00    +0.173 C 
ENDROOT
BRANCH   6   5
ATOM      5  O   UNL     1      13.486   7.951  16.672  0.00  0.00    -0.342 OA
BRANCH   5   4
ATOM      4  C   UNL     1      14.044   8.458  16.338  0.00  0.00    +0.230 C 
BRANCH   4   2
ATOM      1  N   UNL     1      14.560   9.094  15.167  0.00  0.00    -0.086 NA
ATOM      2  C   UNL     1      13.930   8.752  15.576  0.00  0.00    +0.291 C 
ATOM      3  O   UNL     1      13.187   8.705  15.223  0.00  0.00    -0.269 OA
ENDBRANCH   4   2
ENDBRANCH   5   4
ENDBRANCH   6   5
BRANCH  10  14
ATOM     14  N   UNL     1      12.805   6.880  20.011  0.00  0.00    -0.074 NA
BRANCH  14  15
ATOM     15  S   UNL     1      12.310   7.165  20.607  0.00  0.00    +0.077 S 
ATOM     16  O   UNL     1      11.759   6.578  20.428  0.00  0.00    -0.152 OA
ATOM     17  O   UNL     1      12.863   7.751  20.785  0.00  0.00    -0.152 OA
BRANCH  15  18
ATOM     18  C   UNL     1      11.815   7.449  21.202  0.00  0.00    +0.124 A 
ATOM     19  C   UNL     1      11.134   7.031  21.406  0.00  0.00    +0.021 A 
ATOM     20  C   UNL     1      10.639   7.315  22.002  0.00  0.00    +0.013 A 
ATOM     21  C   UNL     1      10.825   8.017  22.394  0.00  0.00    +0.058 A 
ATOM     22 CL   UNL     1      10.329   8.300  22.989  0.00  0.00    -0.082 Cl
ATOM     23  C   UNL     1      11.506   8.434  22.190  0.00  0.00    +0.013 A 
ATOM     24  C   UNL     1      12.001   8.151  21.594  0.00  0.00    +0.021 A 
ENDBRANCH  15  18
ENDBRANCH  14  15
ENDBRANCH  10  14
TORSDOF 6
ENDMDL
