REMARK  Name = 
REMARK  6 active torsions:
REMARK  status: ('A' for Active; 'I' for Inactive)
REMARK    1  A    between atoms: C_2  and  C_4
REMARK    2  A    between atoms: C_4  and  C_5
REMARK    3  A    between atoms: C_5  and  C_6
REMARK    4  A    between atoms: N_15  and  C_19
REMARK    5  A    between atoms: C_22  and  O_23
REMARK    6  A    between atoms: O_23  and  C_24
REMARK                            x       y       z     vdW  Elec       q    Type
REMARK                         _______ _______ _______ _____ _____    ______ ____
ROOT
ATOM      6  C   UNL     1       0.884  -2.150   0.000  0.00  0.00    +0.227 C 
ATOM      7  O   UNL     1       1.436  -2.763   0.000  0.00  0.00    -0.275 OA
ATOM      8  N   UNL     1       1.139  -1.365   0.000  0.00  0.00    -0.272 N 
ATOM      9  C   UNL     1       0.654  -0.698   0.000  0.00  0.00    +0.096 C 
ATOM     10  C   UNL     1       1.139  -0.030   0.000  0.00  0.00    +0.045 C 
ATOM     11  C   UNL     1       1.923  -0.285   0.000  0.00  0.00    +0.126 C 
ATOM     12  N   UNL     1       2.638   0.127   0.000  0.00  0.00    -0.187 NA
ATOM     13  C   UNL     1       3.352  -0.285   0.000  0.00  0.00    +0.333 C 
ATOM     14  O   UNL     1       4.067   0.127   0.000  0.00  0.00    -0.250 OA
ATOM     15  N   UNL     1       3.352  -1.110   0.000  0.00  0.00    -0.190 N 
ATOM     16  C   UNL     1       2.638  -1.523   0.000  0.00  0.00    +0.256 C 
ATOM     17  O   UNL     1       2.638  -2.348   0.000  0.00  0.00    -0.272 OA
ATOM     18  C   UNL     1       1.923  -1.110   0.000  0.00  0.00    +0.173 C 
ENDROOT
BRANCH  15  19
ATOM     19  C   UNL     1       4.067  -1.523   0.000  0.00  0.00    +0.062 A 
ATOM     20  C   UNL     1       4.781  -1.110   0.000  0.00  0.00    +0.018 A 
ATOM     21  C   UNL     1       5.496  -1.523   0.000  0.00  0.00    +0.039 A 
ATOM     22  C   UNL     1       5.496  -2.348   0.000  0.00  0.00    +0.145 A 
ATOM     30  C   UNL     1       4.781  -2.760   0.000  0.00  0.00    +0.039 A 
ATOM     31  C   UNL     1       4.067  -2.348   0.000  0.00  0.00    +0.018 A 
BRANCH  22  23
ATOM     23  O   UNL     1       6.210  -2.760   0.000  0.00  0.00    -0.453 OA
BRANCH  23  24
ATOM     24  C   UNL     1       6.925  -2.348   0.000  0.00  0.00    +0.145 A 
ATOM     25  C   UNL     1       6.925  -1.523   0.000  0.00  0.00    +0.037 A 
ATOM     26  C   UNL     1       7.639  -1.110   0.000  0.00  0.00    +0.003 A 
ATOM     27  C   UNL     1       8.354  -1.523   0.000  0.00  0.00    +0.000 A 
ATOM     28  C   UNL     1       8.354  -2.348   0.000  0.00  0.00    +0.003 A 
ATOM     29  C   UNL     1       7.639  -2.760   0.000  0.00  0.00    +0.037 A 
ENDBRANCH  23  24
ENDBRANCH  22  23
ENDBRANCH  15  19
BRANCH   6   5
ATOM      5  C   UNL     1       0.077  -2.321   0.000  0.00  0.00    +0.097 C 
BRANCH   5   4
ATOM      4  C   UNL     1      -0.178  -3.106   0.000  0.00  0.00    +0.124 C 
BRANCH   4   2
ATOM      1  O   UNL     1      -1.240  -4.062   0.000  0.00  0.00    -0.246 OA
ATOM      2  C   UNL     1      -0.985  -3.278   0.000  0.00  0.00    +0.365 C 
ATOM      3  O   UNL     1      -1.537  -2.665   0.000  0.00  0.00    -0.246 OA
ENDBRANCH   4   2
ENDBRANCH   5   4
ENDBRANCH   6   5
TORSDOF 6
