MODEL 1
REMARK VINA RESULT:     -12.8      0.000      0.000
REMARK  Name = 
REMARK  5 active torsions:
REMARK  status: ('A' for Active; 'I' for Inactive)
REMARK    1  A    between atoms: C_4  and  C_15
REMARK    2  A    between atoms: N_5  and  C_6
REMARK    3  A    between atoms: C_6  and  C_7
REMARK    4  A    between atoms: C_17  and  C_18
REMARK    5  A    between atoms: C_18  and  C_19
REMARK                            x       y       z     vdW  Elec       q    Type
REMARK                         _______ _______ _______ _____ _____    ______ ____
ROOT
ATOM      1  O   UNL     1      -5.978   1.402  24.904  0.00  0.00    -0.222 OA
ATOM      2  C   UNL     1      -5.164   1.274  24.877  0.00  0.00    +0.170 C 
ATOM      3  C   UNL     1      -4.584   1.856  24.792  0.00  0.00    +0.060 C 
ATOM      4  C   UNL     1      -3.847   1.483  24.792  0.00  0.00    +0.140 C 
ATOM      5  N   UNL     1      -3.972   0.672  24.877  0.00  0.00    -0.260 NA
ATOM     14  C   UNL     1      -4.785   0.543  24.929  0.00  0.00    +0.106 C 
ENDROOT
BRANCH   4  15
ATOM     15  C   UNL     1      -3.116   1.857  24.720  0.00  0.00    +0.251 A 
ATOM     16  N   UNL     1      -2.719   2.266  25.317  0.00  0.00    -0.193 NA
ATOM     17  C   UNL     1      -2.010   2.548  25.003  0.00  0.00    +0.185 A 
ATOM     25  N   UNL     1      -1.968   2.315  24.213  0.00  0.00    -0.060 NA
ATOM     26  O   UNL     1      -2.652   1.887  24.038  0.00  0.00    -0.336 OA
BRANCH  17  18
ATOM     18  C   UNL     1      -1.442   2.988  25.409  0.00  0.00    +0.095 C 
BRANCH  18  19
ATOM     19  C   UNL     1      -1.356   3.794  25.255  0.00  0.00    -0.014 A 
ATOM     20  C   UNL     1      -1.914   4.329  25.540  0.00  0.00    -0.004 A 
ATOM     21  C   UNL     1      -1.829   5.135  25.387  0.00  0.00    -0.000 A 
ATOM     22  C   UNL     1      -1.184   5.405  24.948  0.00  0.00    -0.000 A 
ATOM     23  C   UNL     1      -0.626   4.869  24.663  0.00  0.00    -0.000 A 
ATOM     24  C   UNL     1      -0.712   4.064  24.816  0.00  0.00    -0.004 A 
ENDBRANCH  18  19
ENDBRANCH  17  18
ENDBRANCH   4  15
BRANCH   5   6
ATOM      6  C   UNL     1      -3.387   0.092  24.905  0.00  0.00    +0.103 C 
BRANCH   6   7
ATOM      7  C   UNL     1      -3.574  -0.693  24.733  0.00  0.00    +0.033 A 
ATOM      8  C   UNL     1      -3.380  -1.291  25.267  0.00  0.00    +0.193 A 
ATOM      9  O   UNL     1      -2.998  -1.104  25.974  0.00  0.00    -0.287 OA
ATOM     10  C   UNL     1      -3.568  -2.075  25.094  0.00  0.00    +0.042 A 
ATOM     11  C   UNL     1      -3.950  -2.262  24.387  0.00  0.00    +0.003 A 
ATOM     12  C   UNL     1      -4.144  -1.664  23.853  0.00  0.00    -0.000 A 
ATOM     13  C   UNL     1      -3.957  -0.879  24.026  0.00  0.00    +0.000 A 
ENDBRANCH   6   7
ENDBRANCH   5   6
TORSDOF 5
ENDMDL
MODEL 2
REMARK VINA RESULT:     -12.4      1.283      5.305
REMARK  Name = 
REMARK  5 active torsions:
REMARK  status: ('A' for Active; 'I' for Inactive)
REMARK    1  A    between atoms: C_4  and  C_15
REMARK    2  A    between atoms: N_5  and  C_6
REMARK    3  A    between atoms: C_6  and  C_7
REMARK    4  A    between atoms: C_17  and  C_18
REMARK    5  A    between atoms: C_18  and  C_19
REMARK                            x       y       z     vdW  Elec       q    Type
REMARK                         _______ _______ _______ _____ _____    ______ ____
ROOT
ATOM      1  O   UNL     1       0.615   1.682  25.347  0.00  0.00    -0.222 OA
ATOM      2  C   UNL     1      -0.191   1.776  25.200  0.00  0.00    +0.170 C 
ATOM      3  C   UNL     1      -0.713   1.183  24.960  0.00  0.00    +0.060 C 
ATOM      4  C   UNL     1      -1.462   1.520  24.878  0.00  0.00    +0.140 C 
ATOM      5  N   UNL     1      -1.403   2.320  25.068  0.00  0.00    -0.260 NA
ATOM     14  C   UNL     1      -0.617   2.478  25.267  0.00  0.00    +0.106 C 
ENDROOT
BRANCH   4  15
ATOM     15  C   UNL     1      -2.148   1.125  24.648  0.00  0.00    +0.251 A 
ATOM     16  N   UNL     1      -2.616   0.645  25.128  0.00  0.00    -0.193 NA
ATOM     17  C   UNL     1      -3.244   0.365  24.672  0.00  0.00    +0.185 A 
ATOM     25  N   UNL     1      -3.165   0.671  23.911  0.00  0.00    -0.060 NA
ATOM     26  O   UNL     1      -2.487   1.141  23.895  0.00  0.00    -0.336 OA
BRANCH  17  18
ATOM     18  C   UNL     1      -3.847  -0.135  24.933  0.00  0.00    +0.095 C 
BRANCH  18  19
ATOM     19  C   UNL     1      -3.823  -0.940  24.754  0.00  0.00    -0.014 A 
ATOM     20  C   UNL     1      -3.445  -1.465  25.264  0.00  0.00    -0.004 A 
ATOM     21  C   UNL     1      -3.421  -2.270  25.084  0.00  0.00    -0.000 A 
ATOM     22  C   UNL     1      -3.775  -2.548  24.394  0.00  0.00    -0.000 A 
ATOM     23  C   UNL     1      -4.154  -2.022  23.883  0.00  0.00    -0.000 A 
ATOM     24  C   UNL     1      -4.178  -1.219  24.063  0.00  0.00    -0.004 A 
ENDBRANCH  18  19
ENDBRANCH  17  18
ENDBRANCH   4  15
BRANCH   5   6
ATOM      6  C   UNL     1      -2.020   2.867  25.061  0.00  0.00    +0.103 C 
BRANCH   6   7
ATOM      7  C   UNL     1      -1.857   3.675  25.108  0.00  0.00    +0.033 A 
ATOM      8  C   UNL     1      -2.329   4.165  25.576  0.00  0.00    +0.193 A 
ATOM      9  O   UNL     1      -2.963   3.846  25.996  0.00  0.00    -0.287 OA
ATOM     10  C   UNL     1      -2.166   4.971  25.623  0.00  0.00    +0.042 A 
ATOM     11  C   UNL     1      -1.531   5.290  25.202  0.00  0.00    +0.003 A 
ATOM     12  C   UNL     1      -1.060   4.800  24.735  0.00  0.00    -0.000 A 
ATOM     13  C   UNL     1      -1.223   3.992  24.688  0.00  0.00    +0.000 A 
ENDBRANCH   6   7
ENDBRANCH   5   6
TORSDOF 5
ENDMDL
MODEL 3
REMARK VINA RESULT:     -12.3      1.520      4.731
REMARK  Name = 
REMARK  5 active torsions:
REMARK  status: ('A' for Active; 'I' for Inactive)
REMARK    1  A    between atoms: C_4  and  C_15
REMARK    2  A    between atoms: N_5  and  C_6
REMARK    3  A    between atoms: C_6  and  C_7
REMARK    4  A    between atoms: C_17  and  C_18
REMARK    5  A    between atoms: C_18  and  C_19
REMARK                            x       y       z     vdW  Elec       q    Type
REMARK                         _______ _______ _______ _____ _____    ______ ____
ROOT
ATOM      1  O   UNL     1      -3.533   4.206  24.625  0.00  0.00    -0.222 OA
ATOM      2  C   UNL     1      -3.277   3.424  24.559  0.00  0.00    +0.170 C 
ATOM      3  C   UNL     1      -3.742   2.778  24.340  0.00  0.00    +0.060 C 
ATOM      4  C   UNL     1      -3.263   2.106  24.345  0.00  0.00    +0.140 C 
ATOM      5  N   UNL     1      -2.503   2.337  24.567  0.00  0.00    -0.260 NA
ATOM     14  C   UNL     1      -2.512   3.151  24.699  0.00  0.00    +0.106 C 
ENDROOT
BRANCH   4  15
ATOM     15  C   UNL     1      -3.503   1.339  24.161  0.00  0.00    +0.251 A 
ATOM     16  N   UNL     1      -3.924   0.830  24.655  0.00  0.00    -0.193 NA
ATOM     17  C   UNL     1      -4.045   0.123  24.249  0.00  0.00    +0.185 A 
ATOM     25  N   UNL     1      -3.698   0.194  23.503  0.00  0.00    -0.060 NA
ATOM     26  O   UNL     1      -3.364   0.945  23.449  0.00  0.00    -0.336 OA
BRANCH  17  18
ATOM     18  C   UNL     1      -4.442  -0.540  24.538  0.00  0.00    +0.095 C 
BRANCH  18  19
ATOM     19  C   UNL     1      -4.033  -1.245  24.663  0.00  0.00    -0.014 A 
ATOM     20  C   UNL     1      -3.608  -1.357  25.361  0.00  0.00    -0.004 A 
ATOM     21  C   UNL     1      -3.199  -2.062  25.486  0.00  0.00    -0.000 A 
ATOM     22  C   UNL     1      -3.214  -2.655  24.913  0.00  0.00    -0.000 A 
ATOM     23  C   UNL     1      -3.639  -2.543  24.214  0.00  0.00    -0.000 A 
ATOM     24  C   UNL     1      -4.048  -1.839  24.090  0.00  0.00    -0.004 A 
ENDBRANCH  18  19
ENDBRANCH  17  18
ENDBRANCH   4  15
BRANCH   5   6
ATOM      6  C   UNL     1      -1.848   1.841  24.644  0.00  0.00    +0.103 C 
BRANCH   6   7
ATOM      7  C   UNL     1      -1.193   2.086  25.082  0.00  0.00    +0.033 A 
ATOM      8  C   UNL     1      -0.435   2.020  24.763  0.00  0.00    +0.193 A 
ATOM      9  O   UNL     1      -0.333   1.709  24.005  0.00  0.00    -0.287 OA
ATOM     10  C   UNL     1       0.219   2.265  25.200  0.00  0.00    +0.042 A 
ATOM     11  C   UNL     1       0.117   2.576  25.958  0.00  0.00    +0.003 A 
ATOM     12  C   UNL     1      -0.641   2.641  26.277  0.00  0.00    -0.000 A 
ATOM     13  C   UNL     1      -1.297   2.396  25.839  0.00  0.00    +0.000 A 
ENDBRANCH   6   7
ENDBRANCH   5   6
TORSDOF 5
ENDMDL
MODEL 4
REMARK VINA RESULT:     -11.9      1.839      4.816
REMARK  Name = 
REMARK  5 active torsions:
REMARK  status: ('A' for Active; 'I' for Inactive)
REMARK    1  A    between atoms: C_4  and  C_15
REMARK    2  A    between atoms: N_5  and  C_6
REMARK    3  A    between atoms: C_6  and  C_7
REMARK    4  A    between atoms: C_17  and  C_18
REMARK    5  A    between atoms: C_18  and  C_19
REMARK                            x       y       z     vdW  Elec       q    Type
REMARK                         _______ _______ _______ _____ _____    ______ ____
ROOT
ATOM      1  O   UNL     1      -0.244   3.282  25.830  0.00  0.00    -0.222 OA
ATOM      2  C   UNL     1      -0.633   2.652  25.467  0.00  0.00    +0.170 C 
ATOM      3  C   UNL     1      -0.409   1.858  25.505  0.00  0.00    +0.060 C 
ATOM      4  C   UNL     1      -0.952   1.419  25.064  0.00  0.00    +0.140 C 
ATOM      5  N   UNL     1      -1.510   1.942  24.754  0.00  0.00    -0.260 NA
ATOM     14  C   UNL     1      -1.313   2.703  25.004  0.00  0.00    +0.106 C 
ENDROOT
BRANCH   4  15
ATOM     15  C   UNL     1      -0.938   0.602  24.952  0.00  0.00    +0.251 A 
ATOM     16  N   UNL     1      -1.318   0.042  25.424  0.00  0.00    -0.193 NA
ATOM     17  C   UNL     1      -1.156  -0.704  25.112  0.00  0.00    +0.185 A 
ATOM     25  N   UNL     1      -0.677  -0.606  24.448  0.00  0.00    -0.060 NA
ATOM     26  O   UNL     1      -0.542   0.202  24.349  0.00  0.00    -0.336 OA
BRANCH  17  18
ATOM     18  C   UNL     1      -1.426  -1.424  25.413  0.00  0.00    +0.095 C 
BRANCH  18  19
ATOM     19  C   UNL     1      -2.156  -1.724  25.172  0.00  0.00    -0.014 A 
ATOM     20  C   UNL     1      -2.845  -1.493  25.561  0.00  0.00    -0.004 A 
ATOM     21  C   UNL     1      -3.575  -1.793  25.320  0.00  0.00    -0.000 A 
ATOM     22  C   UNL     1      -3.615  -2.324  24.690  0.00  0.00    -0.000 A 
ATOM     23  C   UNL     1      -2.924  -2.555  24.300  0.00  0.00    -0.000 A 
ATOM     24  C   UNL     1      -2.196  -2.255  24.542  0.00  0.00    -0.004 A 
ENDBRANCH  18  19
ENDBRANCH  17  18
ENDBRANCH   4  15
BRANCH   5   6
ATOM      6  C   UNL     1      -2.153   1.739  24.279  0.00  0.00    +0.103 C 
BRANCH   6   7
ATOM      7  C   UNL     1      -2.821   2.224  24.257  0.00  0.00    +0.033 A 
ATOM      8  C   UNL     1      -3.133   2.465  23.533  0.00  0.00    +0.193 A 
ATOM      9  O   UNL     1      -2.778   2.220  22.829  0.00  0.00    -0.287 OA
ATOM     10  C   UNL     1      -3.800   2.949  23.512  0.00  0.00    +0.042 A 
ATOM     11  C   UNL     1      -4.155   3.194  24.216  0.00  0.00    +0.003 A 
ATOM     12  C   UNL     1      -3.842   2.954  24.940  0.00  0.00    -0.000 A 
ATOM     13  C   UNL     1      -3.175   2.469  24.962  0.00  0.00    +0.000 A 
ENDBRANCH   6   7
ENDBRANCH   5   6
TORSDOF 5
ENDMDL
MODEL 5
REMARK VINA RESULT:     -11.8      1.864      3.013
REMARK  Name = 
REMARK  5 active torsions:
REMARK  status: ('A' for Active; 'I' for Inactive)
REMARK    1  A    between atoms: C_4  and  C_15
REMARK    2  A    between atoms: N_5  and  C_6
REMARK    3  A    between atoms: C_6  and  C_7
REMARK    4  A    between atoms: C_17  and  C_18
REMARK    5  A    between atoms: C_18  and  C_19
REMARK                            x       y       z     vdW  Elec       q    Type
REMARK                         _______ _______ _______ _____ _____    ______ ____
ROOT
ATOM      1  O   UNL     1       0.060  -0.561  23.932  0.00  0.00    -0.222 OA
ATOM      2  C   UNL     1      -0.642  -0.245  24.228  0.00  0.00    +0.170 C 
ATOM      3  C   UNL     1      -0.840   0.556  24.253  0.00  0.00    +0.060 C 
ATOM      4  C   UNL     1      -1.591   0.622  24.591  0.00  0.00    +0.140 C 
ATOM      5  N   UNL     1      -1.856  -0.137  24.774  0.00  0.00    -0.260 NA
ATOM     14  C   UNL     1      -1.269  -0.673  24.549  0.00  0.00    +0.106 C 
ENDROOT
BRANCH   4  15
ATOM     15  C   UNL     1      -2.003   1.324  24.723  0.00  0.00    +0.251 A 
ATOM     16  N   UNL     1      -2.630   1.611  24.270  0.00  0.00    -0.193 NA
ATOM     17  C   UNL     1      -2.874   2.327  24.599  0.00  0.00    +0.185 A 
ATOM     25  N   UNL     1      -2.398   2.484  25.254  0.00  0.00    -0.060 NA
ATOM     26  O   UNL     1      -1.859   1.864  25.331  0.00  0.00    -0.336 OA
BRANCH  17  18
ATOM     18  C   UNL     1      -3.487   2.804  24.320  0.00  0.00    +0.095 C 
BRANCH  18  19
ATOM     19  C   UNL     1      -4.230   2.773  24.678  0.00  0.00    -0.014 A 
ATOM     20  C   UNL     1      -4.778   2.205  24.442  0.00  0.00    -0.004 A 
ATOM     21  C   UNL     1      -5.520   2.174  24.801  0.00  0.00    -0.000 A 
ATOM     22  C   UNL     1      -5.714   2.712  25.395  0.00  0.00    -0.000 A 
ATOM     23  C   UNL     1      -5.164   3.281  25.631  0.00  0.00    -0.000 A 
ATOM     24  C   UNL     1      -4.423   3.312  25.273  0.00  0.00    -0.004 A 
ENDBRANCH  18  19
ENDBRANCH  17  18
ENDBRANCH   4  15
BRANCH   5   6
ATOM      6  C   UNL     1      -2.579  -0.328  25.121  0.00  0.00    +0.103 C 
BRANCH   6   7
ATOM      7  C   UNL     1      -2.913  -1.073  24.997  0.00  0.00    +0.033 A 
ATOM      8  C   UNL     1      -3.154  -1.529  25.641  0.00  0.00    +0.193 A 
ATOM      9  O   UNL     1      -3.062  -1.240  26.408  0.00  0.00    -0.287 OA
ATOM     10  C   UNL     1      -3.488  -2.273  25.517  0.00  0.00    +0.042 A 
ATOM     11  C   UNL     1      -3.580  -2.562  24.749  0.00  0.00    +0.003 A 
ATOM     12  C   UNL     1      -3.338  -2.106  24.106  0.00  0.00    -0.000 A 
ATOM     13  C   UNL     1      -3.005  -1.361  24.230  0.00  0.00    +0.000 A 
ENDBRANCH   6   7
ENDBRANCH   5   6
TORSDOF 5
ENDMDL
MODEL 6
REMARK VINA RESULT:     -11.7      1.649      2.596
REMARK  Name = 
REMARK  5 active torsions:
REMARK  status: ('A' for Active; 'I' for Inactive)
REMARK    1  A    between atoms: C_4  and  C_15
REMARK    2  A    between atoms: N_5  and  C_6
REMARK    3  A    between atoms: C_6  and  C_7
REMARK    4  A    between atoms: C_17  and  C_18
REMARK    5  A    between atoms: C_18  and  C_19
REMARK                            x       y       z     vdW  Elec       q    Type
REMARK                         _______ _______ _______ _____ _____    ______ ____
ROOT
ATOM      1  O   UNL     1      -0.203  -1.708  24.695  0.00  0.00    -0.222 OA
ATOM      2  C   UNL     1      -0.577  -0.974  24.665  0.00  0.00    +0.170 C 
ATOM      3  C   UNL     1      -0.204  -0.238  24.685  0.00  0.00    +0.060 C 
ATOM      4  C   UNL     1      -0.787   0.345  24.642  0.00  0.00    +0.140 C 
ATOM      5  N   UNL     1      -1.520  -0.031  24.596  0.00  0.00    -0.260 NA
ATOM     14  C   UNL     1      -1.390  -0.846  24.610  0.00  0.00    +0.106 C 
ENDROOT
BRANCH   4  15
ATOM     15  C   UNL     1      -0.660   1.160  24.645  0.00  0.00    +0.251 A 
ATOM     16  N   UNL     1      -0.649   1.647  25.311  0.00  0.00    -0.193 NA
ATOM     17  C   UNL     1      -0.502   2.418  25.059  0.00  0.00    +0.185 A 
ATOM     25  N   UNL     1      -0.423   2.409  24.238  0.00  0.00    -0.060 NA
ATOM     26  O   UNL     1      -0.520   1.631  23.982  0.00  0.00    -0.336 OA
BRANCH  17  18
ATOM     18  C   UNL     1      -0.446   3.084  25.544  0.00  0.00    +0.095 C 
BRANCH  18  19
ATOM     19  C   UNL     1      -1.008   3.685  25.487  0.00  0.00    -0.014 A 
ATOM     20  C   UNL     1      -1.756   3.583  25.816  0.00  0.00    -0.004 A 
ATOM     21  C   UNL     1      -2.318   4.184  25.759  0.00  0.00    -0.000 A 
ATOM     22  C   UNL     1      -2.130   4.888  25.373  0.00  0.00    -0.000 A 
ATOM     23  C   UNL     1      -1.380   4.991  25.043  0.00  0.00    -0.000 A 
ATOM     24  C   UNL     1      -0.820   4.390  25.101  0.00  0.00    -0.004 A 
ENDBRANCH  18  19
ENDBRANCH  17  18
ENDBRANCH   4  15
BRANCH   5   6
ATOM      6  C   UNL     1      -2.254   0.342  24.544  0.00  0.00    +0.103 C 
BRANCH   6   7
ATOM      7  C   UNL     1      -2.948  -0.099  24.618  0.00  0.00    +0.033 A 
ATOM      8  C   UNL     1      -3.545  -0.027  24.055  0.00  0.00    +0.193 A 
ATOM      9  O   UNL     1      -3.450   0.487  23.416  0.00  0.00    -0.287 OA
ATOM     10  C   UNL     1      -4.238  -0.468  24.129  0.00  0.00    +0.042 A 
ATOM     11  C   UNL     1      -4.334  -0.982  24.767  0.00  0.00    +0.003 A 
ATOM     12  C   UNL     1      -3.737  -1.054  25.331  0.00  0.00    -0.000 A 
ATOM     13  C   UNL     1      -3.043  -0.613  25.257  0.00  0.00    +0.000 A 
ENDBRANCH   6   7
ENDBRANCH   5   6
TORSDOF 5
ENDMDL
