MODEL 1
REMARK VINA RESULT:     -12.0      0.000      0.000
REMARK  Name = 
REMARK  3 active torsions:
REMARK  status: ('A' for Active; 'I' for Inactive)
REMARK    1  A    between atoms: C_4  and  C_13
REMARK    2  A    between atoms: N_5  and  C_7
REMARK    3  A    between atoms: C_15  and  C_18
REMARK                            x       y       z     vdW  Elec       q    Type
REMARK                         _______ _______ _______ _____ _____    ______ ____
ROOT
ATOM      1  O   UNL     1      -5.831   3.011  25.340  0.00  0.00    -0.222 OA
ATOM      2  C   UNL     1      -5.187   2.554  25.100  0.00  0.00    +0.170 C 
ATOM      3  C   UNL     1      -5.037   1.774  25.324  0.00  0.00    +0.060 C 
ATOM      4  C   UNL     1      -4.339   1.534  24.956  0.00  0.00    +0.140 C 
ATOM      5  N   UNL     1      -4.058   2.166  24.505  0.00  0.00    -0.265 NA
ATOM      6  C   UNL     1      -4.583   2.796  24.595  0.00  0.00    +0.106 C 
ENDROOT
BRANCH   5   7
ATOM      7  C   UNL     1      -3.373   2.168  24.046  0.00  0.00    +0.063 C 
ATOM      8  C   UNL     1      -3.409   1.953  23.250  0.00  0.00    +0.048 C 
ATOM      9  C   UNL     1      -2.724   1.954  22.790  0.00  0.00    +0.144 C 
ATOM     10  O   UNL     1      -2.002   2.170  23.127  0.00  0.00    -0.354 OA
ATOM     11  C   UNL     1      -1.966   2.385  23.922  0.00  0.00    +0.144 C 
ATOM     12  C   UNL     1      -2.651   2.384  24.382  0.00  0.00    +0.048 C 
ENDBRANCH   5   7
BRANCH   4  13
ATOM     13  C   UNL     1      -3.984   0.793  25.026  0.00  0.00    +0.251 A 
ATOM     14  N   UNL     1      -4.233   0.099  24.657  0.00  0.00    -0.190 NA
ATOM     15  C   UNL     1      -3.719  -0.507  24.881  0.00  0.00    +0.203 A 
ATOM     16  N   UNL     1      -3.154  -0.188  25.389  0.00  0.00    -0.056 NA
ATOM     17  O   UNL     1      -3.317   0.616  25.479  0.00  0.00    -0.336 OA
BRANCH  15  18
ATOM     18  C   UNL     1      -3.765  -1.295  24.640  0.00  0.00    +0.039 A 
ATOM     19  C   UNL     1      -3.374  -1.881  25.069  0.00  0.00    +0.003 A 
ATOM     20  C   UNL     1      -3.420  -2.668  24.828  0.00  0.00    +0.000 A 
ATOM     21  C   UNL     1      -3.855  -2.870  24.156  0.00  0.00    +0.000 A 
ATOM     22  C   UNL     1      -4.245  -2.284  23.727  0.00  0.00    +0.000 A 
ATOM     23  C   UNL     1      -4.200  -1.496  23.968  0.00  0.00    +0.003 A 
ENDBRANCH  15  18
ENDBRANCH   4  13
TORSDOF 3
ENDMDL
MODEL 2
REMARK VINA RESULT:     -11.3      1.600      3.928
REMARK  Name = 
REMARK  3 active torsions:
REMARK  status: ('A' for Active; 'I' for Inactive)
REMARK    1  A    between atoms: C_4  and  C_13
REMARK    2  A    between atoms: N_5  and  C_7
REMARK    3  A    between atoms: C_15  and  C_18
REMARK                            x       y       z     vdW  Elec       q    Type
REMARK                         _______ _______ _______ _____ _____    ______ ____
ROOT
ATOM      1  O   UNL     1      -3.949  -3.103  24.203  0.00  0.00    -0.222 OA
ATOM      2  C   UNL     1      -3.646  -2.343  24.317  0.00  0.00    +0.170 C 
ATOM      3  C   UNL     1      -4.037  -1.637  24.149  0.00  0.00    +0.060 C 
ATOM      4  C   UNL     1      -3.533  -1.014  24.347  0.00  0.00    +0.140 C 
ATOM      5  N   UNL     1      -2.832  -1.337  24.638  0.00  0.00    -0.265 NA
ATOM      6  C   UNL     1      -2.902  -2.159  24.619  0.00  0.00    +0.106 C 
ENDROOT
BRANCH   5   7
ATOM      7  C   UNL     1      -2.175  -0.913  24.901  0.00  0.00    +0.063 C 
ATOM      8  C   UNL     1      -2.103  -0.720  25.701  0.00  0.00    +0.048 C 
ATOM      9  C   UNL     1      -1.446  -0.295  25.965  0.00  0.00    +0.144 C 
ATOM     10  O   UNL     1      -0.861  -0.065  25.429  0.00  0.00    -0.354 OA
ATOM     11  C   UNL     1      -0.934  -0.258  24.631  0.00  0.00    +0.144 C 
ATOM     12  C   UNL     1      -1.591  -0.682  24.367  0.00  0.00    +0.048 C 
ENDBRANCH   5   7
BRANCH   4  13
ATOM     13  C   UNL     1      -3.701  -0.210  24.269  0.00  0.00    +0.251 A 
ATOM     14  N   UNL     1      -4.144   0.246  24.795  0.00  0.00    -0.190 NA
ATOM     15  C   UNL     1      -4.172   1.017  24.501  0.00  0.00    +0.203 A 
ATOM     16  N   UNL     1      -3.747   1.037  23.795  0.00  0.00    -0.056 NA
ATOM     17  O   UNL     1      -3.456   0.278  23.651  0.00  0.00    -0.336 OA
BRANCH  15  18
ATOM     18  C   UNL     1      -4.558   1.656  24.853  0.00  0.00    +0.039 A 
ATOM     19  C   UNL     1      -4.143   2.350  25.016  0.00  0.00    +0.003 A 
ATOM     20  C   UNL     1      -4.529   2.988  25.367  0.00  0.00    +0.000 A 
ATOM     21  C   UNL     1      -5.330   2.933  25.557  0.00  0.00    +0.000 A 
ATOM     22  C   UNL     1      -5.745   2.239  25.394  0.00  0.00    +0.000 A 
ATOM     23  C   UNL     1      -5.359   1.600  25.042  0.00  0.00    +0.003 A 
ENDBRANCH  15  18
ENDBRANCH   4  13
TORSDOF 3
ENDMDL
MODEL 3
REMARK VINA RESULT:     -11.3      1.380      2.343
REMARK  Name = 
REMARK  3 active torsions:
REMARK  status: ('A' for Active; 'I' for Inactive)
REMARK    1  A    between atoms: C_4  and  C_13
REMARK    2  A    between atoms: N_5  and  C_7
REMARK    3  A    between atoms: C_15  and  C_18
REMARK                            x       y       z     vdW  Elec       q    Type
REMARK                         _______ _______ _______ _____ _____    ______ ____
ROOT
ATOM      1  O   UNL     1       0.228   1.919  25.333  0.00  0.00    -0.222 OA
ATOM      2  C   UNL     1      -0.531   1.753  25.055  0.00  0.00    +0.170 C 
ATOM      3  C   UNL     1      -1.007   1.124  25.296  0.00  0.00    +0.060 C 
ATOM      4  C   UNL     1      -1.717   1.168  24.877  0.00  0.00    +0.140 C 
ATOM      5  N   UNL     1      -1.678   1.823  24.378  0.00  0.00    -0.265 NA
ATOM      6  C   UNL     1      -0.944   2.185  24.488  0.00  0.00    +0.106 C 
ENDROOT
BRANCH   5   7
ATOM      7  C   UNL     1      -2.269   2.074  23.860  0.00  0.00    +0.063 C 
ATOM      8  C   UNL     1      -2.264   1.819  23.075  0.00  0.00    +0.048 C 
ATOM      9  C   UNL     1      -2.854   2.070  22.555  0.00  0.00    +0.144 C 
ATOM     10  O   UNL     1      -3.450   2.575  22.822  0.00  0.00    -0.354 OA
ATOM     11  C   UNL     1      -3.455   2.829  23.606  0.00  0.00    +0.144 C 
ATOM     12  C   UNL     1      -2.864   2.579  24.125  0.00  0.00    +0.048 C 
ENDBRANCH   5   7
BRANCH   4  13
ATOM     13  C   UNL     1      -2.353   0.648  24.946  0.00  0.00    +0.251 A 
ATOM     14  N   UNL     1      -2.408  -0.100  24.601  0.00  0.00    -0.190 NA
ATOM     15  C   UNL     1      -3.136  -0.426  24.814  0.00  0.00    +0.203 A 
ATOM     16  N   UNL     1      -3.530   0.119  25.290  0.00  0.00    -0.056 NA
ATOM     17  O   UNL     1      -3.047   0.783  25.372  0.00  0.00    -0.336 OA
BRANCH  15  18
ATOM     18  C   UNL     1      -3.419  -1.168  24.589  0.00  0.00    +0.039 A 
ATOM     19  C   UNL     1      -4.026  -1.227  24.033  0.00  0.00    +0.003 A 
ATOM     20  C   UNL     1      -4.308  -1.968  23.809  0.00  0.00    +0.000 A 
ATOM     21  C   UNL     1      -3.985  -2.651  24.140  0.00  0.00    +0.000 A 
ATOM     22  C   UNL     1      -3.379  -2.592  24.696  0.00  0.00    +0.000 A 
ATOM     23  C   UNL     1      -3.095  -1.850  24.921  0.00  0.00    +0.003 A 
ENDBRANCH  15  18
ENDBRANCH   4  13
TORSDOF 3
ENDMDL
