MODEL 1
REMARK VINA RESULT:     -11.7      0.000      0.000
REMARK  Name = 
REMARK  10 active torsions:
REMARK  status: ('A' for Active; 'I' for Inactive)
REMARK    1  A    between atoms: C_2  and  C_4
REMARK    2  A    between atoms: C_4  and  C_5
REMARK    3  A    between atoms: C_4  and  N_13
REMARK    4  A    between atoms: C_5  and  C_6
REMARK    5  A    between atoms: C_14  and  C_16
REMARK    6  A    between atoms: C_18  and  N_19
REMARK    7  A    between atoms: C_20  and  C_22
REMARK    8  A    between atoms: C_22  and  C_23
REMARK    9  A    between atoms: C_23  and  C_24
REMARK   10  A    between atoms: C_24  and  C_25
REMARK                            x       y       z     vdW  Elec       q    Type
REMARK                         _______ _______ _______ _____ _____    ______ ____
ROOT
ATOM     16  C   UNL     1      -0.697   1.589  24.275  0.00  0.00    +0.033 C 
ATOM     17  C   UNL     1      -1.197   1.020  24.604  0.00  0.00    -0.002 C 
ATOM     18  C   UNL     1      -1.002   0.220  24.550  0.00  0.00    +0.150 C 
ATOM     32  C   UNL     1      -0.309  -0.011  24.169  0.00  0.00    +0.206 C 
ATOM     33  O   UNL     1      -0.114  -0.811  24.116  0.00  0.00    -0.218 OA
ATOM     34  C   UNL     1       0.191   0.557  23.841  0.00  0.00    +0.189 C 
ATOM     35  O   UNL     1       0.885   0.326  23.460  0.00  0.00    -0.220 OA
ATOM     36  C   UNL     1      -0.004   1.358  23.894  0.00  0.00    +0.066 C 
ENDROOT
BRANCH  16  14
ATOM     13  N   UNL     1      -1.484   2.635  24.850  0.00  0.00    -0.194 NA
ATOM     14  C   UNL     1      -0.892   2.389  24.329  0.00  0.00    +0.261 C 
ATOM     15  O   UNL     1      -0.497   2.942  23.862  0.00  0.00    -0.269 OA
BRANCH  13   4
ATOM      4  C   UNL     1      -1.679   3.434  24.904  0.00  0.00    +0.179 C 
BRANCH   4   2
ATOM      1  N   UNL     1      -0.979   4.660  25.121  0.00  0.00    -0.086 NA
ATOM      2  C   UNL     1      -1.247   3.932  25.400  0.00  0.00    +0.281 C 
ATOM      3  O   UNL     1      -1.085   3.702  26.175  0.00  0.00    -0.270 OA
ENDBRANCH   4   2
BRANCH   4   5
ATOM      5  C   UNL     1      -2.306   3.735  24.460  0.00  0.00    +0.057 C 
BRANCH   5   6
ATOM      6  C   UNL     1      -3.084   3.592  24.697  0.00  0.00    -0.020 A 
ATOM      7  C   UNL     1      -3.632   3.297  24.154  0.00  0.00    -0.001 A 
ATOM      8  C   UNL     1      -4.410   3.155  24.391  0.00  0.00    +0.042 A 
ATOM      9  C   UNL     1      -4.639   3.306  25.169  0.00  0.00    +0.196 A 
ATOM     10  O   UNL     1      -5.416   3.163  25.405  0.00  0.00    -0.287 OA
ATOM     11  C   UNL     1      -4.091   3.600  25.710  0.00  0.00    +0.042 A 
ATOM     12  C   UNL     1      -3.313   3.743  25.475  0.00  0.00    -0.001 A 
ENDBRANCH   5   6
ENDBRANCH   4   5
ENDBRANCH  13   4
ENDBRANCH  16  14
BRANCH  18  19
ATOM     19  N   UNL     1      -1.502  -0.349  24.879  0.00  0.00    -0.200 NA
ATOM     20  C   UNL     1      -2.261  -0.456  24.575  0.00  0.00    +0.242 C 
ATOM     21  O   UNL     1      -2.521   0.006  23.942  0.00  0.00    -0.273 OA
BRANCH  20  22
ATOM     22  C   UNL     1      -2.760  -1.024  24.903  0.00  0.00    +0.087 C 
BRANCH  22  23
ATOM     23  C   UNL     1      -3.563  -1.030  24.709  0.00  0.00    +0.019 C 
ATOM     28  C   UNL     1      -3.609  -0.413  25.254  0.00  0.00    +0.001 C 
ATOM     29  C   UNL     1      -4.396  -0.165  25.292  0.00  0.00    +0.000 C 
ATOM     30  C   UNL     1      -4.835  -0.630  24.770  0.00  0.00    +0.000 C 
ATOM     31  C   UNL     1      -4.320  -1.165  24.410  0.00  0.00    +0.001 C 
BRANCH  23  24
ATOM     24  C   UNL     1      -3.348  -1.648  24.205  0.00  0.00    +0.115 C 
BRANCH  24  25
ATOM     25  C   UNL     1      -3.615  -2.414  24.355  0.00  0.00    +0.365 C 
ATOM     26  O   UNL     1      -3.382  -2.805  25.042  0.00  0.00    -0.246 OA
ATOM     27  O   UNL     1      -4.116  -2.788  23.817  0.00  0.00    -0.246 OA
ENDBRANCH  24  25
ENDBRANCH  23  24
ENDBRANCH  22  23
ENDBRANCH  20  22
ENDBRANCH  18  19
TORSDOF 10
ENDMDL
MODEL 2
REMARK VINA RESULT:     -11.7      1.349      3.372
REMARK  Name = 
REMARK  10 active torsions:
REMARK  status: ('A' for Active; 'I' for Inactive)
REMARK    1  A    between atoms: C_2  and  C_4
REMARK    2  A    between atoms: C_4  and  C_5
REMARK    3  A    between atoms: C_4  and  N_13
REMARK    4  A    between atoms: C_5  and  C_6
REMARK    5  A    between atoms: C_14  and  C_16
REMARK    6  A    between atoms: C_18  and  N_19
REMARK    7  A    between atoms: C_20  and  C_22
REMARK    8  A    between atoms: C_22  and  C_23
REMARK    9  A    between atoms: C_23  and  C_24
REMARK   10  A    between atoms: C_24  and  C_25
REMARK                            x       y       z     vdW  Elec       q    Type
REMARK                         _______ _______ _______ _____ _____    ______ ____
ROOT
ATOM     16  C   UNL     1      -4.129   2.633  24.831  0.00  0.00    +0.033 C 
ATOM     17  C   UNL     1      -3.922   1.890  24.537  0.00  0.00    -0.002 C 
ATOM     18  C   UNL     1      -4.466   1.271  24.563  0.00  0.00    +0.150 C 
ATOM     32  C   UNL     1      -5.216   1.394  24.881  0.00  0.00    +0.206 C 
ATOM     33  O   UNL     1      -5.760   0.773  24.907  0.00  0.00    -0.218 OA
ATOM     34  C   UNL     1      -5.423   2.136  25.175  0.00  0.00    +0.189 C 
ATOM     35  O   UNL     1      -6.174   2.259  25.494  0.00  0.00    -0.220 OA
ATOM     36  C   UNL     1      -4.879   2.756  25.149  0.00  0.00    +0.066 C 
ENDROOT
BRANCH  16  14
ATOM     13  N   UNL     1      -2.921   3.239  25.296  0.00  0.00    -0.194 NA
ATOM     14  C   UNL     1      -3.584   3.253  24.805  0.00  0.00    +0.261 C 
ATOM     15  O   UNL     1      -3.703   3.885  24.288  0.00  0.00    -0.269 OA
BRANCH  13   4
ATOM      4  C   UNL     1      -2.377   3.858  25.270  0.00  0.00    +0.179 C 
BRANCH   4   2
ATOM      1  N   UNL     1      -2.261   5.262  25.503  0.00  0.00    -0.086 NA
ATOM      2  C   UNL     1      -2.468   4.510  25.768  0.00  0.00    +0.281 C 
ATOM      3  O   UNL     1      -2.767   4.407  26.529  0.00  0.00    -0.270 OA
ENDBRANCH   4   2
BRANCH   4   5
ATOM      5  C   UNL     1      -1.741   3.825  24.745  0.00  0.00    +0.057 C 
BRANCH   5   6
ATOM      6  C   UNL     1      -1.111   3.312  24.893  0.00  0.00    -0.020 A 
ATOM      7  C   UNL     1      -0.735   2.929  24.265  0.00  0.00    -0.001 A 
ATOM      8  C   UNL     1      -0.106   2.417  24.413  0.00  0.00    +0.042 A 
ATOM      9  C   UNL     1       0.147   2.286  25.188  0.00  0.00    +0.196 A 
ATOM     10  O   UNL     1       0.776   1.773  25.334  0.00  0.00    -0.287 OA
ATOM     11  C   UNL     1      -0.229   2.668  25.814  0.00  0.00    +0.042 A 
ATOM     12  C   UNL     1      -0.858   3.181  25.667  0.00  0.00    -0.001 A 
ENDBRANCH   5   6
ENDBRANCH   4   5
ENDBRANCH  13   4
ENDBRANCH  16  14
BRANCH  18  19
ATOM     19  N   UNL     1      -4.259   0.527  24.269  0.00  0.00    -0.200 NA
ATOM     20  C   UNL     1      -3.670   0.086  24.643  0.00  0.00    +0.242 C 
ATOM     21  O   UNL     1      -3.289   0.387  25.309  0.00  0.00    -0.273 OA
BRANCH  20  22
ATOM     22  C   UNL     1      -3.463  -0.657  24.349  0.00  0.00    +0.087 C 
BRANCH  22  23
ATOM     23  C   UNL     1      -2.865  -1.093  24.715  0.00  0.00    +0.019 C 
ATOM     28  C   UNL     1      -2.363  -0.591  24.295  0.00  0.00    +0.001 C 
ATOM     29  C   UNL     1      -1.585  -0.803  24.472  0.00  0.00    +0.000 C 
ATOM     30  C   UNL     1      -1.607  -1.435  25.001  0.00  0.00    +0.000 C 
ATOM     31  C   UNL     1      -2.399  -1.615  25.152  0.00  0.00    +0.001 C 
BRANCH  23  24
ATOM     24  C   UNL     1      -3.494  -1.503  25.058  0.00  0.00    +0.115 C 
BRANCH  24  25
ATOM     25  C   UNL     1      -3.643  -2.285  24.841  0.00  0.00    +0.365 C 
ATOM     26  O   UNL     1      -3.525  -2.893  25.385  0.00  0.00    -0.246 OA
ATOM     27  O   UNL     1      -3.910  -2.458  24.081  0.00  0.00    -0.246 OA
ENDBRANCH  24  25
ENDBRANCH  23  24
ENDBRANCH  22  23
ENDBRANCH  20  22
ENDBRANCH  18  19
TORSDOF 10
ENDMDL
MODEL 3
REMARK VINA RESULT:     -11.6      1.269      4.546
REMARK  Name = 
REMARK  10 active torsions:
REMARK  status: ('A' for Active; 'I' for Inactive)
REMARK    1  A    between atoms: C_2  and  C_4
REMARK    2  A    between atoms: C_4  and  C_5
REMARK    3  A    between atoms: C_4  and  N_13
REMARK    4  A    between atoms: C_5  and  C_6
REMARK    5  A    between atoms: C_14  and  C_16
REMARK    6  A    between atoms: C_18  and  N_19
REMARK    7  A    between atoms: C_20  and  C_22
REMARK    8  A    between atoms: C_22  and  C_23
REMARK    9  A    between atoms: C_23  and  C_24
REMARK   10  A    between atoms: C_24  and  C_25
REMARK                            x       y       z     vdW  Elec       q    Type
REMARK                         _______ _______ _______ _____ _____    ______ ____
ROOT
ATOM     16  C   UNL     1      -1.355   1.251  25.190  0.00  0.00    +0.033 C 
ATOM     17  C   UNL     1      -2.073   1.568  24.935  0.00  0.00    -0.002 C 
ATOM     18  C   UNL     1      -2.128   2.370  24.752  0.00  0.00    +0.150 C 
ATOM     32  C   UNL     1      -1.466   2.856  24.823  0.00  0.00    +0.206 C 
ATOM     33  O   UNL     1      -1.521   3.659  24.639  0.00  0.00    -0.218 OA
ATOM     34  C   UNL     1      -0.748   2.540  25.078  0.00  0.00    +0.189 C 
ATOM     35  O   UNL     1      -0.085   3.026  25.149  0.00  0.00    -0.220 OA
ATOM     36  C   UNL     1      -0.693   1.737  25.261  0.00  0.00    +0.066 C 
ENDROOT
BRANCH  16  14
ATOM     13  N   UNL     1      -1.557  -0.117  24.830  0.00  0.00    -0.194 NA
ATOM     14  C   UNL     1      -1.300   0.449  25.374  0.00  0.00    +0.261 C 
ATOM     15  O   UNL     1      -0.989   0.212  26.100  0.00  0.00    -0.269 OA
BRANCH  13   4
ATOM      4  C   UNL     1      -1.502  -0.919  25.013  0.00  0.00    +0.179 C 
BRANCH   4   2
ATOM      1  N   UNL     1      -0.433  -1.790  25.384  0.00  0.00    -0.086 NA
ATOM      2  C   UNL     1      -0.824  -1.343  24.813  0.00  0.00    +0.281 C 
ATOM      3  O   UNL     1      -0.537  -1.320  24.040  0.00  0.00    -0.270 OA
ENDBRANCH   4   2
BRANCH   4   5
ATOM      5  C   UNL     1      -2.127  -1.296  25.398  0.00  0.00    +0.057 C 
BRANCH   5   6
ATOM      6  C   UNL     1      -2.746  -1.621  24.958  0.00  0.00    -0.020 A 
ATOM      7  C   UNL     1      -3.372  -1.142  24.712  0.00  0.00    -0.001 A 
ATOM      8  C   UNL     1      -3.990  -1.466  24.273  0.00  0.00    +0.042 A 
ATOM      9  C   UNL     1      -3.983  -2.268  24.080  0.00  0.00    +0.196 A 
ATOM     10  O   UNL     1      -4.602  -2.591  23.641  0.00  0.00    -0.287 OA
ATOM     11  C   UNL     1      -3.358  -2.746  24.325  0.00  0.00    +0.042 A 
ATOM     12  C   UNL     1      -2.739  -2.422  24.765  0.00  0.00    -0.001 A 
ENDBRANCH   5   6
ENDBRANCH   4   5
ENDBRANCH  13   4
ENDBRANCH  16  14
BRANCH  18  19
ATOM     19  N   UNL     1      -2.847   2.686  24.497  0.00  0.00    -0.200 NA
ATOM     20  C   UNL     1      -3.517   2.625  24.974  0.00  0.00    +0.242 C 
ATOM     21  O   UNL     1      -3.468   2.248  25.706  0.00  0.00    -0.273 OA
BRANCH  20  22
ATOM     22  C   UNL     1      -4.234   2.941  24.719  0.00  0.00    +0.087 C 
BRANCH  22  23
ATOM     23  C   UNL     1      -4.939   2.716  25.087  0.00  0.00    +0.019 C 
ATOM     28  C   UNL     1      -4.918   2.092  24.547  0.00  0.00    +0.001 C 
ATOM     29  C   UNL     1      -5.583   1.621  24.677  0.00  0.00    +0.000 C 
ATOM     30  C   UNL     1      -6.014   1.954  25.297  0.00  0.00    +0.000 C 
ATOM     31  C   UNL     1      -5.616   2.631  25.551  0.00  0.00    +0.001 C 
BRANCH  23  24
ATOM     24  C   UNL     1      -4.811   3.387  25.549  0.00  0.00    +0.115 C 
BRANCH  24  25
ATOM     25  C   UNL     1      -5.277   4.059  25.438  0.00  0.00    +0.365 C 
ATOM     26  O   UNL     1      -5.899   4.220  25.956  0.00  0.00    -0.246 OA
ATOM     27  O   UNL     1      -5.122   4.569  24.809  0.00  0.00    -0.246 OA
ENDBRANCH  24  25
ENDBRANCH  23  24
ENDBRANCH  22  23
ENDBRANCH  20  22
ENDBRANCH  18  19
TORSDOF 10
ENDMDL
MODEL 4
REMARK VINA RESULT:     -11.6      1.304      3.963
REMARK  Name = 
REMARK  10 active torsions:
REMARK  status: ('A' for Active; 'I' for Inactive)
REMARK    1  A    between atoms: C_2  and  C_4
REMARK    2  A    between atoms: C_4  and  C_5
REMARK    3  A    between atoms: C_4  and  N_13
REMARK    4  A    between atoms: C_5  and  C_6
REMARK    5  A    between atoms: C_14  and  C_16
REMARK    6  A    between atoms: C_18  and  N_19
REMARK    7  A    between atoms: C_20  and  C_22
REMARK    8  A    between atoms: C_22  and  C_23
REMARK    9  A    between atoms: C_23  and  C_24
REMARK   10  A    between atoms: C_24  and  C_25
REMARK                            x       y       z     vdW  Elec       q    Type
REMARK                         _______ _______ _______ _____ _____    ______ ____
ROOT
ATOM     16  C   UNL     1      -2.290  -0.751  24.488  0.00  0.00    +0.033 C 
ATOM     17  C   UNL     1      -2.864  -0.169  24.367  0.00  0.00    -0.002 C 
ATOM     18  C   UNL     1      -3.658  -0.382  24.300  0.00  0.00    +0.150 C 
ATOM     32  C   UNL     1      -3.879  -1.174  24.353  0.00  0.00    +0.206 C 
ATOM     33  O   UNL     1      -4.674  -1.386  24.285  0.00  0.00    -0.218 OA
ATOM     34  C   UNL     1      -3.307  -1.755  24.473  0.00  0.00    +0.189 C 
ATOM     35  O   UNL     1      -3.528  -2.548  24.526  0.00  0.00    -0.220 OA
ATOM     36  C   UNL     1      -2.512  -1.543  24.541  0.00  0.00    +0.066 C 
ENDROOT
BRANCH  16  14
ATOM     13  N   UNL     1      -1.234   0.181  24.246  0.00  0.00    -0.194 NA
ATOM     14  C   UNL     1      -1.496  -0.539  24.555  0.00  0.00    +0.261 C 
ATOM     15  O   UNL     1      -0.964  -1.045  24.931  0.00  0.00    -0.269 OA
BRANCH  13   4
ATOM      4  C   UNL     1      -0.440   0.393  24.314  0.00  0.00    +0.179 C 
BRANCH   4   2
ATOM      1  N   UNL     1       0.784  -0.216  23.899  0.00  0.00    -0.086 NA
ATOM      2  C   UNL     1       0.093   0.195  23.716  0.00  0.00    +0.281 C 
ATOM      3  O   UNL     1      -0.066   0.408  22.935  0.00  0.00    -0.270 OA
ENDBRANCH   4   2
BRANCH   4   5
ATOM      5  C   UNL     1      -0.179   0.803  24.980  0.00  0.00    +0.057 C 
BRANCH   5   6
ATOM      6  C   UNL     1      -0.344   1.609  25.058  0.00  0.00    -0.020 A 
ATOM      7  C   UNL     1      -0.597   1.909  25.785  0.00  0.00    -0.001 A 
ATOM      8  C   UNL     1      -0.762   2.713  25.863  0.00  0.00    +0.042 A 
ATOM      9  C   UNL     1      -0.673   3.218  25.216  0.00  0.00    +0.196 A 
ATOM     10  O   UNL     1      -0.838   4.022  25.295  0.00  0.00    -0.287 OA
ATOM     11  C   UNL     1      -0.421   2.918  24.491  0.00  0.00    +0.042 A 
ATOM     12  C   UNL     1      -0.256   2.113  24.412  0.00  0.00    -0.001 A 
ENDBRANCH   5   6
ENDBRANCH   4   5
ENDBRANCH  13   4
ENDBRANCH  16  14
BRANCH  18  19
ATOM     19  N   UNL     1      -4.231   0.200  24.179  0.00  0.00    -0.200 NA
ATOM     20  C   UNL     1      -4.295   0.831  24.706  0.00  0.00    +0.242 C 
ATOM     21  O   UNL     1      -3.786   0.881  25.354  0.00  0.00    -0.273 OA
BRANCH  20  22
ATOM     22  C   UNL     1      -4.868   1.412  24.586  0.00  0.00    +0.087 C 
BRANCH  22  23
ATOM     23  C   UNL     1      -4.745   2.178  24.870  0.00  0.00    +0.019 C 
ATOM     28  C   UNL     1      -4.361   2.290  24.148  0.00  0.00    +0.001 C 
ATOM     29  C   UNL     1      -4.086   3.068  24.124  0.00  0.00    +0.000 C 
ATOM     30  C   UNL     1      -4.301   3.436  24.831  0.00  0.00    +0.000 C 
ATOM     31  C   UNL     1      -4.709   2.886  25.292  0.00  0.00    +0.001 C 
BRANCH  23  24
ATOM     24  C   UNL     1      -5.156   1.905  25.532  0.00  0.00    +0.115 C 
BRANCH  24  25
ATOM     25  C   UNL     1      -5.914   2.188  25.692  0.00  0.00    +0.365 C 
ATOM     26  O   UNL     1      -6.530   2.040  25.163  0.00  0.00    -0.246 OA
ATOM     27  O   UNL     1      -6.057   2.619  26.380  0.00  0.00    -0.246 OA
ENDBRANCH  24  25
ENDBRANCH  23  24
ENDBRANCH  22  23
ENDBRANCH  20  22
ENDBRANCH  18  19
TORSDOF 10
ENDMDL
MODEL 5
REMARK VINA RESULT:     -11.6      1.442      5.580
REMARK  Name = 
REMARK  10 active torsions:
REMARK  status: ('A' for Active; 'I' for Inactive)
REMARK    1  A    between atoms: C_2  and  C_4
REMARK    2  A    between atoms: C_4  and  C_5
REMARK    3  A    between atoms: C_4  and  N_13
REMARK    4  A    between atoms: C_5  and  C_6
REMARK    5  A    between atoms: C_14  and  C_16
REMARK    6  A    between atoms: C_18  and  N_19
REMARK    7  A    between atoms: C_20  and  C_22
REMARK    8  A    between atoms: C_22  and  C_23
REMARK    9  A    between atoms: C_23  and  C_24
REMARK   10  A    between atoms: C_24  and  C_25
REMARK                            x       y       z     vdW  Elec       q    Type
REMARK                         _______ _______ _______ _____ _____    ______ ____
ROOT
ATOM     16  C   UNL     1      -4.388   1.097  24.841  0.00  0.00    +0.033 C 
ATOM     17  C   UNL     1      -3.726   1.540  24.623  0.00  0.00    -0.002 C 
ATOM     18  C   UNL     1      -3.790   2.357  24.530  0.00  0.00    +0.150 C 
ATOM     32  C   UNL     1      -4.514   2.731  24.655  0.00  0.00    +0.206 C 
ATOM     33  O   UNL     1      -4.578   3.549  24.562  0.00  0.00    -0.218 OA
ATOM     34  C   UNL     1      -5.175   2.289  24.873  0.00  0.00    +0.189 C 
ATOM     35  O   UNL     1      -5.900   2.663  24.998  0.00  0.00    -0.220 OA
ATOM     36  C   UNL     1      -5.112   1.471  24.966  0.00  0.00    +0.066 C 
ENDROOT
BRANCH  16  14
ATOM     13  N   UNL     1      -3.764  -0.142  24.498  0.00  0.00    -0.194 NA
ATOM     14  C   UNL     1      -4.324   0.280  24.934  0.00  0.00    +0.261 C 
ATOM     15  O   UNL     1      -4.819  -0.116  25.462  0.00  0.00    -0.269 OA
BRANCH  13   4
ATOM      4  C   UNL     1      -3.700  -0.959  24.591  0.00  0.00    +0.179 C 
BRANCH   4   2
ATOM      1  N   UNL     1      -4.441  -2.149  24.319  0.00  0.00    -0.086 NA
ATOM      2  C   UNL     1      -4.065  -1.466  24.052  0.00  0.00    +0.281 C 
ATOM      3  O   UNL     1      -4.055  -1.288  23.247  0.00  0.00    -0.270 OA
ENDBRANCH   4   2
BRANCH   4   5
ATOM      5  C   UNL     1      -3.270  -1.268  25.223  0.00  0.00    +0.057 C 
BRANCH   5   6
ATOM      6  C   UNL     1      -2.446  -1.304  25.183  0.00  0.00    -0.020 A 
ATOM      7  C   UNL     1      -1.988  -0.925  25.757  0.00  0.00    -0.001 A 
ATOM      8  C   UNL     1      -1.165  -0.961  25.716  0.00  0.00    +0.042 A 
ATOM      9  C   UNL     1      -0.799  -1.374  25.103  0.00  0.00    +0.196 A 
ATOM     10  O   UNL     1       0.024  -1.409  25.063  0.00  0.00    -0.287 OA
ATOM     11  C   UNL     1      -1.256  -1.752  24.530  0.00  0.00    +0.042 A 
ATOM     12  C   UNL     1      -2.080  -1.717  24.570  0.00  0.00    -0.001 A 
ENDBRANCH   5   6
ENDBRANCH   4   5
ENDBRANCH  13   4
ENDBRANCH  16  14
BRANCH  18  19
ATOM     19  N   UNL     1      -3.129   2.801  24.312  0.00  0.00    -0.200 NA
ATOM     20  C   UNL     1      -2.489   2.868  24.829  0.00  0.00    +0.242 C 
ATOM     21  O   UNL     1      -2.511   2.492  25.563  0.00  0.00    -0.273 OA
BRANCH  20  22
ATOM     22  C   UNL     1      -1.828   3.311  24.611  0.00  0.00    +0.087 C 
BRANCH  22  23
ATOM     23  C   UNL     1      -1.144   3.286  25.073  0.00  0.00    +0.019 C 
ATOM     28  C   UNL     1      -0.993   2.590  24.657  0.00  0.00    +0.001 C 
ATOM     29  C   UNL     1      -0.277   2.282  24.928  0.00  0.00    +0.000 C 
ATOM     30  C   UNL     1       0.013   2.787  25.512  0.00  0.00    +0.000 C 
ATOM     31  C   UNL     1      -0.523   3.409  25.601  0.00  0.00    +0.001 C 
BRANCH  23  24
ATOM     24  C   UNL     1      -1.440   3.988  25.392  0.00  0.00    +0.115 C 
BRANCH  24  25
ATOM     25  C   UNL     1      -1.167   4.715  25.111  0.00  0.00    +0.365 C 
ATOM     26  O   UNL     1      -1.535   5.413  25.349  0.00  0.00    -0.246 OA
ATOM     27  O   UNL     1      -0.526   4.742  24.592  0.00  0.00    -0.246 OA
ENDBRANCH  24  25
ENDBRANCH  23  24
ENDBRANCH  22  23
ENDBRANCH  20  22
ENDBRANCH  18  19
TORSDOF 10
ENDMDL
MODEL 6
REMARK VINA RESULT:     -11.1      1.278      4.331
REMARK  Name = 
REMARK  10 active torsions:
REMARK  status: ('A' for Active; 'I' for Inactive)
REMARK    1  A    between atoms: C_2  and  C_4
REMARK    2  A    between atoms: C_4  and  C_5
REMARK    3  A    between atoms: C_4  and  N_13
REMARK    4  A    between atoms: C_5  and  C_6
REMARK    5  A    between atoms: C_14  and  C_16
REMARK    6  A    between atoms: C_18  and  N_19
REMARK    7  A    between atoms: C_20  and  C_22
REMARK    8  A    between atoms: C_22  and  C_23
REMARK    9  A    between atoms: C_23  and  C_24
REMARK   10  A    between atoms: C_24  and  C_25
REMARK                            x       y       z     vdW  Elec       q    Type
REMARK                         _______ _______ _______ _____ _____    ______ ____
ROOT
ATOM     16  C   UNL     1      -1.308   0.244  24.429  0.00  0.00    +0.033 C 
ATOM     17  C   UNL     1      -1.267   0.963  24.833  0.00  0.00    -0.002 C 
ATOM     18  C   UNL     1      -0.591   1.432  24.771  0.00  0.00    +0.150 C 
ATOM     32  C   UNL     1       0.042   1.184  24.306  0.00  0.00    +0.206 C 
ATOM     33  O   UNL     1       0.718   1.654  24.244  0.00  0.00    -0.218 OA
ATOM     34  C   UNL     1       0.002   0.466  23.902  0.00  0.00    +0.189 C 
ATOM     35  O   UNL     1       0.636   0.218  23.437  0.00  0.00    -0.220 OA
ATOM     36  C   UNL     1      -0.674  -0.004  23.964  0.00  0.00    +0.066 C 
ENDROOT
BRANCH  16  14
ATOM     13  N   UNL     1      -2.614   0.020  24.964  0.00  0.00    -0.194 NA
ATOM     14  C   UNL     1      -1.983  -0.225  24.491  0.00  0.00    +0.261 C 
ATOM     15  O   UNL     1      -2.029  -0.940  24.081  0.00  0.00    -0.269 OA
BRANCH  13   4
ATOM      4  C   UNL     1      -3.289  -0.449  25.026  0.00  0.00    +0.179 C 
BRANCH   4   2
ATOM      1  N   UNL     1      -3.561  -1.826  25.288  0.00  0.00    -0.086 NA
ATOM      2  C   UNL     1      -3.302  -1.088  25.547  0.00  0.00    +0.281 C 
ATOM      3  O   UNL     1      -3.055  -0.988  26.328  0.00  0.00    -0.270 OA
ENDBRANCH   4   2
BRANCH   4   5
ATOM      5  C   UNL     1      -3.952  -0.278  24.566  0.00  0.00    +0.057 C 
BRANCH   5   6
ATOM      6  C   UNL     1      -4.392   0.405  24.713  0.00  0.00    -0.020 A 
ATOM      7  C   UNL     1      -4.400   1.018  24.160  0.00  0.00    -0.001 A 
ATOM      8  C   UNL     1      -4.839   1.700  24.308  0.00  0.00    +0.042 A 
ATOM      9  C   UNL     1      -5.269   1.771  25.008  0.00  0.00    +0.196 A 
ATOM     10  O   UNL     1      -5.708   2.453  25.155  0.00  0.00    -0.287 OA
ATOM     11  C   UNL     1      -5.261   1.159  25.560  0.00  0.00    +0.042 A 
ATOM     12  C   UNL     1      -4.822   0.476  25.414  0.00  0.00    -0.001 A 
ENDBRANCH   5   6
ENDBRANCH   4   5
ENDBRANCH  13   4
ENDBRANCH  16  14
BRANCH  18  19
ATOM     19  N   UNL     1      -0.550   2.151  25.175  0.00  0.00    -0.200 NA
ATOM     20  C   UNL     1      -1.063   2.766  24.976  0.00  0.00    +0.242 C 
ATOM     21  O   UNL     1      -1.616   2.663  24.372  0.00  0.00    -0.273 OA
BRANCH  20  22
ATOM     22  C   UNL     1      -1.022   3.484  25.380  0.00  0.00    +0.087 C 
BRANCH  22  23
ATOM     23  C   UNL     1      -1.702   3.941  25.478  0.00  0.00    +0.019 C 
ATOM     28  C   UNL     1      -1.845   3.434  26.113  0.00  0.00    +0.001 C 
ATOM     29  C   UNL     1      -2.555   3.664  26.467  0.00  0.00    +0.000 C 
ATOM     30  C   UNL     1      -2.849   4.313  26.051  0.00  0.00    +0.000 C 
ATOM     31  C   UNL     1      -2.322   4.485  25.440  0.00  0.00    +0.001 C 
BRANCH  23  24
ATOM     24  C   UNL     1      -1.415   4.353  24.823  0.00  0.00    +0.115 C 
BRANCH  24  25
ATOM     25  C   UNL     1      -1.067   5.095  24.921  0.00  0.00    +0.365 C 
ATOM     26  O   UNL     1      -0.247   5.161  24.974  0.00  0.00    -0.246 OA
ATOM     27  O   UNL     1      -1.540   5.769  24.968  0.00  0.00    -0.246 OA
ENDBRANCH  24  25
ENDBRANCH  23  24
ENDBRANCH  22  23
ENDBRANCH  20  22
ENDBRANCH  18  19
TORSDOF 10
ENDMDL
