MODEL 1
REMARK VINA RESULT:     -12.1      0.000      0.000
REMARK  Name = 
REMARK  3 active torsions:
REMARK  status: ('A' for Active; 'I' for Inactive)
REMARK    1  A    between atoms: S_2  and  C_3
REMARK    2  A    between atoms: C_3  and  C_4
REMARK    3  A    between atoms: C_13  and  C_20
REMARK                            x       y       z     vdW  Elec       q    Type
REMARK                         _______ _______ _______ _____ _____    ______ ____
ROOT
ATOM      4  C   UNL     1      -4.240   2.796  24.390  0.00  0.00    +0.237 C 
ATOM      5  O   UNL     1      -4.325   3.615  24.348  0.00  0.00    -0.274 OA
ATOM      6  N   UNL     1      -3.648   2.420  23.955  0.00  0.00    -0.278 N 
ATOM      7  C   UNL     1      -3.001   2.331  23.435  0.00  0.00    +0.095 C 
ATOM      8  C   UNL     1      -2.888   1.350  23.477  0.00  0.00    +0.043 C 
ATOM      9  C   UNL     1      -2.667   0.569  23.403  0.00  0.00    +0.011 C 
ATOM     10  C   UNL     1      -3.151   0.941  23.750  0.00  0.00    +0.058 C 
ATOM     11  C   UNL     1      -3.247   1.890  23.698  0.00  0.00    +0.099 C 
ATOM     12  C   UNL     1      -3.850   0.843  24.339  0.00  0.00    +0.042 A 
ATOM     13  C   UNL     1      -4.259   0.261  24.756  0.00  0.00    +0.018 A 
ATOM     14  C   UNL     1      -4.889   0.470  25.245  0.00  0.00    +0.006 A 
ATOM     15  C   UNL     1      -5.110   1.262  25.318  0.00  0.00    +0.061 A 
ATOM     16  C   UNL     1      -4.700   1.844  24.901  0.00  0.00    +0.261 A 
ATOM     17  O   UNL     1      -5.232   2.357  25.267  0.00  0.00    -0.267 OA
ATOM     18  N   UNL     1      -4.071   1.634  24.411  0.00  0.00    -0.299 N 
ATOM     19  C   UNL     1      -3.619   1.257  24.092  0.00  0.00    +0.110 C 
ENDROOT
BRANCH  13  20
ATOM     20  C   UNL     1      -4.038  -0.531  24.683  0.00  0.00    +0.031 A 
ATOM     21  C   UNL     1      -4.281  -1.050  24.090  0.00  0.00    +0.007 A 
ATOM     22  C   UNL     1      -3.929  -1.782  24.231  0.00  0.00    +0.007 A 
ATOM     23  C   UNL     1      -3.467  -1.716  24.912  0.00  0.00    +0.035 A 
ATOM     24  S   UNL     1      -3.534  -0.943  25.191  0.00  0.00    -0.086 S 
ENDBRANCH  13  20
BRANCH   4   3
ATOM      3  C   UNL     1      -4.746   2.353  24.868  0.00  0.00    +0.143 C 
BRANCH   3   2
ATOM      1  C   UNL     1      -5.321   3.325  25.743  0.00  0.00    +0.070 C 
ATOM      2  S   UNL     1      -5.410   2.707  25.205  0.00  0.00    -0.130 S 
ENDBRANCH   3   2
ENDBRANCH   4   3
TORSDOF 3
ENDMDL
MODEL 2
REMARK VINA RESULT:     -11.7      1.185      2.005
REMARK  Name = 
REMARK  3 active torsions:
REMARK  status: ('A' for Active; 'I' for Inactive)
REMARK    1  A    between atoms: S_2  and  C_3
REMARK    2  A    between atoms: C_3  and  C_4
REMARK    3  A    between atoms: C_13  and  C_20
REMARK                            x       y       z     vdW  Elec       q    Type
REMARK                         _______ _______ _______ _____ _____    ______ ____
ROOT
ATOM      4  C   UNL     1      -3.942   3.313  25.163  0.00  0.00    +0.237 C 
ATOM      5  O   UNL     1      -3.948   4.128  25.286  0.00  0.00    -0.274 OA
ATOM      6  N   UNL     1      -4.649   2.886  25.192  0.00  0.00    -0.278 N 
ATOM      7  C   UNL     1      -5.466   2.738  25.277  0.00  0.00    +0.095 C 
ATOM      8  C   UNL     1      -5.474   1.761  25.131  0.00  0.00    +0.043 C 
ATOM      9  C   UNL     1      -5.648   0.971  25.035  0.00  0.00    +0.011 C 
ATOM     10  C   UNL     1      -5.079   1.383  25.022  0.00  0.00    +0.058 C 
ATOM     11  C   UNL     1      -5.088   2.327  25.165  0.00  0.00    +0.099 C 
ATOM     12  C   UNL     1      -4.169   1.351  24.898  0.00  0.00    +0.042 A 
ATOM     13  C   UNL     1      -3.563   0.815  24.737  0.00  0.00    +0.018 A 
ATOM     14  C   UNL     1      -2.784   1.080  24.675  0.00  0.00    +0.006 A 
ATOM     15  C   UNL     1      -2.612   1.881  24.773  0.00  0.00    +0.061 A 
ATOM     16  C   UNL     1      -3.218   2.417  24.933  0.00  0.00    +0.261 A 
ATOM     17  O   UNL     1      -2.609   2.973  24.937  0.00  0.00    -0.267 OA
ATOM     18  N   UNL     1      -3.997   2.152  24.996  0.00  0.00    -0.299 N 
ATOM     19  C   UNL     1      -4.523   1.738  25.002  0.00  0.00    +0.110 C 
ENDROOT
BRANCH  13  20
ATOM     20  C   UNL     1      -3.736   0.014  24.639  0.00  0.00    +0.031 A 
ATOM     21  C   UNL     1      -3.970  -0.349  23.937  0.00  0.00    +0.007 A 
ATOM     22  C   UNL     1      -4.083  -1.151  24.090  0.00  0.00    +0.007 A 
ATOM     23  C   UNL     1      -3.918  -1.284  24.888  0.00  0.00    +0.035 A 
ATOM     24  S   UNL     1      -3.703  -0.565  25.227  0.00  0.00    -0.086 S 
ENDBRANCH  13  20
BRANCH   4   3
ATOM      3  C   UNL     1      -3.231   2.923  25.011  0.00  0.00    +0.143 C 
BRANCH   3   2
ATOM      1  C   UNL     1      -2.207   3.820  25.444  0.00  0.00    +0.070 C 
ATOM      2  S   UNL     1      -2.549   3.358  24.853  0.00  0.00    -0.130 S 
ENDBRANCH   3   2
ENDBRANCH   4   3
TORSDOF 3
ENDMDL
MODEL 3
REMARK VINA RESULT:     -11.4      2.318      3.952
REMARK  Name = 
REMARK  3 active torsions:
REMARK  status: ('A' for Active; 'I' for Inactive)
REMARK    1  A    between atoms: S_2  and  C_3
REMARK    2  A    between atoms: C_3  and  C_4
REMARK    3  A    between atoms: C_13  and  C_20
REMARK                            x       y       z     vdW  Elec       q    Type
REMARK                         _______ _______ _______ _____ _____    ______ ____
ROOT
ATOM      4  C   UNL     1      -2.043  -1.944  24.694  0.00  0.00    +0.237 C 
ATOM      5  O   UNL     1      -1.564  -2.615  24.691  0.00  0.00    -0.274 OA
ATOM      6  N   UNL     1      -2.829  -1.997  24.449  0.00  0.00    -0.278 N 
ATOM      7  C   UNL     1      -3.535  -2.342  24.164  0.00  0.00    +0.095 C 
ATOM      8  C   UNL     1      -4.120  -1.546  24.164  0.00  0.00    +0.043 C 
ATOM      9  C   UNL     1      -4.720  -0.998  24.105  0.00  0.00    +0.011 C 
ATOM     10  C   UNL     1      -4.047  -1.011  24.302  0.00  0.00    +0.058 C 
ATOM     11  C   UNL     1      -3.494  -1.790  24.297  0.00  0.00    +0.099 C 
ATOM     12  C   UNL     1      -3.378  -0.466  24.620  0.00  0.00    +0.042 A 
ATOM     13  C   UNL     1      -3.238   0.318  24.832  0.00  0.00    +0.018 A 
ATOM     14  C   UNL     1      -2.493   0.545  25.103  0.00  0.00    +0.006 A 
ATOM     15  C   UNL     1      -1.887  -0.013  25.162  0.00  0.00    +0.061 A 
ATOM     16  C   UNL     1      -2.027  -0.797  24.949  0.00  0.00    +0.261 A 
ATOM     17  O   UNL     1      -1.238  -0.905  25.160  0.00  0.00    -0.267 OA
ATOM     18  N   UNL     1      -2.773  -1.024  24.678  0.00  0.00    -0.299 N 
ATOM     19  C   UNL     1      -3.416  -0.985  24.495  0.00  0.00    +0.110 C 
ENDROOT
BRANCH  13  20
ATOM     20  C   UNL     1      -3.843   0.876  24.774  0.00  0.00    +0.031 A 
ATOM     21  C   UNL     1      -4.479   0.957  25.292  0.00  0.00    +0.007 A 
ATOM     22  C   UNL     1      -4.948   1.581  25.026  0.00  0.00    +0.007 A 
ATOM     23  C   UNL     1      -4.601   1.886  24.342  0.00  0.00    +0.035 A 
ATOM     24  S   UNL     1      -3.919   1.450  24.187  0.00  0.00    -0.086 S 
ENDBRANCH  13  20
BRANCH   4   3
ATOM      3  C   UNL     1      -1.737  -1.219  24.944  0.00  0.00    +0.143 C 
BRANCH   3   2
ATOM      1  C   UNL     1      -0.313  -1.303  24.861  0.00  0.00    +0.070 C 
ATOM      2  S   UNL     1      -0.997  -1.187  25.306  0.00  0.00    -0.130 S 
ENDBRANCH   3   2
ENDBRANCH   4   3
TORSDOF 3
ENDMDL
MODEL 4
REMARK VINA RESULT:     -11.1      1.920      2.645
REMARK  Name = 
REMARK  3 active torsions:
REMARK  status: ('A' for Active; 'I' for Inactive)
REMARK    1  A    between atoms: S_2  and  C_3
REMARK    2  A    between atoms: C_3  and  C_4
REMARK    3  A    between atoms: C_13  and  C_20
REMARK                            x       y       z     vdW  Elec       q    Type
REMARK                         _______ _______ _______ _____ _____    ______ ____
ROOT
ATOM      4  C   UNL     1      -4.301   3.384  25.408  0.00  0.00    +0.237 C 
ATOM      5  O   UNL     1      -4.988   3.809  25.575  0.00  0.00    -0.274 OA
ATOM      6  N   UNL     1      -3.563   3.703  25.594  0.00  0.00    -0.278 N 
ATOM      7  C   UNL     1      -3.001   4.250  25.880  0.00  0.00    +0.095 C 
ATOM      8  C   UNL     1      -2.170   3.751  25.685  0.00  0.00    +0.043 C 
ATOM      9  C   UNL     1      -1.409   3.476  25.592  0.00  0.00    +0.011 C 
ATOM     10  C   UNL     1      -2.061   3.255  25.456  0.00  0.00    +0.058 C 
ATOM     11  C   UNL     1      -2.855   3.749  25.651  0.00  0.00    +0.099 C 
ATOM     12  C   UNL     1      -2.521   2.544  25.098  0.00  0.00    +0.042 A 
ATOM     13  C   UNL     1      -2.393   1.805  24.756  0.00  0.00    +0.018 A 
ATOM     14  C   UNL     1      -3.034   1.348  24.509  0.00  0.00    +0.006 A 
ATOM     15  C   UNL     1      -3.803   1.630  24.605  0.00  0.00    +0.061 A 
ATOM     16  C   UNL     1      -3.932   2.369  24.947  0.00  0.00    +0.261 A 
ATOM     17  O   UNL     1      -4.727   2.191  24.825  0.00  0.00    -0.267 OA
ATOM     18  N   UNL     1      -3.291   2.826  25.194  0.00  0.00    -0.299 N 
ATOM     19  C   UNL     1      -2.659   3.014  25.313  0.00  0.00    +0.110 C 
ENDROOT
BRANCH  13  20
ATOM     20  C   UNL     1      -1.623   1.523  24.660  0.00  0.00    +0.031 A 
ATOM     21  C   UNL     1      -1.183   1.113  25.225  0.00  0.00    +0.007 A 
ATOM     22  C   UNL     1      -0.447   0.938  24.897  0.00  0.00    +0.007 A 
ATOM     23  C   UNL     1      -0.432   1.240  24.129  0.00  0.00    +0.035 A 
ATOM     24  S   UNL     1      -1.159   1.601  23.983  0.00  0.00    -0.086 S 
ENDBRANCH  13  20
BRANCH   4   3
ATOM      3  C   UNL     1      -4.352   2.640  25.055  0.00  0.00    +0.143 C 
BRANCH   3   2
ATOM      1  C   UNL     1      -5.698   2.208  25.268  0.00  0.00    +0.070 C 
ATOM      2  S   UNL     1      -5.074   2.375  24.755  0.00  0.00    -0.130 S 
ENDBRANCH   3   2
ENDBRANCH   4   3
TORSDOF 3
ENDMDL
