MODEL 1
REMARK VINA RESULT:     -10.8      0.000      0.000
REMARK  Name = 
REMARK  8 active torsions:
REMARK  status: ('A' for Active; 'I' for Inactive)
REMARK    1  A    between atoms: O_2  and  C_3
REMARK    2  A    between atoms: C_6  and  C_9
REMARK    3  A    between atoms: C_11  and  C_12
REMARK    4  A    between atoms: C_12  and  C_13
REMARK    5  A    between atoms: C_18  and  C_19
REMARK    6  A    between atoms: C_19  and  C_20
REMARK    7  A    between atoms: N_22  and  C_24
REMARK    8  A    between atoms: C_24  and  C_25
REMARK                            x       y       z     vdW  Elec       q    Type
REMARK                         _______ _______ _______ _____ _____    ______ ____
ROOT
ATOM     12  C   UNL     1      -4.385   2.026  24.440  0.00  0.00    +0.051 C 
ENDROOT
BRANCH  12  13
ATOM     13  C   UNL     1      -4.737   2.616  24.896  0.00  0.00    +0.024 C 
ATOM     14  C   UNL     1      -5.538   2.565  25.090  0.00  0.00    +0.089 C 
ATOM     15  N   UNL     1      -5.889   3.155  25.546  0.00  0.00    -0.218 NA
ATOM     16  C   UNL     1      -5.441   3.796  25.810  0.00  0.00    +0.089 C 
ATOM     17  C   UNL     1      -4.641   3.846  25.616  0.00  0.00    +0.019 C 
ATOM     18  C   UNL     1      -4.288   3.256  25.159  0.00  0.00    +0.012 C 
BRANCH  18  19
ATOM     19  C   UNL     1      -3.489   3.306  24.966  0.00  0.00    +0.085 C 
BRANCH  19  20
ATOM     20  C   UNL     1      -2.995   3.821  25.382  0.00  0.00    +0.226 C 
ATOM     21  O   UNL     1      -3.219   4.096  26.127  0.00  0.00    -0.275 OA
ATOM     22  N   UNL     1      -2.277   4.059  25.052  0.00  0.00    -0.266 N 
ATOM     23  C   UNL     1      -2.054   3.784  24.308  0.00  0.00    +0.116 C 
BRANCH  22  24
ATOM     24  C   UNL     1      -1.784   4.574  25.468  0.00  0.00    +0.172 C 
BRANCH  24  25
ATOM     25  C   UNL     1      -1.171   4.963  25.077  0.00  0.00    -0.056 C 
ATOM     26  C   UNL     1      -0.558   5.353  24.686  0.00  0.00    -0.012 C 
ENDBRANCH  24  25
ENDBRANCH  22  24
ENDBRANCH  19  20
ENDBRANCH  18  19
ENDBRANCH  12  13
BRANCH  12  11
ATOM      9  C   UNL     1      -4.379  -0.090  24.727  0.00  0.00    +0.177 A 
ATOM     10  C   UNL     1      -4.011   0.605  24.475  0.00  0.00    +0.058 A 
ATOM     11  C   UNL     1      -4.530   1.231  24.610  0.00  0.00    +0.101 A 
ATOM     27  N   UNL     1      -5.219   0.925  24.945  0.00  0.00    -0.081 NA
ATOM     28  O   UNL     1      -5.125   0.108  25.017  0.00  0.00    -0.354 OA
BRANCH   9   6
ATOM      3  C   UNL     1      -3.414  -2.367  24.629  0.00  0.00    +0.139 A 
ATOM      4  C   UNL     1      -3.268  -1.885  25.283  0.00  0.00    +0.037 A 
ATOM      5  C   UNL     1      -3.590  -1.126  25.315  0.00  0.00    +0.006 A 
ATOM      6  C   UNL     1      -4.057  -0.849  24.694  0.00  0.00    +0.037 A 
ATOM      7  C   UNL     1      -4.203  -1.331  24.041  0.00  0.00    +0.006 A 
ATOM      8  C   UNL     1      -3.882  -2.091  24.008  0.00  0.00    +0.037 A 
BRANCH   3   2
ATOM      1  C   UNL     1      -2.293  -3.227  24.419  0.00  0.00    +0.252 C 
ATOM      2  O   UNL     1      -3.092  -3.126  24.597  0.00  0.00    -0.471 OA
ENDBRANCH   3   2
ENDBRANCH   9   6
ENDBRANCH  12  11
TORSDOF 8
ENDMDL
MODEL 2
REMARK VINA RESULT:      -9.4      2.101      3.670
REMARK  Name = 
REMARK  8 active torsions:
REMARK  status: ('A' for Active; 'I' for Inactive)
REMARK    1  A    between atoms: O_2  and  C_3
REMARK    2  A    between atoms: C_6  and  C_9
REMARK    3  A    between atoms: C_11  and  C_12
REMARK    4  A    between atoms: C_12  and  C_13
REMARK    5  A    between atoms: C_18  and  C_19
REMARK    6  A    between atoms: C_19  and  C_20
REMARK    7  A    between atoms: N_22  and  C_24
REMARK    8  A    between atoms: C_24  and  C_25
REMARK                            x       y       z     vdW  Elec       q    Type
REMARK                         _______ _______ _______ _____ _____    ______ ____
ROOT
ATOM     12  C   UNL     1      -1.265   3.012  26.045  0.00  0.00    +0.051 C 
ENDROOT
BRANCH  12  13
ATOM     13  C   UNL     1      -1.246   3.697  25.587  0.00  0.00    +0.024 C 
ATOM     14  C   UNL     1      -0.536   3.950  25.251  0.00  0.00    +0.089 C 
ATOM     15  N   UNL     1      -0.518   4.635  24.794  0.00  0.00    -0.218 NA
ATOM     16  C   UNL     1      -1.209   5.069  24.671  0.00  0.00    +0.089 C 
ATOM     17  C   UNL     1      -1.919   4.816  25.006  0.00  0.00    +0.019 C 
ATOM     18  C   UNL     1      -1.938   4.130  25.465  0.00  0.00    +0.012 C 
BRANCH  18  19
ATOM     19  C   UNL     1      -2.647   3.878  25.800  0.00  0.00    +0.085 C 
BRANCH  19  20
ATOM     20  C   UNL     1      -3.340   3.880  25.351  0.00  0.00    +0.226 C 
ATOM     21  O   UNL     1      -3.305   4.018  24.539  0.00  0.00    -0.275 OA
ATOM     22  N   UNL     1      -4.067   3.746  25.716  0.00  0.00    -0.266 N 
ATOM     23  C   UNL     1      -4.103   3.609  26.528  0.00  0.00    +0.116 C 
BRANCH  22  24
ATOM     24  C   UNL     1      -4.760   3.749  25.268  0.00  0.00    +0.172 C 
BRANCH  24  25
ATOM     25  C   UNL     1      -5.352   3.195  25.421  0.00  0.00    -0.056 C 
ATOM     26  C   UNL     1      -5.944   2.640  25.573  0.00  0.00    -0.012 C 
ENDBRANCH  24  25
ENDBRANCH  22  24
ENDBRANCH  19  20
ENDBRANCH  18  19
ENDBRANCH  12  13
BRANCH  12  11
ATOM      9  C   UNL     1      -0.640   1.086  25.367  0.00  0.00    +0.177 A 
ATOM     10  C   UNL     1      -1.232   1.610  25.603  0.00  0.00    +0.058 A 
ATOM     11  C   UNL     1      -0.877   2.331  25.785  0.00  0.00    +0.101 A 
ATOM     27  N   UNL     1      -0.064   2.254  25.662  0.00  0.00    -0.081 NA
ATOM     28  O   UNL     1       0.082   1.484  25.404  0.00  0.00    -0.354 OA
BRANCH   9   6
ATOM      3  C   UNL     1      -0.968  -1.266  24.671  0.00  0.00    +0.139 A 
ATOM      4  C   UNL     1      -0.621  -0.727  24.151  0.00  0.00    +0.037 A 
ATOM      5  C   UNL     1      -0.512   0.057  24.384  0.00  0.00    +0.006 A 
ATOM      6  C   UNL     1      -0.749   0.301  25.135  0.00  0.00    +0.037 A 
ATOM      7  C   UNL     1      -1.096  -0.238  25.654  0.00  0.00    +0.006 A 
ATOM      8  C   UNL     1      -1.205  -1.022  25.422  0.00  0.00    +0.037 A 
BRANCH   3   2
ATOM      1  C   UNL     1      -1.838  -2.370  24.410  0.00  0.00    +0.252 C 
ATOM      2  O   UNL     1      -1.077  -2.050  24.438  0.00  0.00    -0.471 OA
ENDBRANCH   3   2
ENDBRANCH   9   6
ENDBRANCH  12  11
TORSDOF 8
ENDMDL
MODEL 3
REMARK VINA RESULT:      -9.4      1.915      3.218
REMARK  Name = 
REMARK  8 active torsions:
REMARK  status: ('A' for Active; 'I' for Inactive)
REMARK    1  A    between atoms: O_2  and  C_3
REMARK    2  A    between atoms: C_6  and  C_9
REMARK    3  A    between atoms: C_11  and  C_12
REMARK    4  A    between atoms: C_12  and  C_13
REMARK    5  A    between atoms: C_18  and  C_19
REMARK    6  A    between atoms: C_19  and  C_20
REMARK    7  A    between atoms: N_22  and  C_24
REMARK    8  A    between atoms: C_24  and  C_25
REMARK                            x       y       z     vdW  Elec       q    Type
REMARK                         _______ _______ _______ _____ _____    ______ ____
ROOT
ATOM     12  C   UNL     1      -1.119   1.721  24.289  0.00  0.00    +0.051 C 
ENDROOT
BRANCH  12  13
ATOM     13  C   UNL     1      -0.778   2.156  24.901  0.00  0.00    +0.024 C 
ATOM     14  C   UNL     1      -0.042   1.937  25.204  0.00  0.00    +0.089 C 
ATOM     15  N   UNL     1       0.298   2.373  25.816  0.00  0.00    -0.218 NA
ATOM     16  C   UNL     1      -0.096   3.028  26.126  0.00  0.00    +0.089 C 
ATOM     17  C   UNL     1      -0.832   3.247  25.823  0.00  0.00    +0.019 C 
ATOM     18  C   UNL     1      -1.173   2.811  25.210  0.00  0.00    +0.012 C 
BRANCH  18  19
ATOM     19  C   UNL     1      -1.907   3.030  24.908  0.00  0.00    +0.085 C 
BRANCH  19  20
ATOM     20  C   UNL     1      -2.466   3.388  25.399  0.00  0.00    +0.226 C 
ATOM     21  O   UNL     1      -2.279   3.553  26.186  0.00  0.00    -0.275 OA
ATOM     22  N   UNL     1      -3.212   3.580  25.103  0.00  0.00    -0.266 N 
ATOM     23  C   UNL     1      -3.399   3.416  24.318  0.00  0.00    +0.116 C 
BRANCH  22  24
ATOM     24  C   UNL     1      -3.771   3.938  25.595  0.00  0.00    +0.172 C 
BRANCH  24  25
ATOM     25  C   UNL     1      -4.563   3.716  25.546  0.00  0.00    -0.056 C 
ATOM     26  C   UNL     1      -5.357   3.494  25.499  0.00  0.00    -0.012 C 
ENDBRANCH  24  25
ENDBRANCH  22  24
ENDBRANCH  19  20
ENDBRANCH  18  19
ENDBRANCH  12  13
BRANCH  12  11
ATOM      9  C   UNL     1      -1.527  -0.369  24.447  0.00  0.00    +0.177 A 
ATOM     10  C   UNL     1      -1.776   0.418  24.464  0.00  0.00    +0.058 A 
ATOM     11  C   UNL     1      -1.120   0.896  24.321  0.00  0.00    +0.101 A 
ATOM     27  N   UNL     1      -0.464   0.406  24.216  0.00  0.00    -0.081 NA
ATOM     28  O   UNL     1      -0.717  -0.377  24.294  0.00  0.00    -0.354 OA
BRANCH   9   6
ATOM      3  C   UNL     1      -2.959  -2.357  24.794  0.00  0.00    +0.139 A 
ATOM      4  C   UNL     1      -3.279  -1.600  24.870  0.00  0.00    +0.037 A 
ATOM      5  C   UNL     1      -2.801  -0.938  24.754  0.00  0.00    +0.006 A 
ATOM      6  C   UNL     1      -2.005  -1.032  24.563  0.00  0.00    +0.037 A 
ATOM      7  C   UNL     1      -1.685  -1.788  24.487  0.00  0.00    +0.006 A 
ATOM      8  C   UNL     1      -2.163  -2.452  24.603  0.00  0.00    +0.037 A 
BRANCH   3   2
ATOM      1  C   UNL     1      -3.937  -3.278  24.306  0.00  0.00    +0.252 C 
ATOM      2  O   UNL     1      -3.437  -3.020  24.910  0.00  0.00    -0.471 OA
ENDBRANCH   3   2
ENDBRANCH   9   6
ENDBRANCH  12  11
TORSDOF 8
ENDMDL
MODEL 4
REMARK VINA RESULT:      -9.4      3.096      4.579
REMARK  Name = 
REMARK  8 active torsions:
REMARK  status: ('A' for Active; 'I' for Inactive)
REMARK    1  A    between atoms: O_2  and  C_3
REMARK    2  A    between atoms: C_6  and  C_9
REMARK    3  A    between atoms: C_11  and  C_12
REMARK    4  A    between atoms: C_12  and  C_13
REMARK    5  A    between atoms: C_18  and  C_19
REMARK    6  A    between atoms: C_19  and  C_20
REMARK    7  A    between atoms: N_22  and  C_24
REMARK    8  A    between atoms: C_24  and  C_25
REMARK                            x       y       z     vdW  Elec       q    Type
REMARK                         _______ _______ _______ _____ _____    ______ ____
ROOT
ATOM     12  C   UNL     1      -2.490  -0.189  25.161  0.00  0.00    +0.051 C 
ENDROOT
BRANCH  12  13
ATOM     13  C   UNL     1      -3.097  -0.619  24.804  0.00  0.00    +0.024 C 
ATOM     14  C   UNL     1      -3.014  -1.431  24.689  0.00  0.00    +0.089 C 
ATOM     15  N   UNL     1      -3.621  -1.860  24.332  0.00  0.00    -0.218 NA
ATOM     16  C   UNL     1      -4.311  -1.478  24.090  0.00  0.00    +0.089 C 
ATOM     17  C   UNL     1      -4.393  -0.665  24.205  0.00  0.00    +0.019 C 
ATOM     18  C   UNL     1      -3.786  -0.235  24.563  0.00  0.00    +0.012 C 
BRANCH  18  19
ATOM     19  C   UNL     1      -3.868   0.577  24.678  0.00  0.00    +0.085 C 
BRANCH  19  20
ATOM     20  C   UNL     1      -4.565   0.879  25.002  0.00  0.00    +0.226 C 
ATOM     21  O   UNL     1      -5.052   0.395  25.459  0.00  0.00    -0.275 OA
ATOM     22  N   UNL     1      -4.773   1.666  24.868  0.00  0.00    -0.266 N 
ATOM     23  C   UNL     1      -4.287   2.150  24.411  0.00  0.00    +0.116 C 
BRANCH  22  24
ATOM     24  C   UNL     1      -5.470   1.968  25.192  0.00  0.00    +0.172 C 
BRANCH  24  25
ATOM     25  C   UNL     1      -5.521   2.769  25.384  0.00  0.00    -0.056 C 
ATOM     26  C   UNL     1      -5.571   3.570  25.576  0.00  0.00    -0.012 C 
ENDBRANCH  24  25
ENDBRANCH  22  24
ENDBRANCH  19  20
ENDBRANCH  18  19
ENDBRANCH  12  13
BRANCH  12  11
ATOM      9  C   UNL     1      -0.497  -0.331  24.409  0.00  0.00    +0.177 A 
ATOM     10  C   UNL     1      -1.248   0.010  24.400  0.00  0.00    +0.058 A 
ATOM     11  C   UNL     1      -1.703  -0.359  24.980  0.00  0.00    +0.101 A 
ATOM     27  N   UNL     1      -1.233  -0.928  25.350  0.00  0.00    -0.081 NA
ATOM     28  O   UNL     1      -0.487  -0.910  24.996  0.00  0.00    -0.354 OA
BRANCH   9   6
ATOM      3  C   UNL     1       1.397   0.277  22.936  0.00  0.00    +0.139 A 
ATOM      4  C   UNL     1       1.110   0.822  23.485  0.00  0.00    +0.037 A 
ATOM      5  C   UNL     1       0.479   0.619  23.976  0.00  0.00    +0.006 A 
ATOM      6  C   UNL     1       0.135  -0.128  23.918  0.00  0.00    +0.037 A 
ATOM      7  C   UNL     1       0.422  -0.673  23.369  0.00  0.00    +0.006 A 
ATOM      8  C   UNL     1       1.053  -0.470  22.878  0.00  0.00    +0.037 A 
BRANCH   3   2
ATOM      1  C   UNL     1       2.780   0.174  22.593  0.00  0.00    +0.252 C 
ATOM      2  O   UNL     1       2.028   0.481  22.445  0.00  0.00    -0.471 OA
ENDBRANCH   3   2
ENDBRANCH   9   6
ENDBRANCH  12  11
TORSDOF 8
ENDMDL
MODEL 5
REMARK VINA RESULT:      -9.3      2.438      5.804
REMARK  Name = 
REMARK  8 active torsions:
REMARK  status: ('A' for Active; 'I' for Inactive)
REMARK    1  A    between atoms: O_2  and  C_3
REMARK    2  A    between atoms: C_6  and  C_9
REMARK    3  A    between atoms: C_11  and  C_12
REMARK    4  A    between atoms: C_12  and  C_13
REMARK    5  A    between atoms: C_18  and  C_19
REMARK    6  A    between atoms: C_19  and  C_20
REMARK    7  A    between atoms: N_22  and  C_24
REMARK    8  A    between atoms: C_24  and  C_25
REMARK                            x       y       z     vdW  Elec       q    Type
REMARK                         _______ _______ _______ _____ _____    ______ ____
ROOT
ATOM     12  C   UNL     1      -0.667   1.177  25.434  0.00  0.00    +0.051 C 
ENDROOT
BRANCH  12  13
ATOM     13  C   UNL     1      -0.325   0.875  24.747  0.00  0.00    +0.024 C 
ATOM     14  C   UNL     1       0.199   1.337  24.308  0.00  0.00    +0.089 C 
ATOM     15  N   UNL     1       0.540   1.034  23.622  0.00  0.00    -0.218 NA
ATOM     16  C   UNL     1       0.359   0.269  23.372  0.00  0.00    +0.089 C 
ATOM     17  C   UNL     1      -0.165  -0.194  23.811  0.00  0.00    +0.019 C 
ATOM     18  C   UNL     1      -0.507   0.109  24.499  0.00  0.00    +0.012 C 
BRANCH  18  19
ATOM     19  C   UNL     1      -1.030  -0.353  24.937  0.00  0.00    +0.085 C 
BRANCH  19  20
ATOM     20  C   UNL     1      -1.135  -1.150  24.748  0.00  0.00    +0.226 C 
ATOM     21  O   UNL     1      -0.497  -1.598  24.480  0.00  0.00    -0.275 OA
ATOM     22  N   UNL     1      -1.879  -1.497  24.827  0.00  0.00    -0.266 N 
ATOM     23  C   UNL     1      -2.517  -1.049  25.094  0.00  0.00    +0.116 C 
BRANCH  22  24
ATOM     24  C   UNL     1      -1.985  -2.294  24.637  0.00  0.00    +0.172 C 
BRANCH  24  25
ATOM     25  C   UNL     1      -2.746  -2.607  24.584  0.00  0.00    -0.056 C 
ATOM     26  C   UNL     1      -3.507  -2.921  24.531  0.00  0.00    -0.012 C 
ENDBRANCH  24  25
ENDBRANCH  22  24
ENDBRANCH  19  20
ENDBRANCH  18  19
ENDBRANCH  12  13
BRANCH  12  11
ATOM      9  C   UNL     1      -2.025   2.824  25.382  0.00  0.00    +0.177 A 
ATOM     10  C   UNL     1      -1.876   2.013  25.400  0.00  0.00    +0.058 A 
ATOM     11  C   UNL     1      -1.059   1.903  25.414  0.00  0.00    +0.101 A 
ATOM     27  N   UNL     1      -0.701   2.647  25.405  0.00  0.00    -0.081 NA
ATOM     28  O   UNL     1      -1.299   3.216  25.385  0.00  0.00    -0.354 OA
BRANCH   9   6
ATOM      3  C   UNL     1      -4.255   3.896  25.329  0.00  0.00    +0.139 A 
ATOM      4  C   UNL     1      -3.721   4.084  25.930  0.00  0.00    +0.037 A 
ATOM      5  C   UNL     1      -2.978   3.726  25.947  0.00  0.00    +0.006 A 
ATOM      6  C   UNL     1      -2.769   3.181  25.364  0.00  0.00    +0.037 A 
ATOM      7  C   UNL     1      -3.302   2.994  24.764  0.00  0.00    +0.006 A 
ATOM      8  C   UNL     1      -4.046   3.351  24.746  0.00  0.00    +0.037 A 
BRANCH   3   2
ATOM      1  C   UNL     1      -5.669   3.821  25.523  0.00  0.00    +0.252 C 
ATOM      2  O   UNL     1      -4.998   4.254  25.312  0.00  0.00    -0.471 OA
ENDBRANCH   3   2
ENDBRANCH   9   6
ENDBRANCH  12  11
TORSDOF 8
ENDMDL
MODEL 6
REMARK VINA RESULT:      -9.3      1.790      4.838
REMARK  Name = 
REMARK  8 active torsions:
REMARK  status: ('A' for Active; 'I' for Inactive)
REMARK    1  A    between atoms: O_2  and  C_3
REMARK    2  A    between atoms: C_6  and  C_9
REMARK    3  A    between atoms: C_11  and  C_12
REMARK    4  A    between atoms: C_12  and  C_13
REMARK    5  A    between atoms: C_18  and  C_19
REMARK    6  A    between atoms: C_19  and  C_20
REMARK    7  A    between atoms: N_22  and  C_24
REMARK    8  A    between atoms: C_24  and  C_25
REMARK                            x       y       z     vdW  Elec       q    Type
REMARK                         _______ _______ _______ _____ _____    ______ ____
ROOT
ATOM     12  C   UNL     1      -3.715   1.846  23.961  0.00  0.00    +0.051 C 
ENDROOT
BRANCH  12  13
ATOM     13  C   UNL     1      -4.381   1.780  24.444  0.00  0.00    +0.024 C 
ATOM     14  C   UNL     1      -4.754   2.459  24.727  0.00  0.00    +0.089 C 
ATOM     15  N   UNL     1      -5.419   2.392  25.210  0.00  0.00    -0.218 NA
ATOM     16  C   UNL     1      -5.712   1.647  25.409  0.00  0.00    +0.089 C 
ATOM     17  C   UNL     1      -5.339   0.968  25.125  0.00  0.00    +0.019 C 
ATOM     18  C   UNL     1      -4.673   1.035  24.642  0.00  0.00    +0.012 C 
BRANCH  18  19
ATOM     19  C   UNL     1      -4.300   0.357  24.359  0.00  0.00    +0.085 C 
BRANCH  19  20
ATOM     20  C   UNL     1      -4.230  -0.309  24.842  0.00  0.00    +0.226 C 
ATOM     21  O   UNL     1      -4.328  -0.238  25.658  0.00  0.00    -0.275 OA
ATOM     22  N   UNL     1      -4.061  -1.044  24.509  0.00  0.00    -0.266 N 
ATOM     23  C   UNL     1      -3.963  -1.114  23.694  0.00  0.00    +0.116 C 
BRANCH  22  24
ATOM     24  C   UNL     1      -3.991  -1.710  24.992  0.00  0.00    +0.172 C 
BRANCH  24  25
ATOM     25  C   UNL     1      -3.645  -2.398  24.697  0.00  0.00    -0.056 C 
ATOM     26  C   UNL     1      -3.300  -3.088  24.403  0.00  0.00    -0.012 C 
ENDBRANCH  24  25
ENDBRANCH  22  24
ENDBRANCH  19  20
ENDBRANCH  18  19
ENDBRANCH  12  13
BRANCH  12  11
ATOM      9  C   UNL     1      -1.933   2.687  24.784  0.00  0.00    +0.177 A 
ATOM     10  C   UNL     1      -2.449   2.051  24.679  0.00  0.00    +0.058 A 
ATOM     11  C   UNL     1      -3.073   2.305  24.204  0.00  0.00    +0.101 A 
ATOM     27  N   UNL     1      -2.944   3.098  24.014  0.00  0.00    -0.081 NA
ATOM     28  O   UNL     1      -2.239   3.334  24.373  0.00  0.00    -0.354 OA
BRANCH   9   6
ATOM      3  C   UNL     1       0.164   2.660  26.098  0.00  0.00    +0.139 A 
ATOM      4  C   UNL     1       0.138   2.301  25.356  0.00  0.00    +0.037 A 
ATOM      5  C   UNL     1      -0.562   2.311  24.918  0.00  0.00    +0.006 A 
ATOM      6  C   UNL     1      -1.234   2.678  25.222  0.00  0.00    +0.037 A 
ATOM      7  C   UNL     1      -1.208   3.037  25.964  0.00  0.00    +0.006 A 
ATOM      8  C   UNL     1      -0.509   3.028  26.403  0.00  0.00    +0.037 A 
BRANCH   3   2
ATOM      1  C   UNL     1       0.835   2.559  27.356  0.00  0.00    +0.252 C 
ATOM      2  O   UNL     1       0.863   2.651  26.536  0.00  0.00    -0.471 OA
ENDBRANCH   3   2
ENDBRANCH   9   6
ENDBRANCH  12  11
TORSDOF 8
ENDMDL
MODEL 7
REMARK VINA RESULT:      -9.2      2.827      4.967
REMARK  Name = 
REMARK  8 active torsions:
REMARK  status: ('A' for Active; 'I' for Inactive)
REMARK    1  A    between atoms: O_2  and  C_3
REMARK    2  A    between atoms: C_6  and  C_9
REMARK    3  A    between atoms: C_11  and  C_12
REMARK    4  A    between atoms: C_12  and  C_13
REMARK    5  A    between atoms: C_18  and  C_19
REMARK    6  A    between atoms: C_19  and  C_20
REMARK    7  A    between atoms: N_22  and  C_24
REMARK    8  A    between atoms: C_24  and  C_25
REMARK                            x       y       z     vdW  Elec       q    Type
REMARK                         _______ _______ _______ _____ _____    ______ ____
ROOT
ATOM     12  C   UNL     1      -2.380   0.200  24.243  0.00  0.00    +0.051 C 
ENDROOT
BRANCH  12  13
ATOM     13  C   UNL     1      -1.989  -0.244  24.818  0.00  0.00    +0.024 C 
ATOM     14  C   UNL     1      -2.420  -0.615  25.417  0.00  0.00    +0.089 C 
ATOM     15  N   UNL     1      -2.029  -1.058  25.991  0.00  0.00    -0.218 NA
ATOM     16  C   UNL     1      -1.207  -1.132  25.969  0.00  0.00    +0.089 C 
ATOM     17  C   UNL     1      -0.777  -0.761  25.370  0.00  0.00    +0.019 C 
ATOM     18  C   UNL     1      -1.168  -0.317  24.794  0.00  0.00    +0.012 C 
BRANCH  18  19
ATOM     19  C   UNL     1      -0.738   0.053  24.197  0.00  0.00    +0.085 C 
BRANCH  19  20
ATOM     20  C   UNL     1      -0.139  -0.358  23.804  0.00  0.00    +0.226 C 
ATOM     21  O   UNL     1      -0.142  -1.183  23.795  0.00  0.00    -0.275 OA
ATOM     22  N   UNL     1       0.462   0.058  23.421  0.00  0.00    -0.266 N 
ATOM     23  C   UNL     1       0.464   0.882  23.429  0.00  0.00    +0.116 C 
BRANCH  22  24
ATOM     24  C   UNL     1       1.061  -0.353  23.028  0.00  0.00    +0.172 C 
BRANCH  24  25
ATOM     25  C   UNL     1       1.763   0.032  22.831  0.00  0.00    -0.056 C 
ATOM     26  C   UNL     1       2.466   0.416  22.633  0.00  0.00    -0.012 C 
ENDBRANCH  24  25
ENDBRANCH  22  24
ENDBRANCH  19  20
ENDBRANCH  18  19
ENDBRANCH  12  13
BRANCH  12  11
ATOM      9  C   UNL     1      -4.169   1.255  24.738  0.00  0.00    +0.177 A 
ATOM     10  C   UNL     1      -3.346   1.214  24.690  0.00  0.00    +0.058 A 
ATOM     11  C   UNL     1      -3.145   0.475  24.384  0.00  0.00    +0.101 A 
ATOM     27  N   UNL     1      -3.844   0.058  24.242  0.00  0.00    -0.081 NA
ATOM     28  O   UNL     1      -4.477   0.541  24.462  0.00  0.00    -0.354 OA
BRANCH   9   6
ATOM      3  C   UNL     1      -5.485   3.180  25.567  0.00  0.00    +0.139 A 
ATOM      4  C   UNL     1      -4.717   3.295  25.285  0.00  0.00    +0.037 A 
ATOM      5  C   UNL     1      -4.279   2.653  25.009  0.00  0.00    +0.006 A 
ATOM      6  C   UNL     1      -4.608   1.897  25.015  0.00  0.00    +0.037 A 
ATOM      7  C   UNL     1      -5.374   1.782  25.296  0.00  0.00    +0.006 A 
ATOM      8  C   UNL     1      -5.813   2.424  25.572  0.00  0.00    +0.037 A 
BRANCH   3   2
ATOM      1  C   UNL     1      -5.820   4.568  25.503  0.00  0.00    +0.252 C 
ATOM      2  O   UNL     1      -5.923   3.823  25.843  0.00  0.00    -0.471 OA
ENDBRANCH   3   2
ENDBRANCH   9   6
ENDBRANCH  12  11
TORSDOF 8
ENDMDL
