MODEL 1
REMARK VINA RESULT:     -16.5      0.000      0.000
REMARK  Name = 
REMARK  5 active torsions:
REMARK  status: ('A' for Active; 'I' for Inactive)
REMARK    1  A    between atoms: C_5  and  S_8
REMARK    2  A    between atoms: S_8  and  N_11
REMARK    3  A    between atoms: C_18  and  C_25
REMARK    4  A    between atoms: C_28  and  O_29
REMARK    5  A    between atoms: O_29  and  C_30
REMARK                            x       y       z     vdW  Elec       q    Type
REMARK                         _______ _______ _______ _____ _____    ______ ____
ROOT
ATOM     11  N   UNL     1      -4.568   3.072  25.203  0.00  0.00    -0.155 NA
ATOM     12  C   UNL     1      -5.392   2.945  25.245  0.00  0.00    +0.098 C 
ATOM     13  C   UNL     1      -5.417   1.968  25.102  0.00  0.00    +0.041 C 
ATOM     14  C   UNL     1      -5.605   1.182  25.000  0.00  0.00    +0.011 C 
ATOM     15  C   UNL     1      -5.027   1.579  25.016  0.00  0.00    +0.056 C 
ATOM     16  C   UNL     1      -5.019   2.524  25.155  0.00  0.00    +0.102 C 
ATOM     17  C   UNL     1      -4.112   1.524  24.940  0.00  0.00    +0.041 A 
ATOM     18  C   UNL     1      -3.512   0.973  24.814  0.00  0.00    +0.012 A 
ATOM     19  C   UNL     1      -2.725   1.218  24.792  0.00  0.00    +0.006 A 
ATOM     20  C   UNL     1      -2.538   2.015  24.896  0.00  0.00    +0.061 A 
ATOM     21  C   UNL     1      -3.138   2.566  25.022  0.00  0.00    +0.261 A 
ATOM     22  O   UNL     1      -2.951   3.363  25.126  0.00  0.00    -0.267 OA
ATOM     23  N   UNL     1      -3.925   2.321  25.044  0.00  0.00    -0.299 N 
ATOM     24  C   UNL     1      -4.461   1.920  25.024  0.00  0.00    +0.110 C 
ENDROOT
BRANCH  18  25
ATOM     25  C   UNL     1      -3.699   0.176  24.710  0.00  0.00    +0.001 A 
ATOM     26  C   UNL     1      -3.864  -0.114  23.955  0.00  0.00    +0.003 A 
ATOM     27  C   UNL     1      -4.051  -0.911  23.851  0.00  0.00    +0.037 A 
ATOM     28  C   UNL     1      -4.074  -1.418  24.502  0.00  0.00    +0.147 A 
ATOM     34  C   UNL     1      -3.910  -1.128  25.256  0.00  0.00    +0.037 A 
ATOM     35  C   UNL     1      -3.723  -0.331  25.360  0.00  0.00    +0.003 A 
BRANCH  28  29
ATOM     29  O   UNL     1      -4.261  -2.214  24.398  0.00  0.00    -0.404 OA
BRANCH  29  30
ATOM     30  C   UNL     1      -3.659  -2.770  24.293  0.00  0.00    +0.575 C 
ATOM     31  F   UNL     1      -3.058  -3.325  24.188  0.00  0.00    -0.133 F 
ATOM     32  F   UNL     1      -3.619  -2.880  25.110  0.00  0.00    -0.133 F 
ATOM     33  F   UNL     1      -3.701  -2.659  23.476  0.00  0.00    -0.133 F 
ENDBRANCH  29  30
ENDBRANCH  28  29
ENDBRANCH  18  25
BRANCH  11   8
ATOM      8  S   UNL     1      -3.850   3.481  25.210  0.00  0.00    +0.063 S 
ATOM      9  O   UNL     1      -3.902   3.586  24.393  0.00  0.00    -0.153 OA
ATOM     10  O   UNL     1      -3.799   3.375  26.027  0.00  0.00    -0.153 OA
BRANCH   8   5
ATOM      1  F   UNL     1      -0.982   5.113  25.240  0.00  0.00    -0.204 F 
ATOM      2  C   UNL     1      -1.700   4.705  25.232  0.00  0.00    +0.140 A 
ATOM      3  C   UNL     1      -2.013   4.409  25.935  0.00  0.00    +0.031 A 
ATOM      4  C   UNL     1      -2.730   4.000  25.928  0.00  0.00    +0.022 A 
ATOM      5  C   UNL     1      -3.133   3.889  25.217  0.00  0.00    +0.122 A 
ATOM      6  C   UNL     1      -2.820   4.185  24.514  0.00  0.00    +0.022 A 
ATOM      7  C   UNL     1      -2.103   4.594  24.522  0.00  0.00    +0.031 A 
ENDBRANCH   8   5
ENDBRANCH  11   8
TORSDOF 5
ENDMDL
MODEL 2
REMARK VINA RESULT:     -16.2      1.499      5.029
REMARK  Name = 
REMARK  5 active torsions:
REMARK  status: ('A' for Active; 'I' for Inactive)
REMARK    1  A    between atoms: C_5  and  S_8
REMARK    2  A    between atoms: S_8  and  N_11
REMARK    3  A    between atoms: C_18  and  C_25
REMARK    4  A    between atoms: C_28  and  O_29
REMARK    5  A    between atoms: O_29  and  C_30
REMARK                            x       y       z     vdW  Elec       q    Type
REMARK                         _______ _______ _______ _____ _____    ______ ____
ROOT
ATOM     11  N   UNL     1      -4.472   0.735  24.773  0.00  0.00    -0.155 NA
ATOM     12  C   UNL     1      -4.995   1.387  24.781  0.00  0.00    +0.098 C 
ATOM     13  C   UNL     1      -4.339   2.123  24.854  0.00  0.00    +0.041 C 
ATOM     14  C   UNL     1      -3.937   2.829  24.912  0.00  0.00    +0.011 C 
ATOM     15  C   UNL     1      -3.783   2.145  24.883  0.00  0.00    +0.056 C 
ATOM     16  C   UNL     1      -4.428   1.445  24.813  0.00  0.00    +0.102 C 
ATOM     17  C   UNL     1      -3.069   1.567  24.888  0.00  0.00    +0.041 A 
ATOM     18  C   UNL     1      -2.245   1.566  24.930  0.00  0.00    +0.012 A 
ATOM     19  C   UNL     1      -1.832   0.852  24.912  0.00  0.00    +0.006 A 
ATOM     20  C   UNL     1      -2.243   0.139  24.853  0.00  0.00    +0.061 A 
ATOM     21  C   UNL     1      -3.066   0.139  24.812  0.00  0.00    +0.261 A 
ATOM     22  O   UNL     1      -3.477  -0.574  24.753  0.00  0.00    -0.267 OA
ATOM     23  N   UNL     1      -3.479   0.853  24.829  0.00  0.00    -0.299 N 
ATOM     24  C   UNL     1      -3.600   1.511  24.858  0.00  0.00    +0.110 C 
ENDROOT
BRANCH  18  25
ATOM     25  C   UNL     1      -1.835   2.279  24.989  0.00  0.00    +0.001 A 
ATOM     26  C   UNL     1      -1.575   2.663  24.307  0.00  0.00    +0.003 A 
ATOM     27  C   UNL     1      -1.164   3.377  24.366  0.00  0.00    +0.037 A 
ATOM     28  C   UNL     1      -1.014   3.706  25.107  0.00  0.00    +0.147 A 
ATOM     34  C   UNL     1      -1.274   3.322  25.789  0.00  0.00    +0.037 A 
ATOM     35  C   UNL     1      -1.684   2.609  25.730  0.00  0.00    +0.003 A 
BRANCH  28  29
ATOM     29  O   UNL     1      -0.604   4.419  25.167  0.00  0.00    -0.404 OA
BRANCH  29  30
ATOM     30  C   UNL     1      -0.979   5.129  24.976  0.00  0.00    +0.575 C 
ATOM     31  F   UNL     1      -1.354   5.838  24.785  0.00  0.00    -0.133 F 
ATOM     32  F   UNL     1      -1.424   5.080  25.669  0.00  0.00    -0.133 F 
ATOM     33  F   UNL     1      -0.534   5.176  24.282  0.00  0.00    -0.133 F 
ENDBRANCH  29  30
ENDBRANCH  28  29
ENDBRANCH  18  25
BRANCH  11   8
ATOM      8  S   UNL     1      -4.223  -0.051  24.743  0.00  0.00    +0.063 S 
ATOM      9  O   UNL     1      -4.285  -0.102  25.564  0.00  0.00    -0.153 OA
ATOM     10  O   UNL     1      -4.161  -0.001  23.921  0.00  0.00    -0.153 OA
BRANCH   8   5
ATOM      1  F   UNL     1      -3.227  -3.195  24.624  0.00  0.00    -0.204 F 
ATOM      2  C   UNL     1      -3.476  -2.409  24.654  0.00  0.00    +0.140 A 
ATOM      3  C   UNL     1      -3.669  -2.011  23.958  0.00  0.00    +0.031 A 
ATOM      4  C   UNL     1      -3.918  -1.225  23.987  0.00  0.00    +0.022 A 
ATOM      5  C   UNL     1      -3.974  -0.838  24.713  0.00  0.00    +0.122 A 
ATOM      6  C   UNL     1      -3.781  -1.235  25.409  0.00  0.00    +0.022 A 
ATOM      7  C   UNL     1      -3.532  -2.022  25.380  0.00  0.00    +0.031 A 
ENDBRANCH   8   5
ENDBRANCH  11   8
TORSDOF 5
ENDMDL
MODEL 3
REMARK VINA RESULT:     -15.1      1.506      2.394
REMARK  Name = 
REMARK  5 active torsions:
REMARK  status: ('A' for Active; 'I' for Inactive)
REMARK    1  A    between atoms: C_5  and  S_8
REMARK    2  A    between atoms: S_8  and  N_11
REMARK    3  A    between atoms: C_18  and  C_25
REMARK    4  A    between atoms: C_28  and  O_29
REMARK    5  A    between atoms: O_29  and  C_30
REMARK                            x       y       z     vdW  Elec       q    Type
REMARK                         _______ _______ _______ _____ _____    ______ ____
ROOT
ATOM     11  N   UNL     1      -0.746   1.917  25.480  0.00  0.00    -0.155 NA
ATOM     12  C   UNL     1      -0.310   1.235  25.685  0.00  0.00    +0.098 C 
ATOM     13  C   UNL     1      -0.969   0.539  25.446  0.00  0.00    +0.041 C 
ATOM     14  C   UNL     1      -1.392  -0.143  25.303  0.00  0.00    +0.011 C 
ATOM     15  C   UNL     1      -1.486   0.550  25.237  0.00  0.00    +0.056 C 
ATOM     16  C   UNL     1      -0.838   1.211  25.472  0.00  0.00    +0.102 C 
ATOM     17  C   UNL     1      -2.105   1.170  24.960  0.00  0.00    +0.041 A 
ATOM     18  C   UNL     1      -2.867   1.220  24.649  0.00  0.00    +0.012 A 
ATOM     19  C   UNL     1      -3.198   1.957  24.484  0.00  0.00    +0.006 A 
ATOM     20  C   UNL     1      -2.766   2.645  24.630  0.00  0.00    +0.061 A 
ATOM     21  C   UNL     1      -2.004   2.596  24.941  0.00  0.00    +0.261 A 
ATOM     22  O   UNL     1      -1.573   3.284  25.088  0.00  0.00    -0.267 OA
ATOM     23  N   UNL     1      -1.673   1.858  25.106  0.00  0.00    -0.299 N 
ATOM     24  C   UNL     1      -1.609   1.194  25.160  0.00  0.00    +0.110 C 
ENDROOT
BRANCH  18  25
ATOM     25  C   UNL     1      -3.298   0.532  24.502  0.00  0.00    +0.001 A 
ATOM     26  C   UNL     1      -3.256   0.168  23.763  0.00  0.00    +0.003 A 
ATOM     27  C   UNL     1      -3.688  -0.520  23.617  0.00  0.00    +0.037 A 
ATOM     28  C   UNL     1      -4.161  -0.844  24.210  0.00  0.00    +0.147 A 
ATOM     34  C   UNL     1      -4.204  -0.480  24.949  0.00  0.00    +0.037 A 
ATOM     35  C   UNL     1      -3.772   0.208  25.095  0.00  0.00    +0.003 A 
BRANCH  28  29
ATOM     29  O   UNL     1      -4.592  -1.531  24.064  0.00  0.00    -0.404 OA
BRANCH  29  30
ATOM     30  C   UNL     1      -4.205  -2.258  24.006  0.00  0.00    +0.575 C 
ATOM     31  F   UNL     1      -3.818  -2.983  23.947  0.00  0.00    -0.133 F 
ATOM     32  F   UNL     1      -4.146  -2.293  24.828  0.00  0.00    -0.133 F 
ATOM     33  F   UNL     1      -4.264  -2.222  23.183  0.00  0.00    -0.133 F 
ENDBRANCH  29  30
ENDBRANCH  28  29
ENDBRANCH  18  25
BRANCH  11   8
ATOM      8  S   UNL     1      -0.920   2.717  25.376  0.00  0.00    +0.063 S 
ATOM      9  O   UNL     1      -1.218   2.752  26.145  0.00  0.00    -0.153 OA
ATOM     10  O   UNL     1      -0.622   2.682  24.607  0.00  0.00    -0.153 OA
BRANCH   8   5
ATOM      1  F   UNL     1      -1.614   5.917  24.961  0.00  0.00    -0.204 F 
ATOM      2  C   UNL     1      -1.440   5.117  25.065  0.00  0.00    +0.140 A 
ATOM      3  C   UNL     1      -0.947   4.729  24.529  0.00  0.00    +0.031 A 
ATOM      4  C   UNL     1      -0.774   3.929  24.633  0.00  0.00    +0.022 A 
ATOM      5  C   UNL     1      -1.093   3.518  25.272  0.00  0.00    +0.122 A 
ATOM      6  C   UNL     1      -1.586   3.905  25.808  0.00  0.00    +0.022 A 
ATOM      7  C   UNL     1      -1.760   4.705  25.704  0.00  0.00    +0.031 A 
ENDBRANCH   8   5
ENDBRANCH  11   8
TORSDOF 5
ENDMDL
MODEL 4
REMARK VINA RESULT:     -14.0      1.413      2.097
REMARK  Name = 
REMARK  5 active torsions:
REMARK  status: ('A' for Active; 'I' for Inactive)
REMARK    1  A    between atoms: C_5  and  S_8
REMARK    2  A    between atoms: S_8  and  N_11
REMARK    3  A    between atoms: C_18  and  C_25
REMARK    4  A    between atoms: C_28  and  O_29
REMARK    5  A    between atoms: O_29  and  C_30
REMARK                            x       y       z     vdW  Elec       q    Type
REMARK                         _______ _______ _______ _____ _____    ______ ____
ROOT
ATOM     11  N   UNL     1      -2.761   2.339  24.564  0.00  0.00    -0.155 NA
ATOM     12  C   UNL     1      -1.991   2.141  24.309  0.00  0.00    +0.098 C 
ATOM     13  C   UNL     1      -2.060   1.156  24.320  0.00  0.00    +0.041 C 
ATOM     14  C   UNL     1      -1.956   0.349  24.277  0.00  0.00    +0.011 C 
ATOM     15  C   UNL     1      -2.467   0.797  24.449  0.00  0.00    +0.056 C 
ATOM     16  C   UNL     1      -2.385   1.749  24.433  0.00  0.00    +0.102 C 
ATOM     17  C   UNL     1      -3.340   0.819  24.736  0.00  0.00    +0.041 A 
ATOM     18  C   UNL     1      -3.962   0.315  24.934  0.00  0.00    +0.012 A 
ATOM     19  C   UNL     1      -4.686   0.628  25.175  0.00  0.00    +0.006 A 
ATOM     20  C   UNL     1      -4.788   1.446  25.218  0.00  0.00    +0.061 A 
ATOM     21  C   UNL     1      -4.166   1.950  25.020  0.00  0.00    +0.261 A 
ATOM     22  O   UNL     1      -4.268   2.768  25.063  0.00  0.00    -0.267 OA
ATOM     23  N   UNL     1      -3.442   1.637  24.779  0.00  0.00    -0.299 N 
ATOM     24  C   UNL     1      -2.972   1.189  24.619  0.00  0.00    +0.110 C 
ENDROOT
BRANCH  18  25
ATOM     25  C   UNL     1      -3.860  -0.503  24.891  0.00  0.00    +0.001 A 
ATOM     26  C   UNL     1      -4.069  -0.909  24.204  0.00  0.00    +0.003 A 
ATOM     27  C   UNL     1      -3.967  -1.726  24.161  0.00  0.00    +0.037 A 
ATOM     28  C   UNL     1      -3.656  -2.138  24.805  0.00  0.00    +0.147 A 
ATOM     34  C   UNL     1      -3.447  -1.732  25.492  0.00  0.00    +0.037 A 
ATOM     35  C   UNL     1      -3.549  -0.914  25.535  0.00  0.00    +0.003 A 
BRANCH  28  29
ATOM     29  O   UNL     1      -3.554  -2.955  24.762  0.00  0.00    -0.404 OA
BRANCH  29  30
ATOM     30  C   UNL     1      -2.946  -3.272  24.302  0.00  0.00    +0.575 C 
ATOM     31  F   UNL     1      -2.340  -3.589  23.841  0.00  0.00    -0.133 F 
ATOM     32  F   UNL     1      -2.402  -3.092  24.895  0.00  0.00    -0.133 F 
ATOM     33  F   UNL     1      -3.492  -3.451  23.709  0.00  0.00    -0.133 F 
ENDBRANCH  29  30
ENDBRANCH  28  29
ENDBRANCH  18  25
BRANCH  11   8
ATOM      8  S   UNL     1      -3.403   2.810  24.780  0.00  0.00    +0.063 S 
ATOM      9  O   UNL     1      -3.666   2.811  23.997  0.00  0.00    -0.153 OA
ATOM     10  O   UNL     1      -3.141   2.810  25.562  0.00  0.00    -0.153 OA
BRANCH   8   5
ATOM      1  F   UNL     1      -5.971   4.696  25.644  0.00  0.00    -0.204 F 
ATOM      2  C   UNL     1      -5.329   4.224  25.428  0.00  0.00    +0.140 A 
ATOM      3  C   UNL     1      -4.790   3.973  26.000  0.00  0.00    +0.031 A 
ATOM      4  C   UNL     1      -4.148   3.502  25.784  0.00  0.00    +0.022 A 
ATOM      5  C   UNL     1      -4.046   3.282  24.996  0.00  0.00    +0.122 A 
ATOM      6  C   UNL     1      -4.584   3.533  24.424  0.00  0.00    +0.022 A 
ATOM      7  C   UNL     1      -5.226   4.004  24.640  0.00  0.00    +0.031 A 
ENDBRANCH   8   5
ENDBRANCH  11   8
TORSDOF 5
ENDMDL
MODEL 5
REMARK VINA RESULT:     -13.9      1.765      5.462
REMARK  Name = 
REMARK  5 active torsions:
REMARK  status: ('A' for Active; 'I' for Inactive)
REMARK    1  A    between atoms: C_5  and  S_8
REMARK    2  A    between atoms: S_8  and  N_11
REMARK    3  A    between atoms: C_18  and  C_25
REMARK    4  A    between atoms: C_28  and  O_29
REMARK    5  A    between atoms: O_29  and  C_30
REMARK                            x       y       z     vdW  Elec       q    Type
REMARK                         _______ _______ _______ _____ _____    ______ ____
ROOT
ATOM     11  N   UNL     1      -1.411  -0.583  25.370  0.00  0.00    -0.155 NA
ATOM     12  C   UNL     1      -0.677  -0.334  25.682  0.00  0.00    +0.098 C 
ATOM     13  C   UNL     1      -0.791   0.645  25.608  0.00  0.00    +0.041 C 
ATOM     14  C   UNL     1      -0.728   1.457  25.615  0.00  0.00    +0.011 C 
ATOM     15  C   UNL     1      -1.200   0.975  25.423  0.00  0.00    +0.056 C 
ATOM     16  C   UNL     1      -1.076   0.031  25.500  0.00  0.00    +0.102 C 
ATOM     17  C   UNL     1      -2.041   0.893  25.061  0.00  0.00    +0.041 A 
ATOM     18  C   UNL     1      -2.665   1.354  24.780  0.00  0.00    +0.012 A 
ATOM     19  C   UNL     1      -3.348   0.992  24.493  0.00  0.00    +0.006 A 
ATOM     20  C   UNL     1      -3.408   0.169  24.487  0.00  0.00    +0.061 A 
ATOM     21  C   UNL     1      -2.785  -0.292  24.769  0.00  0.00    +0.261 A 
ATOM     22  O   UNL     1      -2.844  -1.115  24.763  0.00  0.00    -0.267 OA
ATOM     23  N   UNL     1      -2.101   0.071  25.056  0.00  0.00    -0.299 N 
ATOM     24  C   UNL     1      -1.668   0.550  25.231  0.00  0.00    +0.110 C 
ENDROOT
BRANCH  18  25
ATOM     25  C   UNL     1      -2.605   2.177  24.785  0.00  0.00    +0.001 A 
ATOM     26  C   UNL     1      -2.279   2.571  24.138  0.00  0.00    +0.003 A 
ATOM     27  C   UNL     1      -2.220   3.394  24.144  0.00  0.00    +0.037 A 
ATOM     28  C   UNL     1      -2.485   3.823  24.796  0.00  0.00    +0.147 A 
ATOM     34  C   UNL     1      -2.811   3.429  25.444  0.00  0.00    +0.037 A 
ATOM     35  C   UNL     1      -2.871   2.606  25.438  0.00  0.00    +0.003 A 
BRANCH  28  29
ATOM     29  O   UNL     1      -2.425   4.645  24.802  0.00  0.00    -0.404 OA
BRANCH  29  30
ATOM     30  C   UNL     1      -1.770   5.009  25.147  0.00  0.00    +0.575 C 
ATOM     31  F   UNL     1      -1.116   5.374  25.493  0.00  0.00    -0.133 F 
ATOM     32  F   UNL     1      -1.359   4.948  24.435  0.00  0.00    -0.133 F 
ATOM     33  F   UNL     1      -2.182   5.071  25.860  0.00  0.00    -0.133 F 
ENDBRANCH  29  30
ENDBRANCH  28  29
ENDBRANCH  18  25
BRANCH  11   8
ATOM      8  S   UNL     1      -2.008  -1.098  25.125  0.00  0.00    +0.063 S 
ATOM      9  O   UNL     1      -1.669  -1.132  24.373  0.00  0.00    -0.153 OA
ATOM     10  O   UNL     1      -2.347  -1.063  25.876  0.00  0.00    -0.153 OA
BRANCH   8   5
ATOM      1  F   UNL     1      -4.395  -3.154  24.143  0.00  0.00    -0.204 F 
ATOM      2  C   UNL     1      -3.798  -2.640  24.388  0.00  0.00    +0.140 A 
ATOM      3  C   UNL     1      -3.797  -2.348  25.160  0.00  0.00    +0.031 A 
ATOM      4  C   UNL     1      -3.200  -1.834  25.405  0.00  0.00    +0.022 A 
ATOM      5  C   UNL     1      -2.605  -1.612  24.879  0.00  0.00    +0.122 A 
ATOM      6  C   UNL     1      -2.606  -1.904  24.108  0.00  0.00    +0.022 A 
ATOM      7  C   UNL     1      -3.203  -2.419  23.862  0.00  0.00    +0.031 A 
ENDBRANCH   8   5
ENDBRANCH  11   8
TORSDOF 5
ENDMDL
