MODEL 1
REMARK VINA RESULT:     -10.9      0.000      0.000
REMARK  Name = 
REMARK  5 active torsions:
REMARK  status: ('A' for Active; 'I' for Inactive)
REMARK    1  A    between atoms: C_2  and  C_4
REMARK    2  A    between atoms: C_7  and  C_8
REMARK    3  A    between atoms: C_8  and  N_9
REMARK    4  A    between atoms: N_16  and  C_17
REMARK    5  A    between atoms: C_17  and  C_18
REMARK                            x       y       z     vdW  Elec       q    Type
REMARK                         _______ _______ _______ _____ _____    ______ ____
ROOT
ATOM      9  N   UNL     1      -3.350   1.633  24.201  0.00  0.00    -0.265 NA
ATOM     10  C   UNL     1      -4.084   1.982  24.348  0.00  0.00    +0.104 C 
ATOM     11  C   UNL     1      -3.966   2.615  24.863  0.00  0.00    +0.151 C 
ATOM     12  O   UNL     1      -4.488   3.159  25.199  0.00  0.00    -0.344 OA
ATOM     13  C   UNL     1      -4.205   3.744  25.706  0.00  0.00    +0.227 C 
ATOM     14  C   UNL     1      -3.399   3.787  25.877  0.00  0.00    +0.256 C 
ATOM     15  O   UNL     1      -3.115   4.374  26.384  0.00  0.00    -0.272 OA
ATOM     16  N   UNL     1      -2.876   3.244  25.542  0.00  0.00    -0.275 N 
ATOM     21  C   UNL     1      -3.160   2.658  25.035  0.00  0.00    +0.120 C 
ATOM     22  C   UNL     1      -2.780   2.051  24.626  0.00  0.00    +0.095 C 
ENDROOT
BRANCH   9   8
ATOM      8  C   UNL     1      -3.212   0.981  23.715  0.00  0.00    +0.099 C 
BRANCH   8   7
ATOM      4  C   UNL     1      -3.471  -1.311  24.614  0.00  0.00    +0.080 A 
ATOM      5  C   UNL     1      -4.109  -0.936  24.249  0.00  0.00    +0.006 A 
ATOM      6  C   UNL     1      -4.023  -0.172  23.949  0.00  0.00    -0.003 A 
ATOM      7  C   UNL     1      -3.298   0.217  24.015  0.00  0.00    -0.006 A 
ATOM     23  C   UNL     1      -2.660  -0.158  24.380  0.00  0.00    -0.003 A 
ATOM     24  C   UNL     1      -2.747  -0.921  24.679  0.00  0.00    +0.006 A 
BRANCH   4   2
ATOM      1  O   UNL     1      -3.537  -2.202  25.728  0.00  0.00    -0.241 OA
ATOM      2  C   UNL     1      -3.558  -2.074  24.913  0.00  0.00    +0.388 C 
ATOM      3  O   UNL     1      -3.665  -2.709  24.399  0.00  0.00    -0.241 OA
ENDBRANCH   4   2
ENDBRANCH   8   7
ENDBRANCH   9   8
BRANCH  16  17
ATOM     17  C   UNL     1      -2.070   3.287  25.713  0.00  0.00    +0.093 C 
BRANCH  17  18
ATOM     18  C   UNL     1      -1.598   3.850  25.338  0.00  0.00    +0.020 C 
ATOM     19  C   UNL     1      -0.928   4.040  24.895  0.00  0.00    +0.002 C 
ATOM     20  C   UNL     1      -1.450   4.635  25.131  0.00  0.00    +0.002 C 
ENDBRANCH  17  18
ENDBRANCH  16  17
TORSDOF 5
ENDMDL
MODEL 2
REMARK VINA RESULT:     -10.7      1.219      1.451
REMARK  Name = 
REMARK  5 active torsions:
REMARK  status: ('A' for Active; 'I' for Inactive)
REMARK    1  A    between atoms: C_2  and  C_4
REMARK    2  A    between atoms: C_7  and  C_8
REMARK    3  A    between atoms: C_8  and  N_9
REMARK    4  A    between atoms: N_16  and  C_17
REMARK    5  A    between atoms: C_17  and  C_18
REMARK                            x       y       z     vdW  Elec       q    Type
REMARK                         _______ _______ _______ _____ _____    ______ ____
ROOT
ATOM      9  N   UNL     1      -4.311   1.175  24.998  0.00  0.00    -0.265 NA
ATOM     10  C   UNL     1      -4.617   1.687  24.427  0.00  0.00    +0.104 C 
ATOM     11  C   UNL     1      -4.119   2.342  24.379  0.00  0.00    +0.151 C 
ATOM     12  O   UNL     1      -4.145   3.022  23.912  0.00  0.00    -0.344 OA
ATOM     13  C   UNL     1      -3.557   3.596  23.987  0.00  0.00    +0.227 C 
ATOM     14  C   UNL     1      -2.943   3.490  24.527  0.00  0.00    +0.256 C 
ATOM     15  O   UNL     1      -2.355   4.064  24.602  0.00  0.00    -0.272 OA
ATOM     16  N   UNL     1      -2.917   2.810  24.994  0.00  0.00    -0.275 N 
ATOM     21  C   UNL     1      -3.505   2.236  24.920  0.00  0.00    +0.120 C 
ATOM     22  C   UNL     1      -3.624   1.515  25.302  0.00  0.00    +0.095 C 
ENDROOT
BRANCH   9   8
ATOM      8  C   UNL     1      -4.635   0.451  25.224  0.00  0.00    +0.099 C 
BRANCH   8   7
ATOM      4  C   UNL     1      -3.494  -1.661  24.620  0.00  0.00    +0.080 A 
ATOM      5  C   UNL     1      -3.424  -1.358  25.384  0.00  0.00    +0.006 A 
ATOM      6  C   UNL     1      -3.805  -0.654  25.586  0.00  0.00    -0.003 A 
ATOM      7  C   UNL     1      -4.255  -0.253  25.022  0.00  0.00    -0.006 A 
ATOM     23  C   UNL     1      -4.324  -0.555  24.258  0.00  0.00    -0.003 A 
ATOM     24  C   UNL     1      -3.944  -1.259  24.057  0.00  0.00    +0.006 A 
BRANCH   4   2
ATOM      1  O   UNL     1      -3.544  -3.065  24.367  0.00  0.00    -0.241 OA
ATOM      2  C   UNL     1      -3.113  -2.364  24.419  0.00  0.00    +0.388 C 
ATOM      3  O   UNL     1      -2.303  -2.366  24.270  0.00  0.00    -0.241 OA
ENDBRANCH   4   2
ENDBRANCH   8   7
ENDBRANCH   9   8
BRANCH  16  17
ATOM     17  C   UNL     1      -2.303   2.704  25.535  0.00  0.00    +0.093 C 
BRANCH  17  18
ATOM     18  C   UNL     1      -1.580   2.396  25.283  0.00  0.00    +0.020 C 
ATOM     19  C   UNL     1      -0.979   1.836  25.355  0.00  0.00    +0.002 C 
ATOM     20  C   UNL     1      -0.930   2.423  24.776  0.00  0.00    +0.002 C 
ENDBRANCH  17  18
ENDBRANCH  16  17
TORSDOF 5
ENDMDL
MODEL 3
REMARK VINA RESULT:     -10.7      1.643      4.537
REMARK  Name = 
REMARK  5 active torsions:
REMARK  status: ('A' for Active; 'I' for Inactive)
REMARK    1  A    between atoms: C_2  and  C_4
REMARK    2  A    between atoms: C_7  and  C_8
REMARK    3  A    between atoms: C_8  and  N_9
REMARK    4  A    between atoms: N_16  and  C_17
REMARK    5  A    between atoms: C_17  and  C_18
REMARK                            x       y       z     vdW  Elec       q    Type
REMARK                         _______ _______ _______ _____ _____    ______ ____
ROOT
ATOM      9  N   UNL     1      -2.640   1.232  24.229  0.00  0.00    -0.265 NA
ATOM     10  C   UNL     1      -1.946   1.350  24.660  0.00  0.00    +0.104 C 
ATOM     11  C   UNL     1      -1.639   0.610  24.854  0.00  0.00    +0.151 C 
ATOM     12  O   UNL     1      -0.966   0.384  25.274  0.00  0.00    -0.344 OA
ATOM     13  C   UNL     1      -0.796  -0.415  25.384  0.00  0.00    +0.227 C 
ATOM     14  C   UNL     1      -1.300  -0.990  25.073  0.00  0.00    +0.256 C 
ATOM     15  O   UNL     1      -1.130  -1.791  25.183  0.00  0.00    -0.272 OA
ATOM     16  N   UNL     1      -1.973  -0.766  24.653  0.00  0.00    -0.275 N 
ATOM     21  C   UNL     1      -2.143   0.035  24.544  0.00  0.00    +0.120 C 
ATOM     22  C   UNL     1      -2.761   0.420  24.157  0.00  0.00    +0.095 C 
ENDROOT
BRANCH   9   8
ATOM      8  C   UNL     1      -3.127   1.824  23.923  0.00  0.00    +0.099 C 
BRANCH   8   7
ATOM      4  C   UNL     1      -4.909   2.811  25.329  0.00  0.00    +0.080 A 
ATOM      5  C   UNL     1      -5.068   2.145  24.870  0.00  0.00    +0.006 A 
ATOM      6  C   UNL     1      -4.473   1.815  24.401  0.00  0.00    -0.003 A 
ATOM      7  C   UNL     1      -3.721   2.154  24.392  0.00  0.00    -0.006 A 
ATOM     23  C   UNL     1      -3.562   2.820  24.851  0.00  0.00    -0.003 A 
ATOM     24  C   UNL     1      -4.156   3.149  25.320  0.00  0.00    +0.006 A 
BRANCH   4   2
ATOM      1  O   UNL     1      -5.771   3.905  25.647  0.00  0.00    -0.241 OA
ATOM      2  C   UNL     1      -5.502   3.140  25.798  0.00  0.00    +0.388 C 
ATOM      3  O   UNL     1      -5.828   2.704  26.417  0.00  0.00    -0.241 OA
ENDBRANCH   4   2
ENDBRANCH   8   7
ENDBRANCH   9   8
BRANCH  16  17
ATOM     17  C   UNL     1      -2.477  -1.340  24.343  0.00  0.00    +0.093 C 
BRANCH  17  18
ATOM     18  C   UNL     1      -3.024  -1.717  24.833  0.00  0.00    +0.020 C 
ATOM     19  C   UNL     1      -3.494  -2.373  25.007  0.00  0.00    +0.002 C 
ATOM     20  C   UNL     1      -3.500  -1.716  25.507  0.00  0.00    +0.002 C 
ENDBRANCH  17  18
ENDBRANCH  16  17
TORSDOF 5
ENDMDL
MODEL 4
REMARK VINA RESULT:     -10.6      1.004      2.123
REMARK  Name = 
REMARK  5 active torsions:
REMARK  status: ('A' for Active; 'I' for Inactive)
REMARK    1  A    between atoms: C_2  and  C_4
REMARK    2  A    between atoms: C_7  and  C_8
REMARK    3  A    between atoms: C_8  and  N_9
REMARK    4  A    between atoms: N_16  and  C_17
REMARK    5  A    between atoms: C_17  and  C_18
REMARK                            x       y       z     vdW  Elec       q    Type
REMARK                         _______ _______ _______ _____ _____    ______ ____
ROOT
ATOM      9  N   UNL     1      -3.156   1.305  24.067  0.00  0.00    -0.265 NA
ATOM     10  C   UNL     1      -2.586   1.738  24.479  0.00  0.00    +0.104 C 
ATOM     11  C   UNL     1      -2.966   2.365  24.855  0.00  0.00    +0.151 C 
ATOM     12  O   UNL     1      -2.684   2.973  25.337  0.00  0.00    -0.344 OA
ATOM     13  C   UNL     1      -3.205   3.535  25.640  0.00  0.00    +0.227 C 
ATOM     14  C   UNL     1      -4.009   3.490  25.461  0.00  0.00    +0.256 C 
ATOM     15  O   UNL     1      -4.532   4.053  25.765  0.00  0.00    -0.272 OA
ATOM     16  N   UNL     1      -4.292   2.884  24.979  0.00  0.00    -0.275 N 
ATOM     21  C   UNL     1      -3.770   2.321  24.676  0.00  0.00    +0.120 C 
ATOM     22  C   UNL     1      -3.887   1.666  24.189  0.00  0.00    +0.095 C 
ENDROOT
BRANCH   9   8
ATOM      8  C   UNL     1      -3.017   0.630  23.614  0.00  0.00    +0.099 C 
BRANCH   8   7
ATOM      4  C   UNL     1      -3.384  -1.615  24.591  0.00  0.00    +0.080 A 
ATOM      5  C   UNL     1      -3.983  -1.253  24.154  0.00  0.00    +0.006 A 
ATOM      6  C   UNL     1      -3.860  -0.504  23.828  0.00  0.00    -0.003 A 
ATOM      7  C   UNL     1      -3.140  -0.119  23.940  0.00  0.00    -0.006 A 
ATOM     23  C   UNL     1      -2.541  -0.482  24.377  0.00  0.00    -0.003 A 
ATOM     24  C   UNL     1      -2.664  -1.229  24.702  0.00  0.00    +0.006 A 
BRANCH   4   2
ATOM      1  O   UNL     1      -3.597  -3.018  24.422  0.00  0.00    -0.241 OA
ATOM      2  C   UNL     1      -3.507  -2.363  24.916  0.00  0.00    +0.388 C 
ATOM      3  O   UNL     1      -3.539  -2.456  25.735  0.00  0.00    -0.241 OA
ENDBRANCH   4   2
ENDBRANCH   8   7
ENDBRANCH   9   8
BRANCH  16  17
ATOM     17  C   UNL     1      -5.096   2.839  24.800  0.00  0.00    +0.093 C 
BRANCH  17  18
ATOM     18  C   UNL     1      -5.608   2.431  25.302  0.00  0.00    +0.020 C 
ATOM     19  C   UNL     1      -6.215   1.882  25.410  0.00  0.00    +0.002 C 
ATOM     20  C   UNL     1      -5.889   2.272  26.061  0.00  0.00    +0.002 C 
ENDBRANCH  17  18
ENDBRANCH  16  17
TORSDOF 5
ENDMDL
MODEL 5
REMARK VINA RESULT:     -10.5      1.825      4.003
REMARK  Name = 
REMARK  5 active torsions:
REMARK  status: ('A' for Active; 'I' for Inactive)
REMARK    1  A    between atoms: C_2  and  C_4
REMARK    2  A    between atoms: C_7  and  C_8
REMARK    3  A    between atoms: C_8  and  N_9
REMARK    4  A    between atoms: N_16  and  C_17
REMARK    5  A    between atoms: C_17  and  C_18
REMARK                            x       y       z     vdW  Elec       q    Type
REMARK                         _______ _______ _______ _____ _____    ______ ____
ROOT
ATOM      9  N   UNL     1      -3.323   3.676  25.178  0.00  0.00    -0.265 NA
ATOM     10  C   UNL     1      -3.903   3.911  25.716  0.00  0.00    +0.104 C 
ATOM     11  C   UNL     1      -4.534   3.383  25.657  0.00  0.00    +0.151 C 
ATOM     12  O   UNL     1      -5.257   3.340  26.051  0.00  0.00    -0.344 OA
ATOM     13  C   UNL     1      -5.790   2.737  25.872  0.00  0.00    +0.227 C 
ATOM     14  C   UNL     1      -5.600   2.176  25.298  0.00  0.00    +0.256 C 
ATOM     15  O   UNL     1      -6.134   1.572  25.119  0.00  0.00    -0.272 OA
ATOM     16  N   UNL     1      -4.877   2.218  24.903  0.00  0.00    -0.275 N 
ATOM     21  C   UNL     1      -4.344   2.822  25.083  0.00  0.00    +0.120 C 
ATOM     22  C   UNL     1      -3.596   3.003  24.787  0.00  0.00    +0.095 C 
ENDROOT
BRANCH   9   8
ATOM      8  C   UNL     1      -2.598   4.049  25.053  0.00  0.00    +0.099 C 
BRANCH   8   7
ATOM      4  C   UNL     1      -0.488   2.839  25.517  0.00  0.00    +0.080 A 
ATOM      5  C   UNL     1      -0.962   3.096  26.141  0.00  0.00    +0.006 A 
ATOM      6  C   UNL     1      -1.666   3.499  25.987  0.00  0.00    -0.003 A 
ATOM      7  C   UNL     1      -1.894   3.645  25.207  0.00  0.00    -0.006 A 
ATOM     23  C   UNL     1      -1.420   3.389  24.583  0.00  0.00    -0.003 A 
ATOM     24  C   UNL     1      -0.718   2.986  24.738  0.00  0.00    +0.006 A 
BRANCH   4   2
ATOM      1  O   UNL     1       0.584   2.519  26.404  0.00  0.00    -0.241 OA
ATOM      2  C   UNL     1       0.214   2.437  25.671  0.00  0.00    +0.388 C 
ATOM      3  O   UNL     1       0.548   1.952  25.094  0.00  0.00    -0.241 OA
ENDBRANCH   4   2
ENDBRANCH   8   7
ENDBRANCH   9   8
BRANCH  16  17
ATOM     17  C   UNL     1      -4.688   1.656  24.329  0.00  0.00    +0.093 C 
BRANCH  17  18
ATOM     18  C   UNL     1      -4.353   0.936  24.553  0.00  0.00    +0.020 C 
ATOM     19  C   UNL     1      -3.771   0.359  24.457  0.00  0.00    +0.002 C 
ATOM     20  C   UNL     1      -4.356   0.265  25.033  0.00  0.00    +0.002 C 
ENDBRANCH  17  18
ENDBRANCH  16  17
TORSDOF 5
ENDMDL
MODEL 6
REMARK VINA RESULT:     -10.4      2.163      2.985
REMARK  Name = 
REMARK  5 active torsions:
REMARK  status: ('A' for Active; 'I' for Inactive)
REMARK    1  A    between atoms: C_2  and  C_4
REMARK    2  A    between atoms: C_7  and  C_8
REMARK    3  A    between atoms: C_8  and  N_9
REMARK    4  A    between atoms: N_16  and  C_17
REMARK    5  A    between atoms: C_17  and  C_18
REMARK                            x       y       z     vdW  Elec       q    Type
REMARK                         _______ _______ _______ _____ _____    ______ ____
ROOT
ATOM      9  N   UNL     1      -2.376   1.486  24.384  0.00  0.00    -0.265 NA
ATOM     10  C   UNL     1      -1.992   1.035  24.959  0.00  0.00    +0.104 C 
ATOM     11  C   UNL     1      -1.343   1.465  25.228  0.00  0.00    +0.151 C 
ATOM     12  O   UNL     1      -0.765   1.298  25.793  0.00  0.00    -0.344 OA
ATOM     13  C   UNL     1      -0.169   1.846  25.949  0.00  0.00    +0.227 C 
ATOM     14  C   UNL     1      -0.151   2.563  25.541  0.00  0.00    +0.256 C 
ATOM     15  O   UNL     1       0.445   3.112  25.698  0.00  0.00    -0.272 OA
ATOM     16  N   UNL     1      -0.729   2.732  24.977  0.00  0.00    -0.275 N 
ATOM     21  C   UNL     1      -1.325   2.182  24.820  0.00  0.00    +0.120 C 
ATOM     22  C   UNL     1      -1.963   2.195  24.299  0.00  0.00    +0.095 C 
ENDROOT
BRANCH   9   8
ATOM      8  C   UNL     1      -3.054   1.266  23.968  0.00  0.00    +0.099 C 
BRANCH   8   7
ATOM      4  C   UNL     1      -5.293   1.707  24.927  0.00  0.00    +0.080 A 
ATOM      5  C   UNL     1      -4.924   0.981  25.058  0.00  0.00    +0.006 A 
ATOM      6  C   UNL     1      -4.177   0.834  24.738  0.00  0.00    -0.003 A 
ATOM      7  C   UNL     1      -3.801   1.413  24.288  0.00  0.00    -0.006 A 
ATOM     23  C   UNL     1      -4.170   2.139  24.156  0.00  0.00    -0.003 A 
ATOM     24  C   UNL     1      -4.916   2.286  24.476  0.00  0.00    +0.006 A 
BRANCH   4   2
ATOM      1  O   UNL     1      -6.114   2.056  26.042  0.00  0.00    -0.241 OA
ATOM      2  C   UNL     1      -6.039   1.854  25.246  0.00  0.00    +0.388 C 
ATOM      3  O   UNL     1      -6.710   1.798  24.770  0.00  0.00    -0.241 OA
ENDBRANCH   4   2
ENDBRANCH   8   7
ENDBRANCH   9   8
BRANCH  16  17
ATOM     17  C   UNL     1      -0.711   3.448  24.569  0.00  0.00    +0.093 C 
BRANCH  17  18
ATOM     18  C   UNL     1      -1.026   4.128  24.916  0.00  0.00    +0.020 C 
ATOM     19  C   UNL     1      -1.007   4.944  25.032  0.00  0.00    +0.002 C 
ATOM     20  C   UNL     1      -1.589   4.488  25.399  0.00  0.00    +0.002 C 
ENDBRANCH  17  18
ENDBRANCH  16  17
TORSDOF 5
ENDMDL
MODEL 7
REMARK VINA RESULT:     -10.3      1.752      2.601
REMARK  Name = 
REMARK  5 active torsions:
REMARK  status: ('A' for Active; 'I' for Inactive)
REMARK    1  A    between atoms: C_2  and  C_4
REMARK    2  A    between atoms: C_7  and  C_8
REMARK    3  A    between atoms: C_8  and  N_9
REMARK    4  A    between atoms: N_16  and  C_17
REMARK    5  A    between atoms: C_17  and  C_18
REMARK                            x       y       z     vdW  Elec       q    Type
REMARK                         _______ _______ _______ _____ _____    ______ ____
ROOT
ATOM      9  N   UNL     1      -1.439   0.138  25.486  0.00  0.00    -0.265 NA
ATOM     10  C   UNL     1      -0.696   0.299  25.163  0.00  0.00    +0.104 C 
ATOM     11  C   UNL     1      -0.700   1.077  24.893  0.00  0.00    +0.151 C 
ATOM     12  O   UNL     1      -0.122   1.537  24.524  0.00  0.00    -0.344 OA
ATOM     13  C   UNL     1      -0.288   2.316  24.312  0.00  0.00    +0.227 C 
ATOM     14  C   UNL     1      -1.032   2.637  24.468  0.00  0.00    +0.256 C 
ATOM     15  O   UNL     1      -1.198   3.417  24.255  0.00  0.00    -0.272 OA
ATOM     16  N   UNL     1      -1.610   2.178  24.836  0.00  0.00    -0.275 N 
ATOM     21  C   UNL     1      -1.444   1.398  25.048  0.00  0.00    +0.120 C 
ATOM     22  C   UNL     1      -1.900   0.817  25.415  0.00  0.00    +0.095 C 
ENDROOT
BRANCH   9   8
ATOM      8  C   UNL     1      -1.677  -0.578  25.821  0.00  0.00    +0.099 C 
BRANCH   8   7
ATOM      4  C   UNL     1      -3.292  -2.026  24.630  0.00  0.00    +0.080 A 
ATOM      5  C   UNL     1      -3.556  -1.508  25.214  0.00  0.00    +0.006 A 
ATOM      6  C   UNL     1      -3.018  -1.025  25.612  0.00  0.00    -0.003 A 
ATOM      7  C   UNL     1      -2.215  -1.061  25.424  0.00  0.00    -0.006 A 
ATOM     23  C   UNL     1      -1.951  -1.579  24.839  0.00  0.00    -0.003 A 
ATOM     24  C   UNL     1      -2.489  -2.062  24.442  0.00  0.00    +0.006 A 
BRANCH   4   2
ATOM      1  O   UNL     1      -4.418  -2.171  23.763  0.00  0.00    -0.241 OA
ATOM      2  C   UNL     1      -3.830  -2.509  24.233  0.00  0.00    +0.388 C 
ATOM      3  O   UNL     1      -3.781  -3.328  24.306  0.00  0.00    -0.241 OA
ENDBRANCH   4   2
ENDBRANCH   8   7
ENDBRANCH   9   8
BRANCH  16  17
ATOM     17  C   UNL     1      -2.354   2.499  24.991  0.00  0.00    +0.093 C 
BRANCH  17  18
ATOM     18  C   UNL     1      -2.936   2.492  24.407  0.00  0.00    +0.020 C 
ATOM     19  C   UNL     1      -3.697   2.289  24.158  0.00  0.00    +0.002 C 
ATOM     20  C   UNL     1      -3.185   2.683  23.643  0.00  0.00    +0.002 C 
ENDBRANCH  17  18
ENDBRANCH  16  17
TORSDOF 5
ENDMDL
MODEL 8
REMARK VINA RESULT:     -10.0      1.553      4.739
REMARK  Name = 
REMARK  5 active torsions:
REMARK  status: ('A' for Active; 'I' for Inactive)
REMARK    1  A    between atoms: C_2  and  C_4
REMARK    2  A    between atoms: C_7  and  C_8
REMARK    3  A    between atoms: C_8  and  N_9
REMARK    4  A    between atoms: N_16  and  C_17
REMARK    5  A    between atoms: C_17  and  C_18
REMARK                            x       y       z     vdW  Elec       q    Type
REMARK                         _______ _______ _______ _____ _____    ______ ____
ROOT
ATOM      9  N   UNL     1      -1.168   0.856  24.943  0.00  0.00    -0.265 NA
ATOM     10  C   UNL     1      -1.110   0.218  25.464  0.00  0.00    +0.104 C 
ATOM     11  C   UNL     1      -1.826  -0.189  25.449  0.00  0.00    +0.151 C 
ATOM     12  O   UNL     1      -2.088  -0.862  25.849  0.00  0.00    -0.344 OA
ATOM     13  C   UNL     1      -2.850  -1.149  25.720  0.00  0.00    +0.227 C 
ATOM     14  C   UNL     1      -3.352  -0.763  25.191  0.00  0.00    +0.256 C 
ATOM     15  O   UNL     1      -4.115  -1.050  25.062  0.00  0.00    -0.272 OA
ATOM     16  N   UNL     1      -3.092  -0.090  24.791  0.00  0.00    -0.275 N 
ATOM     21  C   UNL     1      -2.328   0.197  24.920  0.00  0.00    +0.120 C 
ATOM     22  C   UNL     1      -1.922   0.842  24.607  0.00  0.00    +0.095 C 
ENDROOT
BRANCH   9   8
ATOM      8  C   UNL     1      -0.577   1.410  24.787  0.00  0.00    +0.099 C 
BRANCH   8   7
ATOM      4  C   UNL     1      -1.039   3.826  25.066  0.00  0.00    +0.080 A 
ATOM      5  C   UNL     1      -0.904   3.352  25.728  0.00  0.00    +0.006 A 
ATOM      6  C   UNL     1      -0.750   2.546  25.635  0.00  0.00    -0.003 A 
ATOM      7  C   UNL     1      -0.731   2.215  24.880  0.00  0.00    -0.006 A 
ATOM     23  C   UNL     1      -0.866   2.689  24.218  0.00  0.00    -0.003 A 
ATOM     24  C   UNL     1      -1.020   3.493  24.311  0.00  0.00    +0.006 A 
BRANCH   4   2
ATOM      1  O   UNL     1      -1.889   4.877  25.526  0.00  0.00    -0.241 OA
ATOM      2  C   UNL     1      -1.193   4.630  25.159  0.00  0.00    +0.388 C 
ATOM      3  O   UNL     1      -0.651   5.188  24.886  0.00  0.00    -0.241 OA
ENDBRANCH   4   2
ENDBRANCH   8   7
ENDBRANCH   9   8
BRANCH  16  17
ATOM     17  C   UNL     1      -3.593   0.296  24.261  0.00  0.00    +0.093 C 
BRANCH  17  18
ATOM     18  C   UNL     1      -4.142   0.845  24.540  0.00  0.00    +0.020 C 
ATOM     19  C   UNL     1      -4.463   1.605  24.523  0.00  0.00    +0.002 C 
ATOM     20  C   UNL     1      -4.770   1.039  25.039  0.00  0.00    +0.002 C 
ENDBRANCH  17  18
ENDBRANCH  16  17
TORSDOF 5
ENDMDL
