MODEL 1
REMARK VINA RESULT:     -14.3      0.000      0.000
REMARK  Name = 
REMARK  6 active torsions:
REMARK  status: ('A' for Active; 'I' for Inactive)
REMARK    1  A    between atoms: C_2  and  N_3
REMARK    2  A    between atoms: N_3  and  C_4
REMARK    3  A    between atoms: C_6  and  C_8
REMARK    4  A    between atoms: C_8  and  C_9
REMARK    5  A    between atoms: C_14  and  C_16
REMARK    6  A    between atoms: C_27  and  C_29
REMARK                            x       y       z     vdW  Elec       q    Type
REMARK                         _______ _______ _______ _____ _____    ______ ____
ROOT
ATOM      9  C   UNL     1      -3.108   2.704  25.298  0.00  0.00    +0.050 C 
ATOM     10  C   UNL     1      -2.812   1.976  25.043  0.00  0.00    +0.063 A 
ATOM     11  C   UNL     1      -2.039   1.921  24.762  0.00  0.00    +0.023 A 
ATOM     12  C   UNL     1      -1.561   2.593  24.735  0.00  0.00    +0.034 C 
ATOM     13  C   UNL     1      -1.855   3.319  24.990  0.00  0.00    +0.010 C 
ATOM     14  C   UNL     1      -1.377   3.990  24.963  0.00  0.00    +0.059 C 
ATOM     15  C   UNL     1      -0.853   3.429  24.663  0.00  0.00    +0.005 C 
ATOM     18  C   UNL     1      -1.672   4.718  25.218  0.00  0.00    +0.154 C 
ATOM     19  O   UNL     1      -1.194   5.390  25.192  0.00  0.00    -0.223 OA
ATOM     20  C   UNL     1      -2.445   4.773  25.500  0.00  0.00    +0.033 C 
ATOM     21  C   UNL     1      -2.924   4.101  25.526  0.00  0.00    +0.003 C 
ATOM     22  C   UNL     1      -2.629   3.375  25.271  0.00  0.00    +0.006 C 
ATOM     23  C   UNL     1      -3.402   3.430  25.553  0.00  0.00    +0.000 C 
ATOM     24  S   UNL     1      -1.901   1.135  24.549  0.00  0.00    -0.054 S 
ATOM     25  C   UNL     1      -2.588   0.706  24.699  0.00  0.00    +0.185 A 
ATOM     26  N   UNL     1      -2.694  -0.101  24.568  0.00  0.00    -0.151 NA
ATOM     27  C   UNL     1      -3.418  -0.457  24.746  0.00  0.00    +0.271 C 
ATOM     28  O   UNL     1      -4.034  -0.005  25.055  0.00  0.00    -0.268 OA
ATOM     36  N   UNL     1      -3.152   1.225  25.005  0.00  0.00    -0.227 NA
ENDROOT
BRANCH  27  29
ATOM     29  C   UNL     1      -3.524  -1.265  24.614  0.00  0.00    +0.056 A 
ATOM     30  C   UNL     1      -3.156  -1.814  25.107  0.00  0.00    +0.007 A 
ATOM     31  C   UNL     1      -3.262  -2.622  24.975  0.00  0.00    +0.030 A 
ATOM     32  C   UNL     1      -3.735  -2.880  24.351  0.00  0.00    +0.140 A 
ATOM     33  F   UNL     1      -3.841  -3.687  24.219  0.00  0.00    -0.204 F 
ATOM     34  C   UNL     1      -4.103  -2.329  23.857  0.00  0.00    +0.030 A 
ATOM     35  C   UNL     1      -3.997  -1.522  23.989  0.00  0.00    +0.007 A 
ENDBRANCH  27  29
BRANCH  14  16
ATOM     16  C   UNL     1      -0.717   4.467  24.832  0.00  0.00    +0.184 C 
ATOM     17  O   UNL     1      -0.150   4.245  24.276  0.00  0.00    -0.220 OA
ENDBRANCH  14  16
BRANCH   9   8
ATOM      8  C   UNL     1      -3.880   2.759  25.580  0.00  0.00    +0.091 C 
BRANCH   8   6
ATOM      3  N   UNL     1      -5.281   2.634  25.324  0.00  0.00    -0.280 N 
ATOM      6  C   UNL     1      -4.513   2.763  25.050  0.00  0.00    +0.226 C 
ATOM      7  O   UNL     1      -4.377   2.897  24.248  0.00  0.00    -0.275 OA
BRANCH   3   2
ATOM      1  C   UNL     1      -6.415   1.985  24.748  0.00  0.00    +0.023 C 
ATOM      2  C   UNL     1      -5.913   2.638  24.794  0.00  0.00    +0.093 C 
ENDBRANCH   3   2
BRANCH   3   4
ATOM      4  C   UNL     1      -5.415   2.500  26.126  0.00  0.00    +0.093 C 
ATOM      5  C   UNL     1      -6.187   2.430  26.409  0.00  0.00    +0.023 C 
ENDBRANCH   3   4
ENDBRANCH   8   6
ENDBRANCH   9   8
TORSDOF 6
ENDMDL
MODEL 2
REMARK VINA RESULT:     -14.0      2.070      5.073
REMARK  Name = 
REMARK  6 active torsions:
REMARK  status: ('A' for Active; 'I' for Inactive)
REMARK    1  A    between atoms: C_2  and  N_3
REMARK    2  A    between atoms: N_3  and  C_4
REMARK    3  A    between atoms: C_6  and  C_8
REMARK    4  A    between atoms: C_8  and  C_9
REMARK    5  A    between atoms: C_14  and  C_16
REMARK    6  A    between atoms: C_27  and  C_29
REMARK                            x       y       z     vdW  Elec       q    Type
REMARK                         _______ _______ _______ _____ _____    ______ ____
ROOT
ATOM      9  C   UNL     1      -3.616   0.134  24.554  0.00  0.00    +0.050 C 
ATOM     10  C   UNL     1      -2.923   0.577  24.620  0.00  0.00    +0.063 A 
ATOM     11  C   UNL     1      -2.190   0.198  24.636  0.00  0.00    +0.023 A 
ATOM     12  C   UNL     1      -2.152  -0.625  24.587  0.00  0.00    +0.034 C 
ATOM     13  C   UNL     1      -2.844  -1.068  24.521  0.00  0.00    +0.010 C 
ATOM     14  C   UNL     1      -2.805  -1.890  24.471  0.00  0.00    +0.059 C 
ATOM     15  C   UNL     1      -2.002  -1.711  24.527  0.00  0.00    +0.005 C 
ATOM     18  C   UNL     1      -3.498  -2.333  24.405  0.00  0.00    +0.154 C 
ATOM     19  O   UNL     1      -3.459  -3.156  24.356  0.00  0.00    -0.223 OA
ATOM     20  C   UNL     1      -4.230  -1.953  24.389  0.00  0.00    +0.033 C 
ATOM     21  C   UNL     1      -4.270  -1.130  24.438  0.00  0.00    +0.003 C 
ATOM     22  C   UNL     1      -3.576  -0.688  24.504  0.00  0.00    +0.006 C 
ATOM     23  C   UNL     1      -4.309  -0.308  24.488  0.00  0.00    +0.000 C 
ATOM     24  S   UNL     1      -1.605   0.775  24.705  0.00  0.00    -0.054 S 
ATOM     25  C   UNL     1      -1.975   1.511  24.731  0.00  0.00    +0.185 A 
ATOM     26  N   UNL     1      -1.598   2.242  24.797  0.00  0.00    -0.151 NA
ATOM     27  C   UNL     1      -2.044   2.936  24.817  0.00  0.00    +0.271 C 
ATOM     28  O   UNL     1      -2.866   2.899  24.769  0.00  0.00    -0.268 OA
ATOM     36  N   UNL     1      -2.790   1.390  24.678  0.00  0.00    -0.227 NA
ENDROOT
BRANCH  27  29
ATOM     29  C   UNL     1      -1.666   3.667  24.883  0.00  0.00    +0.056 A 
ATOM     30  C   UNL     1      -2.061   4.305  25.225  0.00  0.00    +0.007 A 
ATOM     31  C   UNL     1      -1.683   5.035  25.292  0.00  0.00    +0.030 A 
ATOM     32  C   UNL     1      -0.911   5.128  25.017  0.00  0.00    +0.140 A 
ATOM     33  F   UNL     1      -0.534   5.859  25.083  0.00  0.00    -0.204 F 
ATOM     34  C   UNL     1      -0.516   4.489  24.674  0.00  0.00    +0.030 A 
ATOM     35  C   UNL     1      -0.894   3.758  24.608  0.00  0.00    +0.007 A 
ENDBRANCH  27  29
BRANCH  14  16
ATOM     16  C   UNL     1      -2.487  -2.651  24.441  0.00  0.00    +0.184 C 
ATOM     17  O   UNL     1      -1.670  -2.756  24.410  0.00  0.00    -0.220 OA
ENDBRANCH  14  16
BRANCH   9   8
ATOM      8  C   UNL     1      -4.348   0.514  24.537  0.00  0.00    +0.091 C 
BRANCH   8   6
ATOM      3  N   UNL     1      -5.336   1.281  25.228  0.00  0.00    -0.280 N 
ATOM      6  C   UNL     1      -4.709   0.745  25.242  0.00  0.00    +0.226 C 
ATOM      7  O   UNL     1      -4.442   0.440  25.960  0.00  0.00    -0.275 OA
BRANCH   3   2
ATOM      1  C   UNL     1      -5.821   2.313  26.089  0.00  0.00    +0.023 C 
ATOM      2  C   UNL     1      -5.696   1.512  25.932  0.00  0.00    +0.093 C 
ENDBRANCH   3   2
BRANCH   3   4
ATOM      4  C   UNL     1      -5.602   1.586  24.509  0.00  0.00    +0.093 C 
ATOM      5  C   UNL     1      -6.354   1.921  24.455  0.00  0.00    +0.023 C 
ENDBRANCH   3   4
ENDBRANCH   8   6
ENDBRANCH   9   8
TORSDOF 6
ENDMDL
MODEL 3
REMARK VINA RESULT:     -13.4      2.262      4.123
REMARK  Name = 
REMARK  6 active torsions:
REMARK  status: ('A' for Active; 'I' for Inactive)
REMARK    1  A    between atoms: C_2  and  N_3
REMARK    2  A    between atoms: N_3  and  C_4
REMARK    3  A    between atoms: C_6  and  C_8
REMARK    4  A    between atoms: C_8  and  C_9
REMARK    5  A    between atoms: C_14  and  C_16
REMARK    6  A    between atoms: C_27  and  C_29
REMARK                            x       y       z     vdW  Elec       q    Type
REMARK                         _______ _______ _______ _____ _____    ______ ____
ROOT
ATOM      9  C   UNL     1      -3.755   0.942  24.560  0.00  0.00    +0.050 C 
ATOM     10  C   UNL     1      -2.994   1.245  24.455  0.00  0.00    +0.063 A 
ATOM     11  C   UNL     1      -2.840   2.038  24.621  0.00  0.00    +0.023 A 
ATOM     12  C   UNL     1      -3.445   2.528  24.893  0.00  0.00    +0.034 C 
ATOM     13  C   UNL     1      -4.205   2.226  24.998  0.00  0.00    +0.010 C 
ATOM     14  C   UNL     1      -4.810   2.715  25.270  0.00  0.00    +0.059 C 
ATOM     15  C   UNL     1      -4.185   3.253  25.258  0.00  0.00    +0.005 C 
ATOM     18  C   UNL     1      -5.571   2.413  25.375  0.00  0.00    +0.154 C 
ATOM     19  O   UNL     1      -6.177   2.903  25.647  0.00  0.00    -0.223 OA
ATOM     20  C   UNL     1      -5.726   1.620  25.209  0.00  0.00    +0.033 C 
ATOM     21  C   UNL     1      -5.120   1.129  24.937  0.00  0.00    +0.003 C 
ATOM     22  C   UNL     1      -4.360   1.433  24.832  0.00  0.00    +0.006 C 
ATOM     23  C   UNL     1      -4.515   0.640  24.665  0.00  0.00    +0.000 C 
ATOM     24  S   UNL     1      -2.042   2.180  24.466  0.00  0.00    -0.054 S 
ATOM     25  C   UNL     1      -1.704   1.476  24.203  0.00  0.00    +0.185 A 
ATOM     26  N   UNL     1      -0.916   1.367  23.985  0.00  0.00    -0.151 NA
ATOM     27  C   UNL     1      -0.656   0.626  23.732  0.00  0.00    +0.271 C 
ATOM     28  O   UNL     1      -1.184  -0.006  23.697  0.00  0.00    -0.268 OA
ATOM     36  N   UNL     1      -2.292   0.897  24.196  0.00  0.00    -0.227 NA
ENDROOT
BRANCH  27  29
ATOM     29  C   UNL     1       0.133   0.518  23.514  0.00  0.00    +0.056 A 
ATOM     30  C   UNL     1       0.702   1.070  23.740  0.00  0.00    +0.007 A 
ATOM     31  C   UNL     1       1.490   0.962  23.522  0.00  0.00    +0.030 A 
ATOM     32  C   UNL     1       1.710   0.301  23.079  0.00  0.00    +0.140 A 
ATOM     33  F   UNL     1       2.498   0.193  22.861  0.00  0.00    -0.204 F 
ATOM     34  C   UNL     1       1.139  -0.252  22.853  0.00  0.00    +0.030 A 
ATOM     35  C   UNL     1       0.351  -0.143  23.071  0.00  0.00    +0.007 A 
ENDBRANCH  27  29
BRANCH  14  16
ATOM     16  C   UNL     1      -5.199   3.392  25.538  0.00  0.00    +0.184 C 
ATOM     17  O   UNL     1      -4.843   4.132  25.457  0.00  0.00    -0.220 OA
ENDBRANCH  14  16
BRANCH   9   8
ATOM      8  C   UNL     1      -3.910   0.150  24.393  0.00  0.00    +0.091 C 
BRANCH   8   6
ATOM      3  N   UNL     1      -3.758  -1.229  24.736  0.00  0.00    -0.280 N 
ATOM      6  C   UNL     1      -3.725  -0.432  24.947  0.00  0.00    +0.226 C 
ATOM      7  O   UNL     1      -3.505  -0.217  25.713  0.00  0.00    -0.275 OA
BRANCH   3   2
ATOM      1  C   UNL     1      -3.068  -2.430  25.085  0.00  0.00    +0.023 C 
ATOM      2  C   UNL     1      -3.573  -1.811  25.290  0.00  0.00    +0.093 C 
ENDBRANCH   3   2
BRANCH   3   4
ATOM      4  C   UNL     1      -3.977  -1.444  23.971  0.00  0.00    +0.093 C 
ATOM      5  C   UNL     1      -4.285  -2.195  23.824  0.00  0.00    +0.023 C 
ENDBRANCH   3   4
ENDBRANCH   8   6
ENDBRANCH   9   8
TORSDOF 6
ENDMDL
MODEL 4
REMARK VINA RESULT:     -12.8      2.318      5.444
REMARK  Name = 
REMARK  6 active torsions:
REMARK  status: ('A' for Active; 'I' for Inactive)
REMARK    1  A    between atoms: C_2  and  N_3
REMARK    2  A    between atoms: N_3  and  C_4
REMARK    3  A    between atoms: C_6  and  C_8
REMARK    4  A    between atoms: C_8  and  C_9
REMARK    5  A    between atoms: C_14  and  C_16
REMARK    6  A    between atoms: C_27  and  C_29
REMARK                            x       y       z     vdW  Elec       q    Type
REMARK                         _______ _______ _______ _____ _____    ______ ____
ROOT
ATOM      9  C   UNL     1      -2.372  -0.133  24.996  0.00  0.00    +0.050 C 
ATOM     10  C   UNL     1      -3.123   0.207  24.961  0.00  0.00    +0.063 A 
ATOM     11  C   UNL     1      -3.776  -0.254  24.759  0.00  0.00    +0.023 A 
ATOM     12  C   UNL     1      -3.678  -1.056  24.590  0.00  0.00    +0.034 C 
ATOM     13  C   UNL     1      -2.928  -1.396  24.624  0.00  0.00    +0.010 C 
ATOM     14  C   UNL     1      -2.831  -2.197  24.456  0.00  0.00    +0.059 C 
ATOM     15  C   UNL     1      -3.646  -2.127  24.350  0.00  0.00    +0.005 C 
ATOM     18  C   UNL     1      -2.080  -2.539  24.490  0.00  0.00    +0.154 C 
ATOM     19  O   UNL     1      -1.982  -3.340  24.321  0.00  0.00    -0.223 OA
ATOM     20  C   UNL     1      -1.427  -2.077  24.693  0.00  0.00    +0.033 C 
ATOM     21  C   UNL     1      -1.524  -1.275  24.862  0.00  0.00    +0.003 C 
ATOM     22  C   UNL     1      -2.275  -0.935  24.827  0.00  0.00    +0.006 C 
ATOM     23  C   UNL     1      -1.622  -0.474  25.030  0.00  0.00    +0.000 C 
ATOM     24  S   UNL     1      -4.444   0.231  24.770  0.00  0.00    -0.054 S 
ATOM     25  C   UNL     1      -4.203   0.991  24.979  0.00  0.00    +0.185 A 
ATOM     26  N   UNL     1      -4.693   1.650  25.057  0.00  0.00    -0.151 NA
ATOM     27  C   UNL     1      -4.371   2.380  25.272  0.00  0.00    +0.271 C 
ATOM     28  O   UNL     1      -3.561   2.449  25.408  0.00  0.00    -0.268 OA
ATOM     36  N   UNL     1      -3.387   0.977  25.098  0.00  0.00    -0.227 NA
ENDROOT
BRANCH  27  29
ATOM     29  C   UNL     1      -4.861   3.040  25.349  0.00  0.00    +0.056 A 
ATOM     30  C   UNL     1      -5.605   2.962  25.696  0.00  0.00    +0.007 A 
ATOM     31  C   UNL     1      -6.094   3.622  25.774  0.00  0.00    +0.030 A 
ATOM     32  C   UNL     1      -5.840   4.359  25.504  0.00  0.00    +0.140 A 
ATOM     33  F   UNL     1      -6.330   5.018  25.582  0.00  0.00    -0.204 F 
ATOM     34  C   UNL     1      -5.095   4.436  25.157  0.00  0.00    +0.030 A 
ATOM     35  C   UNL     1      -4.606   3.776  25.079  0.00  0.00    +0.007 A 
ENDBRANCH  27  29
BRANCH  14  16
ATOM     16  C   UNL     1      -3.016  -2.975  24.250  0.00  0.00    +0.184 C 
ATOM     17  O   UNL     1      -3.804  -3.208  24.183  0.00  0.00    -0.220 OA
ENDBRANCH  14  16
BRANCH   9   8
ATOM      8  C   UNL     1      -1.719   0.327  25.199  0.00  0.00    +0.091 C 
BRANCH   8   6
ATOM      3  N   UNL     1      -0.788   1.355  24.856  0.00  0.00    -0.280 N 
ATOM      6  C   UNL     1      -1.356   0.802  24.630  0.00  0.00    +0.226 C 
ATOM      7  O   UNL     1      -1.562   0.722  23.835  0.00  0.00    -0.275 OA
BRANCH   3   2
ATOM      1  C   UNL     1       0.396   1.821  24.206  0.00  0.00    +0.023 C 
ATOM      2  C   UNL     1      -0.425   1.829  24.287  0.00  0.00    +0.093 C 
ENDBRANCH   3   2
BRANCH   3   4
ATOM      4  C   UNL     1      -0.582   1.434  25.650  0.00  0.00    +0.093 C 
ATOM      5  C   UNL     1      -0.276   2.148  25.930  0.00  0.00    +0.023 C 
ENDBRANCH   3   4
ENDBRANCH   8   6
ENDBRANCH   9   8
TORSDOF 6
ENDMDL
MODEL 5
REMARK VINA RESULT:     -11.7      1.529      3.122
REMARK  Name = 
REMARK  6 active torsions:
REMARK  status: ('A' for Active; 'I' for Inactive)
REMARK    1  A    between atoms: C_2  and  N_3
REMARK    2  A    between atoms: N_3  and  C_4
REMARK    3  A    between atoms: C_6  and  C_8
REMARK    4  A    between atoms: C_8  and  C_9
REMARK    5  A    between atoms: C_14  and  C_16
REMARK    6  A    between atoms: C_27  and  C_29
REMARK                            x       y       z     vdW  Elec       q    Type
REMARK                         _______ _______ _______ _____ _____    ______ ____
ROOT
ATOM      9  C   UNL     1      -3.345   2.260  24.760  0.00  0.00    +0.050 C 
ATOM     10  C   UNL     1      -3.775   1.556  24.804  0.00  0.00    +0.063 A 
ATOM     11  C   UNL     1      -4.570   1.571  25.021  0.00  0.00    +0.023 A 
ATOM     12  C   UNL     1      -4.937   2.289  25.193  0.00  0.00    +0.034 C 
ATOM     13  C   UNL     1      -4.509   2.993  25.149  0.00  0.00    +0.010 C 
ATOM     14  C   UNL     1      -4.876   3.710  25.321  0.00  0.00    +0.059 C 
ATOM     15  C   UNL     1      -5.508   3.194  25.439  0.00  0.00    +0.005 C 
ATOM     18  C   UNL     1      -4.448   4.414  25.277  0.00  0.00    +0.154 C 
ATOM     19  O   UNL     1      -4.815   5.133  25.449  0.00  0.00    -0.223 OA
ATOM     20  C   UNL     1      -3.652   4.400  25.060  0.00  0.00    +0.033 C 
ATOM     21  C   UNL     1      -3.284   3.681  24.888  0.00  0.00    +0.003 C 
ATOM     22  C   UNL     1      -3.713   2.978  24.932  0.00  0.00    +0.006 C 
ATOM     23  C   UNL     1      -2.917   2.963  24.715  0.00  0.00    +0.000 C 
ATOM     24  S   UNL     1      -4.850   0.794  25.018  0.00  0.00    -0.054 S 
ATOM     25  C   UNL     1      -4.227   0.300  24.799  0.00  0.00    +0.185 A 
ATOM     26  N   UNL     1      -4.263  -0.521  24.725  0.00  0.00    -0.151 NA
ATOM     27  C   UNL     1      -3.591  -0.944  24.501  0.00  0.00    +0.271 C 
ATOM     28  O   UNL     1      -2.884  -0.546  24.350  0.00  0.00    -0.268 OA
ATOM     36  N   UNL     1      -3.562   0.770  24.667  0.00  0.00    -0.227 NA
ENDROOT
BRANCH  27  29
ATOM     29  C   UNL     1      -3.626  -1.765  24.427  0.00  0.00    +0.056 A 
ATOM     30  C   UNL     1      -4.079  -2.106  23.828  0.00  0.00    +0.007 A 
ATOM     31  C   UNL     1      -4.115  -2.927  23.755  0.00  0.00    +0.030 A 
ATOM     32  C   UNL     1      -3.697  -3.407  24.279  0.00  0.00    +0.140 A 
ATOM     33  F   UNL     1      -3.732  -4.228  24.206  0.00  0.00    -0.204 F 
ATOM     34  C   UNL     1      -3.243  -3.066  24.879  0.00  0.00    +0.030 A 
ATOM     35  C   UNL     1      -3.208  -2.245  24.953  0.00  0.00    +0.007 A 
ENDBRANCH  27  29
BRANCH  14  16
ATOM     16  C   UNL     1      -5.463   4.250  25.534  0.00  0.00    +0.184 C 
ATOM     17  O   UNL     1      -6.185   3.981  25.827  0.00  0.00    -0.220 OA
ENDBRANCH  14  16
BRANCH   9   8
ATOM      8  C   UNL     1      -2.550   2.245  24.543  0.00  0.00    +0.091 C 
BRANCH   8   6
ATOM      3  N   UNL     1      -1.193   1.940  24.869  0.00  0.00    -0.280 N 
ATOM      6  C   UNL     1      -1.973   2.069  25.105  0.00  0.00    +0.226 C 
ATOM      7  O   UNL     1      -2.176   2.021  25.903  0.00  0.00    -0.275 OA
BRANCH   3   2
ATOM      1  C   UNL     1       0.041   2.256  25.516  0.00  0.00    +0.023 C 
ATOM      2  C   UNL     1      -0.616   1.764  25.431  0.00  0.00    +0.093 C 
ENDBRANCH   3   2
BRANCH   3   4
ATOM      4  C   UNL     1      -0.990   1.988  24.072  0.00  0.00    +0.093 C 
ATOM      5  C   UNL     1      -0.346   1.561  23.782  0.00  0.00    +0.023 C 
ENDBRANCH   3   4
ENDBRANCH   8   6
ENDBRANCH   9   8
TORSDOF 6
ENDMDL
MODEL 6
REMARK VINA RESULT:     -10.8      1.540      3.152
REMARK  Name = 
REMARK  6 active torsions:
REMARK  status: ('A' for Active; 'I' for Inactive)
REMARK    1  A    between atoms: C_2  and  N_3
REMARK    2  A    between atoms: N_3  and  C_4
REMARK    3  A    between atoms: C_6  and  C_8
REMARK    4  A    between atoms: C_8  and  C_9
REMARK    5  A    between atoms: C_14  and  C_16
REMARK    6  A    between atoms: C_27  and  C_29
REMARK                            x       y       z     vdW  Elec       q    Type
REMARK                         _______ _______ _______ _____ _____    ______ ____
ROOT
ATOM      9  C   UNL     1      -1.391   2.132  24.785  0.00  0.00    +0.050 C 
ATOM     10  C   UNL     1      -2.070   1.663  24.825  0.00  0.00    +0.063 A 
ATOM     11  C   UNL     1      -2.795   2.003  25.024  0.00  0.00    +0.023 A 
ATOM     12  C   UNL     1      -2.841   2.811  25.183  0.00  0.00    +0.034 C 
ATOM     13  C   UNL     1      -2.164   3.280  25.143  0.00  0.00    +0.010 C 
ATOM     14  C   UNL     1      -2.212   4.087  25.302  0.00  0.00    +0.059 C 
ATOM     15  C   UNL     1      -3.001   3.873  25.411  0.00  0.00    +0.005 C 
ATOM     18  C   UNL     1      -1.534   4.556  25.262  0.00  0.00    +0.154 C 
ATOM     19  O   UNL     1      -1.581   5.365  25.421  0.00  0.00    -0.223 OA
ATOM     20  C   UNL     1      -0.809   4.217  25.063  0.00  0.00    +0.033 C 
ATOM     21  C   UNL     1      -0.761   3.408  24.903  0.00  0.00    +0.003 C 
ATOM     22  C   UNL     1      -1.439   2.940  24.944  0.00  0.00    +0.006 C 
ATOM     23  C   UNL     1      -0.714   2.601  24.744  0.00  0.00    +0.000 C 
ATOM     24  S   UNL     1      -3.365   1.406  25.021  0.00  0.00    -0.054 S 
ATOM     25  C   UNL     1      -2.993   0.699  24.819  0.00  0.00    +0.185 A 
ATOM     26  N   UNL     1      -3.357  -0.038  24.751  0.00  0.00    -0.151 NA
ATOM     27  C   UNL     1      -2.910  -0.701  24.543  0.00  0.00    +0.271 C 
ATOM     28  O   UNL     1      -2.101  -0.626  24.405  0.00  0.00    -0.268 OA
ATOM     36  N   UNL     1      -2.192   0.857  24.698  0.00  0.00    -0.227 NA
ENDROOT
BRANCH  27  29
ATOM     29  C   UNL     1      -3.274  -1.438  24.475  0.00  0.00    +0.056 A 
ATOM     30  C   UNL     1      -3.890  -1.546  23.937  0.00  0.00    +0.007 A 
ATOM     31  C   UNL     1      -4.254  -2.283  23.868  0.00  0.00    +0.030 A 
ATOM     32  C   UNL     1      -4.002  -2.913  24.337  0.00  0.00    +0.140 A 
ATOM     33  F   UNL     1      -4.366  -3.650  24.269  0.00  0.00    -0.204 F 
ATOM     34  C   UNL     1      -3.386  -2.805  24.876  0.00  0.00    +0.030 A 
ATOM     35  C   UNL     1      -3.022  -2.068  24.945  0.00  0.00    +0.007 A 
ENDBRANCH  27  29
BRANCH  14  16
ATOM     16  C   UNL     1      -2.533   4.821  25.499  0.00  0.00    +0.184 C 
ATOM     17  O   UNL     1      -3.213   4.864  25.963  0.00  0.00    -0.220 OA
ENDBRANCH  14  16
BRANCH   9   8
ATOM      8  C   UNL     1      -0.667   1.793  24.585  0.00  0.00    +0.091 C 
BRANCH   8   6
ATOM      3  N   UNL     1       0.141   1.103  23.630  0.00  0.00    -0.280 N 
ATOM      6  C   UNL     1      -0.517   1.569  23.806  0.00  0.00    +0.226 C 
ATOM      7  O   UNL     1      -1.024   1.813  23.203  0.00  0.00    -0.275 OA
BRANCH   3   2
ATOM      1  C   UNL     1       0.582   0.125  22.687  0.00  0.00    +0.023 C 
ATOM      2  C   UNL     1       0.291   0.880  22.851  0.00  0.00    +0.093 C 
ENDBRANCH   3   2
BRANCH   3   4
ATOM      4  C   UNL     1       0.647   0.860  24.233  0.00  0.00    +0.093 C 
ATOM      5  C   UNL     1       1.440   0.700  24.068  0.00  0.00    +0.023 C 
ENDBRANCH   3   4
ENDBRANCH   8   6
ENDBRANCH   9   8
TORSDOF 6
ENDMDL
MODEL 7
REMARK VINA RESULT:     -10.7      2.464      4.553
REMARK  Name = 
REMARK  6 active torsions:
REMARK  status: ('A' for Active; 'I' for Inactive)
REMARK    1  A    between atoms: C_2  and  N_3
REMARK    2  A    between atoms: N_3  and  C_4
REMARK    3  A    between atoms: C_6  and  C_8
REMARK    4  A    between atoms: C_8  and  C_9
REMARK    5  A    between atoms: C_14  and  C_16
REMARK    6  A    between atoms: C_27  and  C_29
REMARK                            x       y       z     vdW  Elec       q    Type
REMARK                         _______ _______ _______ _____ _____    ______ ____
ROOT
ATOM      9  C   UNL     1      -1.489   0.257  24.192  0.00  0.00    +0.050 C 
ATOM     10  C   UNL     1      -1.770   1.022  24.326  0.00  0.00    +0.063 A 
ATOM     11  C   UNL     1      -1.263   1.668  24.246  0.00  0.00    +0.023 A 
ATOM     12  C   UNL     1      -0.475   1.549  24.033  0.00  0.00    +0.034 C 
ATOM     13  C   UNL     1      -0.194   0.786  23.899  0.00  0.00    +0.010 C 
ATOM     14  C   UNL     1       0.593   0.668  23.685  0.00  0.00    +0.059 C 
ATOM     15  C   UNL     1       0.585   1.490  23.753  0.00  0.00    +0.005 C 
ATOM     18  C   UNL     1       0.875  -0.096  23.551  0.00  0.00    +0.154 C 
ATOM     19  O   UNL     1       1.663  -0.215  23.337  0.00  0.00    -0.223 OA
ATOM     20  C   UNL     1       0.368  -0.742  23.630  0.00  0.00    +0.033 C 
ATOM     21  C   UNL     1      -0.420  -0.624  23.844  0.00  0.00    +0.003 C 
ATOM     22  C   UNL     1      -0.701   0.140  23.978  0.00  0.00    +0.006 C 
ATOM     23  C   UNL     1      -1.208  -0.506  24.057  0.00  0.00    +0.000 C 
ATOM     24  S   UNL     1      -1.694   2.352  24.413  0.00  0.00    -0.054 S 
ATOM     25  C   UNL     1      -2.466   2.128  24.595  0.00  0.00    +0.185 A 
ATOM     26  N   UNL     1      -3.083   2.637  24.796  0.00  0.00    -0.151 NA
ATOM     27  C   UNL     1      -3.832   2.332  24.965  0.00  0.00    +0.271 C 
ATOM     28  O   UNL     1      -3.961   1.519  24.934  0.00  0.00    -0.268 OA
ATOM     36  N   UNL     1      -2.514   1.307  24.542  0.00  0.00    -0.227 NA
ENDROOT
BRANCH  27  29
ATOM     29  C   UNL     1      -4.449   2.842  25.166  0.00  0.00    +0.056 A 
ATOM     30  C   UNL     1      -5.186   2.535  25.370  0.00  0.00    +0.007 A 
ATOM     31  C   UNL     1      -5.803   3.044  25.571  0.00  0.00    +0.030 A 
ATOM     32  C   UNL     1      -5.684   3.860  25.568  0.00  0.00    +0.140 A 
ATOM     33  F   UNL     1      -6.301   4.369  25.769  0.00  0.00    -0.204 F 
ATOM     34  C   UNL     1      -4.945   4.167  25.363  0.00  0.00    +0.030 A 
ATOM     35  C   UNL     1      -4.328   3.658  25.162  0.00  0.00    +0.007 A 
ENDBRANCH  27  29
BRANCH  14  16
ATOM     16  C   UNL     1       1.379   0.835  23.495  0.00  0.00    +0.184 C 
ATOM     17  O   UNL     1       1.701   1.571  23.680  0.00  0.00    -0.220 OA
ENDBRANCH  14  16
BRANCH   9   8
ATOM      8  C   UNL     1      -1.995  -0.388  24.271  0.00  0.00    +0.091 C 
BRANCH   8   6
ATOM      3  N   UNL     1      -2.756  -1.255  25.115  0.00  0.00    -0.280 N 
ATOM      6  C   UNL     1      -2.154  -0.699  25.018  0.00  0.00    +0.226 C 
ATOM      7  O   UNL     1      -1.711  -0.453  25.669  0.00  0.00    -0.275 OA
BRANCH   3   2
ATOM      1  C   UNL     1      -3.633  -1.402  26.233  0.00  0.00    +0.023 C 
ATOM      2  C   UNL     1      -2.914  -1.565  25.862  0.00  0.00    +0.093 C 
ENDBRANCH   3   2
BRANCH   3   4
ATOM      4  C   UNL     1      -3.199  -1.500  24.464  0.00  0.00    +0.093 C 
ATOM      5  C   UNL     1      -3.599  -2.222  24.485  0.00  0.00    +0.023 C 
ENDBRANCH   3   4
ENDBRANCH   8   6
ENDBRANCH   9   8
TORSDOF 6
ENDMDL
MODEL 8
REMARK VINA RESULT:     -10.7      3.194      5.425
REMARK  Name = 
REMARK  6 active torsions:
REMARK  status: ('A' for Active; 'I' for Inactive)
REMARK    1  A    between atoms: C_2  and  N_3
REMARK    2  A    between atoms: N_3  and  C_4
REMARK    3  A    between atoms: C_6  and  C_8
REMARK    4  A    between atoms: C_8  and  C_9
REMARK    5  A    between atoms: C_14  and  C_16
REMARK    6  A    between atoms: C_27  and  C_29
REMARK                            x       y       z     vdW  Elec       q    Type
REMARK                         _______ _______ _______ _____ _____    ______ ____
ROOT
ATOM      9  C   UNL     1      -1.667   0.271  24.564  0.00  0.00    +0.050 C 
ATOM     10  C   UNL     1      -0.990  -0.092  24.261  0.00  0.00    +0.063 A 
ATOM     11  C   UNL     1      -0.946  -0.915  24.222  0.00  0.00    +0.023 A 
ATOM     12  C   UNL     1      -1.579  -1.375  24.485  0.00  0.00    +0.034 C 
ATOM     13  C   UNL     1      -2.255  -1.012  24.788  0.00  0.00    +0.010 C 
ATOM     14  C   UNL     1      -2.887  -1.471  25.051  0.00  0.00    +0.059 C 
ATOM     15  C   UNL     1      -2.368  -2.066  24.810  0.00  0.00    +0.005 C 
ATOM     18  C   UNL     1      -3.563  -1.109  25.354  0.00  0.00    +0.154 C 
ATOM     19  O   UNL     1      -4.196  -1.568  25.617  0.00  0.00    -0.223 OA
ATOM     20  C   UNL     1      -3.607  -0.286  25.393  0.00  0.00    +0.033 C 
ATOM     21  C   UNL     1      -2.974   0.174  25.130  0.00  0.00    +0.003 C 
ATOM     22  C   UNL     1      -2.299  -0.189  24.827  0.00  0.00    +0.006 C 
ATOM     23  C   UNL     1      -2.342   0.634  24.867  0.00  0.00    +0.000 C 
ATOM     24  S   UNL     1      -0.214  -1.116  23.899  0.00  0.00    -0.054 S 
ATOM     25  C   UNL     1       0.194  -0.418  23.739  0.00  0.00    +0.185 A 
ATOM     26  N   UNL     1       0.950  -0.362  23.412  0.00  0.00    -0.151 NA
ATOM     27  C   UNL     1       1.290   0.379  23.283  0.00  0.00    +0.271 C 
ATOM     28  O   UNL     1       0.874   1.063  23.481  0.00  0.00    -0.268 OA
ATOM     36  N   UNL     1      -0.285   0.215  23.963  0.00  0.00    -0.227 NA
ENDROOT
BRANCH  27  29
ATOM     29  C   UNL     1       2.045   0.435  22.956  0.00  0.00    +0.056 A 
ATOM     30  C   UNL     1       2.239  -0.009  22.289  0.00  0.00    +0.007 A 
ATOM     31  C   UNL     1       2.995   0.047  21.962  0.00  0.00    +0.030 A 
ATOM     32  C   UNL     1       3.556   0.546  22.303  0.00  0.00    +0.140 A 
ATOM     33  F   UNL     1       4.312   0.602  21.976  0.00  0.00    -0.204 F 
ATOM     34  C   UNL     1       3.361   0.990  22.971  0.00  0.00    +0.030 A 
ATOM     35  C   UNL     1       2.606   0.934  23.298  0.00  0.00    +0.007 A 
ENDBRANCH  27  29
BRANCH  14  16
ATOM     16  C   UNL     1      -3.340  -2.138  25.231  0.00  0.00    +0.184 C 
ATOM     17  O   UNL     1      -3.147  -2.869  24.901  0.00  0.00    -0.220 OA
ENDBRANCH  14  16
BRANCH   9   8
ATOM      8  C   UNL     1      -1.710   1.093  24.604  0.00  0.00    +0.091 C 
BRANCH   8   6
ATOM      3  N   UNL     1      -1.306   2.320  25.216  0.00  0.00    -0.280 N 
ATOM      6  C   UNL     1      -1.352   1.496  25.228  0.00  0.00    +0.226 C 
ATOM      7  O   UNL     1      -1.042   1.074  25.866  0.00  0.00    -0.275 OA
BRANCH   3   2
ATOM      1  C   UNL     1      -0.320   3.237  25.693  0.00  0.00    +0.023 C 
ATOM      2  C   UNL     1      -0.948   2.722  25.840  0.00  0.00    +0.093 C 
ENDBRANCH   3   2
BRANCH   3   4
ATOM      4  C   UNL     1      -1.616   2.740  24.578  0.00  0.00    +0.093 C 
ATOM      5  C   UNL     1      -1.869   3.519  24.681  0.00  0.00    +0.023 C 
ENDBRANCH   3   4
ENDBRANCH   8   6
ENDBRANCH   9   8
TORSDOF 6
ENDMDL
MODEL 9
REMARK VINA RESULT:     -10.4      2.704      6.070
REMARK  Name = 
REMARK  6 active torsions:
REMARK  status: ('A' for Active; 'I' for Inactive)
REMARK    1  A    between atoms: C_2  and  N_3
REMARK    2  A    between atoms: N_3  and  C_4
REMARK    3  A    between atoms: C_6  and  C_8
REMARK    4  A    between atoms: C_8  and  C_9
REMARK    5  A    between atoms: C_14  and  C_16
REMARK    6  A    between atoms: C_27  and  C_29
REMARK                            x       y       z     vdW  Elec       q    Type
REMARK                         _______ _______ _______ _____ _____    ______ ____
ROOT
ATOM      9  C   UNL     1      -1.311  -0.359  24.530  0.00  0.00    +0.050 C 
ATOM     10  C   UNL     1      -1.708   0.341  24.715  0.00  0.00    +0.063 A 
ATOM     11  C   UNL     1      -2.502   0.319  24.937  0.00  0.00    +0.023 A 
ATOM     12  C   UNL     1      -2.900  -0.402  24.973  0.00  0.00    +0.034 C 
ATOM     13  C   UNL     1      -2.505  -1.102  24.788  0.00  0.00    +0.010 C 
ATOM     14  C   UNL     1      -2.903  -1.823  24.825  0.00  0.00    +0.059 C 
ATOM     15  C   UNL     1      -3.511  -1.312  25.049  0.00  0.00    +0.005 C 
ATOM     18  C   UNL     1      -2.508  -2.523  24.640  0.00  0.00    +0.154 C 
ATOM     19  O   UNL     1      -2.906  -3.245  24.676  0.00  0.00    -0.223 OA
ATOM     20  C   UNL     1      -1.713  -2.502  24.419  0.00  0.00    +0.033 C 
ATOM     21  C   UNL     1      -1.314  -1.780  24.382  0.00  0.00    +0.003 C 
ATOM     22  C   UNL     1      -1.710  -1.080  24.567  0.00  0.00    +0.006 C 
ATOM     23  C   UNL     1      -0.916  -1.059  24.346  0.00  0.00    +0.000 C 
ATOM     24  S   UNL     1      -2.746   1.094  25.087  0.00  0.00    -0.054 S 
ATOM     25  C   UNL     1      -2.103   1.592  24.958  0.00  0.00    +0.185 A 
ATOM     26  N   UNL     1      -2.101   2.413  25.044  0.00  0.00    -0.151 NA
ATOM     27  C   UNL     1      -1.412   2.842  24.894  0.00  0.00    +0.271 C 
ATOM     28  O   UNL     1      -0.725   2.450  24.660  0.00  0.00    -0.268 OA
ATOM     36  N   UNL     1      -1.460   1.128  24.728  0.00  0.00    -0.227 NA
ENDROOT
BRANCH  27  29
ATOM     29  C   UNL     1      -1.410   3.663  24.980  0.00  0.00    +0.056 A 
ATOM     30  C   UNL     1      -2.039   4.039  25.357  0.00  0.00    +0.007 A 
ATOM     31  C   UNL     1      -2.037   4.860  25.443  0.00  0.00    +0.030 A 
ATOM     32  C   UNL     1      -1.407   5.304  25.151  0.00  0.00    +0.140 A 
ATOM     33  F   UNL     1      -1.405   6.124  25.237  0.00  0.00    -0.204 F 
ATOM     34  C   UNL     1      -0.777   4.927  24.774  0.00  0.00    +0.030 A 
ATOM     35  C   UNL     1      -0.778   4.106  24.688  0.00  0.00    +0.007 A 
ENDBRANCH  27  29
BRANCH  14  16
ATOM     16  C   UNL     1      -3.513  -2.367  24.939  0.00  0.00    +0.184 C 
ATOM     17  O   UNL     1      -4.285  -2.174  24.723  0.00  0.00    -0.220 OA
ENDBRANCH  14  16
BRANCH   9   8
ATOM      8  C   UNL     1      -0.518  -0.338  24.309  0.00  0.00    +0.091 C 
BRANCH   8   6
ATOM      3  N   UNL     1       0.481  -0.058  23.327  0.00  0.00    -0.280 N 
ATOM      6  C   UNL     1      -0.311  -0.166  23.529  0.00  0.00    +0.226 C 
ATOM      7  O   UNL     1      -0.897  -0.102  22.953  0.00  0.00    -0.275 OA
BRANCH   3   2
ATOM      1  C   UNL     1       1.333  -0.262  22.199  0.00  0.00    +0.023 C 
ATOM      2  C   UNL     1       0.687   0.114  22.547  0.00  0.00    +0.093 C 
ENDBRANCH   3   2
BRANCH   3   4
ATOM      4  C   UNL     1       1.067  -0.121  23.903  0.00  0.00    +0.093 C 
ATOM      5  C   UNL     1       1.797   0.246  23.794  0.00  0.00    +0.023 C 
ENDBRANCH   3   4
ENDBRANCH   8   6
ENDBRANCH   9   8
TORSDOF 6
ENDMDL
