MODEL 1
REMARK VINA RESULT:     -11.9      0.000      0.000
REMARK  Name = 
REMARK  4 active torsions:
REMARK  status: ('A' for Active; 'I' for Inactive)
REMARK    1  A    between atoms: O_2  and  C_3
REMARK    2  A    between atoms: C_5  and  C_9
REMARK    3  A    between atoms: N_11  and  C_12
REMARK    4  A    between atoms: C_18  and  C_19
REMARK                            x       y       z     vdW  Elec       q    Type
REMARK                         _______ _______ _______ _____ _____    ______ ____
ROOT
ATOM     12  C   UNL     1      -4.369   1.350  24.539  0.00  0.00    +0.132 C 
ATOM     13  C   UNL     1      -5.043   1.576  24.955  0.00  0.00    +0.202 C 
ATOM     14  O   UNL     1      -5.644   1.075  25.216  0.00  0.00    -0.219 OA
ATOM     15  C   UNL     1      -5.011   2.394  25.065  0.00  0.00    +0.184 C 
ATOM     16  O   UNL     1      -5.575   2.853  25.456  0.00  0.00    -0.220 OA
ATOM     17  C   UNL     1      -4.317   2.671  24.717  0.00  0.00    +0.042 C 
ATOM     18  C   UNL     1      -3.919   2.026  24.391  0.00  0.00    +0.048 C 
ENDROOT
BRANCH  18  19
ATOM     19  C   UNL     1      -3.200   2.053  23.989  0.00  0.00    -0.021 A 
ATOM     20  C   UNL     1      -3.184   2.013  23.166  0.00  0.00    -0.004 A 
ATOM     21  C   UNL     1      -2.465   2.041  22.764  0.00  0.00    -0.000 A 
ATOM     22  C   UNL     1      -1.759   2.108  23.186  0.00  0.00    -0.000 A 
ATOM     23  C   UNL     1      -1.774   2.148  24.010  0.00  0.00    -0.000 A 
ATOM     24  C   UNL     1      -2.494   2.120  24.413  0.00  0.00    -0.004 A 
ENDBRANCH  18  19
BRANCH  12  11
ATOM      9  C   UNL     1      -4.181  -0.029  24.865  0.00  0.00    +0.265 C 
ATOM     10  O   UNL     1      -4.377   0.130  25.649  0.00  0.00    -0.268 OA
ATOM     11  N   UNL     1      -4.176   0.580  24.309  0.00  0.00    -0.200 NA
BRANCH   9   5
ATOM      3  C   UNL     1      -3.133  -1.938  24.725  0.00  0.00    +0.139 A 
ATOM      4  C   UNL     1      -3.325  -1.170  24.954  0.00  0.00    +0.041 A 
ATOM      5  C   UNL     1      -3.988  -0.798  24.635  0.00  0.00    +0.058 A 
ATOM      6  C   UNL     1      -4.460  -1.195  24.087  0.00  0.00    +0.005 A 
ATOM      7  C   UNL     1      -4.268  -1.963  23.858  0.00  0.00    +0.003 A 
ATOM      8  C   UNL     1      -3.604  -2.335  24.177  0.00  0.00    +0.037 A 
BRANCH   3   2
ATOM      1  C   UNL     1      -1.784  -2.391  24.590  0.00  0.00    +0.252 C 
ATOM      2  O   UNL     1      -2.468  -2.310  25.044  0.00  0.00    -0.471 OA
ENDBRANCH   3   2
ENDBRANCH   9   5
ENDBRANCH  12  11
TORSDOF 4
ENDMDL
MODEL 2
REMARK VINA RESULT:     -11.6      1.574      3.479
REMARK  Name = 
REMARK  4 active torsions:
REMARK  status: ('A' for Active; 'I' for Inactive)
REMARK    1  A    between atoms: O_2  and  C_3
REMARK    2  A    between atoms: C_5  and  C_9
REMARK    3  A    between atoms: N_11  and  C_12
REMARK    4  A    between atoms: C_18  and  C_19
REMARK                            x       y       z     vdW  Elec       q    Type
REMARK                         _______ _______ _______ _____ _____    ______ ____
ROOT
ATOM     12  C   UNL     1      -3.869   1.061  24.897  0.00  0.00    +0.132 C 
ATOM     13  C   UNL     1      -4.347   1.732  24.910  0.00  0.00    +0.202 C 
ATOM     14  O   UNL     1      -4.087   2.513  24.978  0.00  0.00    -0.219 OA
ATOM     15  C   UNL     1      -5.132   1.487  24.844  0.00  0.00    +0.184 C 
ATOM     16  O   UNL     1      -5.795   1.979  24.834  0.00  0.00    -0.220 OA
ATOM     17  C   UNL     1      -5.139   0.664  24.790  0.00  0.00    +0.042 C 
ATOM     18  C   UNL     1      -4.357   0.400  24.822  0.00  0.00    +0.048 C 
ENDROOT
BRANCH  18  19
ATOM     19  C   UNL     1      -4.110  -0.386  24.787  0.00  0.00    -0.021 A 
ATOM     20  C   UNL     1      -3.830  -0.763  25.464  0.00  0.00    -0.004 A 
ATOM     21  C   UNL     1      -3.583  -1.548  25.428  0.00  0.00    -0.000 A 
ATOM     22  C   UNL     1      -3.616  -1.958  24.713  0.00  0.00    -0.000 A 
ATOM     23  C   UNL     1      -3.896  -1.582  24.035  0.00  0.00    -0.000 A 
ATOM     24  C   UNL     1      -4.143  -0.796  24.070  0.00  0.00    -0.004 A 
ENDBRANCH  18  19
BRANCH  12  11
ATOM      9  C   UNL     1      -2.594   1.528  24.449  0.00  0.00    +0.265 C 
ATOM     10  O   UNL     1      -2.967   2.014  23.897  0.00  0.00    -0.268 OA
ATOM     11  N   UNL     1      -3.045   1.051  24.949  0.00  0.00    -0.200 NA
BRANCH   9   5
ATOM      3  C   UNL     1      -0.577   1.701  25.263  0.00  0.00    +0.139 A 
ATOM      4  C   UNL     1      -1.400   1.711  25.211  0.00  0.00    +0.041 A 
ATOM      5  C   UNL     1      -1.771   1.518  24.501  0.00  0.00    +0.058 A 
ATOM      6  C   UNL     1      -1.318   1.314  23.842  0.00  0.00    +0.005 A 
ATOM      7  C   UNL     1      -0.496   1.304  23.894  0.00  0.00    +0.003 A 
ATOM      8  C   UNL     1      -0.125   1.498  24.604  0.00  0.00    +0.037 A 
BRANCH   3   2
ATOM      1  C   UNL     1       0.114   2.648  26.081  0.00  0.00    +0.252 C 
ATOM      2  O   UNL     1      -0.206   1.895  25.974  0.00  0.00    -0.471 OA
ENDBRANCH   3   2
ENDBRANCH   9   5
ENDBRANCH  12  11
TORSDOF 4
ENDMDL
MODEL 3
REMARK VINA RESULT:     -11.3      1.448      2.491
REMARK  Name = 
REMARK  4 active torsions:
REMARK  status: ('A' for Active; 'I' for Inactive)
REMARK    1  A    between atoms: O_2  and  C_3
REMARK    2  A    between atoms: C_5  and  C_9
REMARK    3  A    between atoms: N_11  and  C_12
REMARK    4  A    between atoms: C_18  and  C_19
REMARK                            x       y       z     vdW  Elec       q    Type
REMARK                         _______ _______ _______ _____ _____    ______ ____
ROOT
ATOM     12  C   UNL     1      -3.800   1.585  24.050  0.00  0.00    +0.132 C 
ATOM     13  C   UNL     1      -3.232   1.832  23.506  0.00  0.00    +0.202 C 
ATOM     14  O   UNL     1      -2.670   1.353  23.138  0.00  0.00    -0.219 OA
ATOM     15  C   UNL     1      -3.324   2.644  23.393  0.00  0.00    +0.184 C 
ATOM     16  O   UNL     1      -2.871   3.119  22.893  0.00  0.00    -0.220 OA
ATOM     17  C   UNL     1      -3.949   2.898  23.867  0.00  0.00    +0.042 C 
ATOM     18  C   UNL     1      -4.244   2.243  24.274  0.00  0.00    +0.048 C 
ENDROOT
BRANCH  18  19
ATOM     19  C   UNL     1      -4.871   2.248  24.810  0.00  0.00    -0.021 A 
ATOM     20  C   UNL     1      -5.586   1.888  24.612  0.00  0.00    -0.004 A 
ATOM     21  C   UNL     1      -6.213   1.893  25.147  0.00  0.00    -0.000 A 
ATOM     22  C   UNL     1      -6.125   2.257  25.882  0.00  0.00    -0.000 A 
ATOM     23  C   UNL     1      -5.409   2.617  26.081  0.00  0.00    -0.000 A 
ATOM     24  C   UNL     1      -4.782   2.613  25.545  0.00  0.00    -0.004 A 
ENDBRANCH  18  19
BRANCH  12  11
ATOM      9  C   UNL     1      -3.265   0.389  24.622  0.00  0.00    +0.265 C 
ATOM     10  O   UNL     1      -2.518   0.736  24.648  0.00  0.00    -0.268 OA
ATOM     11  N   UNL     1      -3.906   0.813  24.323  0.00  0.00    -0.200 NA
BRANCH   9   5
ATOM      3  C   UNL     1      -3.763  -1.735  24.658  0.00  0.00    +0.139 A 
ATOM      4  C   UNL     1      -3.657  -0.964  24.385  0.00  0.00    +0.041 A 
ATOM      5  C   UNL     1      -3.372  -0.382  24.895  0.00  0.00    +0.058 A 
ATOM      6  C   UNL     1      -3.192  -0.571  25.677  0.00  0.00    +0.005 A 
ATOM      7  C   UNL     1      -3.298  -1.342  25.950  0.00  0.00    +0.003 A 
ATOM      8  C   UNL     1      -3.584  -1.924  25.440  0.00  0.00    +0.037 A 
BRANCH   3   2
ATOM      1  C   UNL     1      -3.631  -3.022  24.049  0.00  0.00    +0.252 C 
ATOM      2  O   UNL     1      -4.050  -2.318  24.148  0.00  0.00    -0.471 OA
ENDBRANCH   3   2
ENDBRANCH   9   5
ENDBRANCH  12  11
TORSDOF 4
ENDMDL
MODEL 4
REMARK VINA RESULT:     -11.2      1.586      3.560
REMARK  Name = 
REMARK  4 active torsions:
REMARK  status: ('A' for Active; 'I' for Inactive)
REMARK    1  A    between atoms: O_2  and  C_3
REMARK    2  A    between atoms: C_5  and  C_9
REMARK    3  A    between atoms: N_11  and  C_12
REMARK    4  A    between atoms: C_18  and  C_19
REMARK                            x       y       z     vdW  Elec       q    Type
REMARK                         _______ _______ _______ _____ _____    ______ ____
ROOT
ATOM     12  C   UNL     1      -4.298   1.668  25.072  0.00  0.00    +0.132 C 
ATOM     13  C   UNL     1      -4.905   2.226  25.065  0.00  0.00    +0.202 C 
ATOM     14  O   UNL     1      -4.822   3.037  25.192  0.00  0.00    -0.219 OA
ATOM     15  C   UNL     1      -5.612   1.830  24.907  0.00  0.00    +0.184 C 
ATOM     16  O   UNL     1      -6.359   2.176  24.849  0.00  0.00    -0.220 OA
ATOM     17  C   UNL     1      -5.440   1.028  24.817  0.00  0.00    +0.042 C 
ATOM     18  C   UNL     1      -4.628   0.928  24.919  0.00  0.00    +0.048 C 
ENDROOT
BRANCH  18  19
ATOM     19  C   UNL     1      -4.219   0.213  24.876  0.00  0.00    -0.021 A 
ATOM     20  C   UNL     1      -3.981  -0.170  25.566  0.00  0.00    -0.004 A 
ATOM     21  C   UNL     1      -3.572  -0.885  25.522  0.00  0.00    -0.000 A 
ATOM     22  C   UNL     1      -3.401  -1.218  24.787  0.00  0.00    -0.000 A 
ATOM     23  C   UNL     1      -3.639  -0.835  24.096  0.00  0.00    -0.000 A 
ATOM     24  C   UNL     1      -4.048  -0.120  24.139  0.00  0.00    -0.004 A 
ENDBRANCH  18  19
BRANCH  12  11
ATOM      9  C   UNL     1      -3.119   2.427  24.795  0.00  0.00    +0.265 C 
ATOM     10  O   UNL     1      -3.537   2.875  24.244  0.00  0.00    -0.268 OA
ATOM     11  N   UNL     1      -3.498   1.824  25.210  0.00  0.00    -0.200 NA
BRANCH   9   5
ATOM      3  C   UNL     1      -0.951   2.459  24.542  0.00  0.00    +0.139 A 
ATOM      4  C   UNL     1      -1.749   2.304  24.405  0.00  0.00    +0.041 A 
ATOM      5  C   UNL     1      -2.320   2.582  24.932  0.00  0.00    +0.058 A 
ATOM      6  C   UNL     1      -2.091   3.015  25.595  0.00  0.00    +0.005 A 
ATOM      7  C   UNL     1      -1.294   3.170  25.732  0.00  0.00    +0.003 A 
ATOM      8  C   UNL     1      -0.723   2.892  25.206  0.00  0.00    +0.037 A 
BRANCH   3   2
ATOM      1  C   UNL     1       0.216   1.677  24.281  0.00  0.00    +0.252 C 
ATOM      2  O   UNL     1      -0.380   2.181  24.015  0.00  0.00    -0.471 OA
ENDBRANCH   3   2
ENDBRANCH   9   5
ENDBRANCH  12  11
TORSDOF 4
ENDMDL
MODEL 5
REMARK VINA RESULT:     -11.1      1.750      4.440
REMARK  Name = 
REMARK  4 active torsions:
REMARK  status: ('A' for Active; 'I' for Inactive)
REMARK    1  A    between atoms: O_2  and  C_3
REMARK    2  A    between atoms: C_5  and  C_9
REMARK    3  A    between atoms: N_11  and  C_12
REMARK    4  A    between atoms: C_18  and  C_19
REMARK                            x       y       z     vdW  Elec       q    Type
REMARK                         _______ _______ _______ _____ _____    ______ ____
ROOT
ATOM     12  C   UNL     1      -1.743   0.307  24.291  0.00  0.00    +0.132 C 
ATOM     13  C   UNL     1      -0.952   0.456  24.113  0.00  0.00    +0.202 C 
ATOM     14  O   UNL     1      -0.648   1.158  23.804  0.00  0.00    -0.219 OA
ATOM     15  C   UNL     1      -0.517  -0.220  24.300  0.00  0.00    +0.184 C 
ATOM     16  O   UNL     1       0.298  -0.313  24.209  0.00  0.00    -0.220 OA
ATOM     17  C   UNL     1      -1.040  -0.787  24.592  0.00  0.00    +0.042 C 
ATOM     18  C   UNL     1      -1.799  -0.461  24.587  0.00  0.00    +0.048 C 
ENDROOT
BRANCH  18  19
ATOM     19  C   UNL     1      -2.489  -0.838  24.834  0.00  0.00    -0.021 A 
ATOM     20  C   UNL     1      -2.662  -0.900  25.638  0.00  0.00    -0.004 A 
ATOM     21  C   UNL     1      -3.352  -1.277  25.885  0.00  0.00    -0.000 A 
ATOM     22  C   UNL     1      -3.871  -1.593  25.327  0.00  0.00    -0.000 A 
ATOM     23  C   UNL     1      -3.699  -1.532  24.522  0.00  0.00    -0.000 A 
ATOM     24  C   UNL     1      -3.008  -1.155  24.275  0.00  0.00    -0.004 A 
ENDBRANCH  18  19
BRANCH  12  11
ATOM      9  C   UNL     1      -2.324   1.595  24.503  0.00  0.00    +0.265 C 
ATOM     10  O   UNL     1      -1.651   1.830  24.917  0.00  0.00    -0.268 OA
ATOM     11  N   UNL     1      -2.371   0.834  24.190  0.00  0.00    -0.200 NA
BRANCH   9   5
ATOM      3  C   UNL     1      -3.981   2.940  24.959  0.00  0.00    +0.139 A 
ATOM      4  C   UNL     1      -3.354   2.415  25.060  0.00  0.00    +0.041 A 
ATOM      5  C   UNL     1      -2.951   2.122  24.402  0.00  0.00    +0.058 A 
ATOM      6  C   UNL     1      -3.176   2.356  23.644  0.00  0.00    +0.005 A 
ATOM      7  C   UNL     1      -3.803   2.882  23.543  0.00  0.00    +0.003 A 
ATOM      8  C   UNL     1      -4.206   3.175  24.201  0.00  0.00    +0.037 A 
BRANCH   3   2
ATOM      1  C   UNL     1      -5.207   3.186  25.652  0.00  0.00    +0.252 C 
ATOM      2  O   UNL     1      -4.384   3.233  25.617  0.00  0.00    -0.471 OA
ENDBRANCH   3   2
ENDBRANCH   9   5
ENDBRANCH  12  11
TORSDOF 4
ENDMDL
