MODEL 1
REMARK VINA RESULT:      -8.0      0.000      0.000
REMARK  Name = 
REMARK  4 active torsions:
REMARK  status: ('A' for Active; 'I' for Inactive)
REMARK    1  A    between atoms: N_4  and  C_5
REMARK    2  A    between atoms: C_5  and  C_6
REMARK    3  A    between atoms: C_9  and  N_10
REMARK    4  A    between atoms: N_10  and  C_11
REMARK                            x       y       z     vdW  Elec       q    Type
REMARK                         _______ _______ _______ _____ _____    ______ ____
ROOT
ATOM      6  C   UNL     1      -3.488   1.633  24.533  0.00  0.00    +0.169 C 
ATOM      7  O   UNL     1      -2.916   1.156  24.177  0.00  0.00    -0.350 OA
ATOM      8  C   UNL     1      -3.200   0.381  24.168  0.00  0.00    +0.162 C 
ATOM      9  C   UNL     1      -3.946   0.379  24.519  0.00  0.00    +0.135 C 
ATOM     17  C   UNL     1      -4.125   1.152  24.744  0.00  0.00    +0.199 C 
ATOM     18  O   UNL     1      -4.818   1.402  25.115  0.00  0.00    -0.219 OA
ENDROOT
BRANCH   6   5
ATOM      5  C   UNL     1      -3.433   2.447  24.656  0.00  0.00    +0.147 C 
BRANCH   5   4
ATOM      1  C   UNL     1      -1.929   3.932  25.202  0.00  0.00    +0.096 C 
ATOM      2  C   UNL     1      -2.643   3.599  24.955  0.00  0.00    +0.242 C 
ATOM      3  O   UNL     1      -3.281   4.086  24.764  0.00  0.00    -0.273 OA
ATOM      4  N   UNL     1      -2.719   2.779  24.901  0.00  0.00    -0.203 NA
ENDBRANCH   5   4
ENDBRANCH   6   5
BRANCH   9  10
ATOM     10  N   UNL     1      -4.430  -0.281  24.625  0.00  0.00    -0.215 NA
BRANCH  10  11
ATOM     11  C   UNL     1      -4.099  -1.036  24.646  0.00  0.00    +0.078 C 
ATOM     12  C   UNL     1      -3.696  -1.291  25.319  0.00  0.00    +0.050 C 
ATOM     13  C   UNL     1      -3.365  -2.047  25.340  0.00  0.00    +0.144 C 
ATOM     14  O   UNL     1      -3.438  -2.547  24.688  0.00  0.00    -0.354 OA
ATOM     15  C   UNL     1      -3.841  -2.292  24.015  0.00  0.00    +0.144 C 
ATOM     16  C   UNL     1      -4.172  -1.537  23.994  0.00  0.00    +0.050 C 
ENDBRANCH  10  11
ENDBRANCH   9  10
TORSDOF 4
ENDMDL
MODEL 2
REMARK VINA RESULT:      -7.9      1.311      4.350
REMARK  Name = 
REMARK  4 active torsions:
REMARK  status: ('A' for Active; 'I' for Inactive)
REMARK    1  A    between atoms: N_4  and  C_5
REMARK    2  A    between atoms: C_5  and  C_6
REMARK    3  A    between atoms: C_9  and  N_10
REMARK    4  A    between atoms: N_10  and  C_11
REMARK                            x       y       z     vdW  Elec       q    Type
REMARK                         _______ _______ _______ _____ _____    ______ ____
ROOT
ATOM      6  C   UNL     1      -3.754  -0.078  24.590  0.00  0.00    +0.169 C 
ATOM      7  O   UNL     1      -4.299   0.028  25.199  0.00  0.00    -0.350 OA
ATOM      8  C   UNL     1      -4.601   0.794  25.142  0.00  0.00    +0.162 C 
ATOM      9  C   UNL     1      -4.243   1.162  24.496  0.00  0.00    +0.135 C 
ATOM     17  C   UNL     1      -3.719   0.623  24.154  0.00  0.00    +0.199 C 
ATOM     18  O   UNL     1      -3.245   0.760  23.494  0.00  0.00    -0.219 OA
ENDROOT
BRANCH   6   5
ATOM      5  C   UNL     1      -3.320  -0.763  24.441  0.00  0.00    +0.147 C 
BRANCH   5   4
ATOM      1  C   UNL     1      -3.500  -2.920  24.728  0.00  0.00    +0.096 C 
ATOM      2  C   UNL     1      -3.178  -2.180  24.550  0.00  0.00    +0.242 C 
ATOM      3  O   UNL     1      -2.393  -2.121  24.303  0.00  0.00    -0.273 OA
ATOM      4  N   UNL     1      -3.642  -1.501  24.618  0.00  0.00    -0.203 NA
ENDBRANCH   5   4
ENDBRANCH   6   5
BRANCH   9  10
ATOM     10  N   UNL     1      -4.383   1.932  24.236  0.00  0.00    -0.215 NA
BRANCH  10  11
ATOM     11  C   UNL     1      -4.520   2.533  24.784  0.00  0.00    +0.078 C 
ATOM     12  C   UNL     1      -5.286   2.681  25.051  0.00  0.00    +0.050 C 
ATOM     13  C   UNL     1      -5.423   3.283  25.599  0.00  0.00    +0.144 C 
ATOM     14  O   UNL     1      -4.794   3.736  25.879  0.00  0.00    -0.354 OA
ATOM     15  C   UNL     1      -4.028   3.588  25.611  0.00  0.00    +0.144 C 
ATOM     16  C   UNL     1      -3.891   2.987  25.064  0.00  0.00    +0.050 C 
ENDBRANCH  10  11
ENDBRANCH   9  10
TORSDOF 4
ENDMDL
