MODEL 1
REMARK VINA RESULT:     -11.5      0.000      0.000
REMARK  Name = 
REMARK  2 active torsions:
REMARK  status: ('A' for Active; 'I' for Inactive)
REMARK    1  A    between atoms: N_3  and  C_17
REMARK    2  A    between atoms: N_7  and  C_11
REMARK                            x       y       z     vdW  Elec       q    Type
REMARK                         _______ _______ _______ _____ _____    ______ ____
ROOT
ATOM      1  O   UNL     1      -4.826   0.717  24.866  0.00  0.00    -0.252 OA
ATOM      2  C   UNL     1      -4.010   0.840  24.850  0.00  0.00    +0.307 C 
ATOM      3  N   UNL     1      -3.433   0.255  24.783  0.00  0.00    -0.264 N 
ATOM      4  C   UNL     1      -2.694   0.623  24.790  0.00  0.00    +0.116 C 
ATOM      5  C   UNL     1      -2.816   1.435  24.862  0.00  0.00    +0.113 C 
ATOM      6  C   UNL     1      -2.291   2.071  24.898  0.00  0.00    +0.094 C 
ATOM      7  N   UNL     1      -2.579   2.840  24.971  0.00  0.00    -0.271 NA
ATOM      8  C   UNL     1      -3.392   2.975  25.008  0.00  0.00    +0.094 C 
ATOM      9  C   UNL     1      -3.917   2.340  24.972  0.00  0.00    +0.112 C 
ATOM     10  N   UNL     1      -3.629   1.570  24.899  0.00  0.00    -0.261 N 
ENDROOT
BRANCH   7  11
ATOM     11  C   UNL     1      -2.054   3.476  25.007  0.00  0.00    +0.063 C 
ATOM     12  C   UNL     1      -2.297   4.193  25.336  0.00  0.00    +0.048 C 
ATOM     13  C   UNL     1      -1.774   4.829  25.373  0.00  0.00    +0.144 C 
ATOM     14  O   UNL     1      -1.006   4.749  25.080  0.00  0.00    -0.354 OA
ATOM     15  C   UNL     1      -0.763   4.032  24.750  0.00  0.00    +0.144 C 
ATOM     16  C   UNL     1      -1.288   3.397  24.714  0.00  0.00    +0.048 C 
ENDBRANCH   7  11
BRANCH   3  17
ATOM     17  C   UNL     1      -3.570  -0.556  24.720  0.00  0.00    +0.077 C 
ATOM     18  C   UNL     1      -3.860  -0.873  24.016  0.00  0.00    +0.020 C 
ATOM     19  C   UNL     1      -3.997  -1.684  23.953  0.00  0.00    +0.002 C 
ATOM     20  C   UNL     1      -3.844  -2.178  24.594  0.00  0.00    +0.000 C 
ATOM     21  C   UNL     1      -3.553  -1.863  25.299  0.00  0.00    +0.002 C 
ATOM     22  C   UNL     1      -3.417  -1.052  25.362  0.00  0.00    +0.020 C 
ENDBRANCH   3  17
TORSDOF 2
ENDMDL
MODEL 2
REMARK VINA RESULT:     -11.3      0.987      4.686
REMARK  Name = 
REMARK  2 active torsions:
REMARK  status: ('A' for Active; 'I' for Inactive)
REMARK    1  A    between atoms: N_3  and  C_17
REMARK    2  A    between atoms: N_7  and  C_11
REMARK                            x       y       z     vdW  Elec       q    Type
REMARK                         _______ _______ _______ _____ _____    ______ ____
ROOT
ATOM      1  O   UNL     1      -3.978   3.053  24.791  0.00  0.00    -0.252 OA
ATOM      2  C   UNL     1      -3.451   2.420  24.846  0.00  0.00    +0.307 C 
ATOM      3  N   UNL     1      -2.637   2.477  24.965  0.00  0.00    -0.264 N 
ATOM      4  C   UNL     1      -2.328   1.712  24.985  0.00  0.00    +0.116 C 
ATOM      5  C   UNL     1      -2.952   1.183  24.879  0.00  0.00    +0.113 C 
ATOM      6  C   UNL     1      -2.978   0.359  24.849  0.00  0.00    +0.094 C 
ATOM      7  N   UNL     1      -3.697  -0.027  24.734  0.00  0.00    -0.271 NA
ATOM      8  C   UNL     1      -4.391   0.410  24.648  0.00  0.00    +0.094 C 
ATOM      9  C   UNL     1      -4.366   1.234  24.678  0.00  0.00    +0.112 C 
ATOM     10  N   UNL     1      -3.646   1.621  24.793  0.00  0.00    -0.261 N 
ENDROOT
BRANCH   7  11
ATOM     11  C   UNL     1      -3.724  -0.852  24.704  0.00  0.00    +0.063 C 
ATOM     12  C   UNL     1      -3.469  -1.296  25.351  0.00  0.00    +0.048 C 
ATOM     13  C   UNL     1      -3.495  -2.119  25.323  0.00  0.00    +0.144 C 
ATOM     14  O   UNL     1      -3.776  -2.500  24.646  0.00  0.00    -0.354 OA
ATOM     15  C   UNL     1      -4.031  -2.056  23.999  0.00  0.00    +0.144 C 
ATOM     16  C   UNL     1      -4.005  -1.232  24.029  0.00  0.00    +0.048 C 
ENDBRANCH   7  11
BRANCH   3  17
ATOM     17  C   UNL     1      -2.207   3.176  25.048  0.00  0.00    +0.077 C 
ATOM     18  C   UNL     1      -2.413   3.721  25.632  0.00  0.00    +0.020 C 
ATOM     19  C   UNL     1      -1.982   4.419  25.716  0.00  0.00    +0.002 C 
ATOM     20  C   UNL     1      -1.346   4.573  25.216  0.00  0.00    +0.000 C 
ATOM     21  C   UNL     1      -1.138   4.029  24.631  0.00  0.00    +0.002 C 
ATOM     22  C   UNL     1      -1.569   3.330  24.548  0.00  0.00    +0.020 C 
ENDBRANCH   3  17
TORSDOF 2
ENDMDL
MODEL 3
REMARK VINA RESULT:     -11.1      1.857      2.354
REMARK  Name = 
REMARK  2 active torsions:
REMARK  status: ('A' for Active; 'I' for Inactive)
REMARK    1  A    between atoms: N_3  and  C_17
REMARK    2  A    between atoms: N_7  and  C_11
REMARK                            x       y       z     vdW  Elec       q    Type
REMARK                         _______ _______ _______ _____ _____    ______ ____
ROOT
ATOM      1  O   UNL     1      -2.521  -0.201  23.984  0.00  0.00    -0.252 OA
ATOM      2  C   UNL     1      -3.238  -0.017  24.351  0.00  0.00    +0.307 C 
ATOM      3  N   UNL     1      -3.802  -0.560  24.610  0.00  0.00    -0.264 N 
ATOM      4  C   UNL     1      -4.428  -0.137  24.942  0.00  0.00    +0.116 C 
ATOM      5  C   UNL     1      -4.250   0.666  24.888  0.00  0.00    +0.113 C 
ATOM      6  C   UNL     1      -4.663   1.341  25.123  0.00  0.00    +0.094 C 
ATOM      7  N   UNL     1      -4.340   2.088  24.994  0.00  0.00    -0.271 NA
ATOM      8  C   UNL     1      -3.604   2.162  24.629  0.00  0.00    +0.094 C 
ATOM      9  C   UNL     1      -3.191   1.489  24.392  0.00  0.00    +0.112 C 
ATOM     10  N   UNL     1      -3.514   0.740  24.522  0.00  0.00    -0.261 N 
ENDROOT
BRANCH   7  11
ATOM     11  C   UNL     1      -4.752   2.763  25.230  0.00  0.00    +0.063 C 
ATOM     12  C   UNL     1      -5.546   2.706  25.447  0.00  0.00    +0.048 C 
ATOM     13  C   UNL     1      -5.960   3.379  25.683  0.00  0.00    +0.144 C 
ATOM     14  O   UNL     1      -5.578   4.111  25.702  0.00  0.00    -0.354 OA
ATOM     15  C   UNL     1      -4.784   4.169  25.485  0.00  0.00    +0.144 C 
ATOM     16  C   UNL     1      -4.372   3.494  25.249  0.00  0.00    +0.048 C 
ENDBRANCH   7  11
BRANCH   3  17
ATOM     17  C   UNL     1      -3.750  -1.381  24.548  0.00  0.00    +0.077 C 
ATOM     18  C   UNL     1      -4.109  -1.771  23.917  0.00  0.00    +0.020 C 
ATOM     19  C   UNL     1      -4.058  -2.592  23.855  0.00  0.00    +0.002 C 
ATOM     20  C   UNL     1      -3.647  -3.023  24.425  0.00  0.00    +0.000 C 
ATOM     21  C   UNL     1      -3.287  -2.634  25.058  0.00  0.00    +0.002 C 
ATOM     22  C   UNL     1      -3.339  -1.813  25.119  0.00  0.00    +0.020 C 
ENDBRANCH   3  17
TORSDOF 2
ENDMDL
MODEL 4
REMARK VINA RESULT:      -9.1     15.908     18.517
REMARK  Name = 
REMARK  2 active torsions:
REMARK  status: ('A' for Active; 'I' for Inactive)
REMARK    1  A    between atoms: N_3  and  C_17
REMARK    2  A    between atoms: N_7  and  C_11
REMARK                            x       y       z     vdW  Elec       q    Type
REMARK                         _______ _______ _______ _____ _____    ______ ____
ROOT
ATOM      1  O   UNL     1      14.633   7.215  18.556  0.00  0.00    -0.252 OA
ATOM      2  C   UNL     1      14.429   7.070  19.343  0.00  0.00    +0.307 C 
ATOM      3  N   UNL     1      14.949   6.856  19.946  0.00  0.00    -0.264 N 
ATOM      4  C   UNL     1      14.510   6.768  20.640  0.00  0.00    +0.116 C 
ATOM      5  C   UNL     1      13.721   6.927  20.464  0.00  0.00    +0.113 C 
ATOM      6  C   UNL     1      13.040   6.926  20.931  0.00  0.00    +0.094 C 
ATOM      7  N   UNL     1      12.310   7.112  20.596  0.00  0.00    -0.271 NA
ATOM      8  C   UNL     1      12.260   7.299  19.794  0.00  0.00    +0.094 C 
ATOM      9  C   UNL     1      12.940   7.300  19.327  0.00  0.00    +0.112 C 
ATOM     10  N   UNL     1      13.671   7.114  19.662  0.00  0.00    -0.261 N 
ENDROOT
BRANCH   7  11
ATOM     11  C   UNL     1      11.629   7.111  21.062  0.00  0.00    +0.063 C 
ATOM     12  C   UNL     1      11.278   7.825  21.279  0.00  0.00    +0.048 C 
ATOM     13  C   UNL     1      10.597   7.826  21.745  0.00  0.00    +0.144 C 
ATOM     14  O   UNL     1      10.268   7.111  21.994  0.00  0.00    -0.354 OA
ATOM     15  C   UNL     1      10.619   6.396  21.777  0.00  0.00    +0.144 C 
ATOM     16  C   UNL     1      11.300   6.397  21.311  0.00  0.00    +0.048 C 
ENDBRANCH   7  11
BRANCH   3  17
ATOM     17  C   UNL     1      15.763   6.749  19.871  0.00  0.00    +0.077 C 
ATOM     18  C   UNL     1      16.058   6.122  19.423  0.00  0.00    +0.020 C 
ATOM     19  C   UNL     1      16.872   6.015  19.347  0.00  0.00    +0.002 C 
ATOM     20  C   UNL     1      17.392   6.536  19.719  0.00  0.00    +0.000 C 
ATOM     21  C   UNL     1      17.099   7.164  20.167  0.00  0.00    +0.002 C 
ATOM     22  C   UNL     1      16.285   7.271  20.242  0.00  0.00    +0.020 C 
ENDBRANCH   3  17
TORSDOF 2
ENDMDL
MODEL 5
REMARK VINA RESULT:      -8.9     15.922     18.384
REMARK  Name = 
REMARK  2 active torsions:
REMARK  status: ('A' for Active; 'I' for Inactive)
REMARK    1  A    between atoms: N_3  and  C_17
REMARK    2  A    between atoms: N_7  and  C_11
REMARK                            x       y       z     vdW  Elec       q    Type
REMARK                         _______ _______ _______ _____ _____    ______ ____
ROOT
ATOM      1  O   UNL     1      11.937   7.450  19.392  0.00  0.00    -0.252 OA
ATOM      2  C   UNL     1      12.553   7.252  19.904  0.00  0.00    +0.307 C 
ATOM      3  N   UNL     1      12.485   7.125  20.716  0.00  0.00    -0.264 N 
ATOM      4  C   UNL     1      13.235   6.941  21.009  0.00  0.00    +0.116 C 
ATOM      5  C   UNL     1      13.764   6.954  20.377  0.00  0.00    +0.113 C 
ATOM      6  C   UNL     1      14.577   6.816  20.334  0.00  0.00    +0.094 C 
ATOM      7  N   UNL     1      14.967   6.869  19.610  0.00  0.00    -0.271 NA
ATOM      8  C   UNL     1      14.546   7.061  18.927  0.00  0.00    +0.094 C 
ATOM      9  C   UNL     1      13.734   7.200  18.969  0.00  0.00    +0.112 C 
ATOM     10  N   UNL     1      13.343   7.146  19.694  0.00  0.00    -0.261 N 
ENDROOT
BRANCH   7  11
ATOM     11  C   UNL     1      15.780   6.731  19.567  0.00  0.00    +0.063 C 
ATOM     12  C   UNL     1      16.295   7.147  20.059  0.00  0.00    +0.048 C 
ATOM     13  C   UNL     1      17.107   7.010  20.017  0.00  0.00    +0.144 C 
ATOM     14  O   UNL     1      17.404   6.455  19.482  0.00  0.00    -0.354 OA
ATOM     15  C   UNL     1      16.889   6.039  18.991  0.00  0.00    +0.144 C 
ATOM     16  C   UNL     1      16.077   6.177  19.033  0.00  0.00    +0.048 C 
ENDBRANCH   7  11
BRANCH   3  17
ATOM     17  C   UNL     1      11.791   7.174  21.159  0.00  0.00    +0.077 C 
ATOM     18  C   UNL     1      11.536   7.903  21.449  0.00  0.00    +0.020 C 
ATOM     19  C   UNL     1      10.842   7.952  21.892  0.00  0.00    +0.002 C 
ATOM     20  C   UNL     1      10.402   7.272  22.045  0.00  0.00    +0.000 C 
ATOM     21  C   UNL     1      10.656   6.542  21.755  0.00  0.00    +0.002 C 
ATOM     22  C   UNL     1      11.350   6.493  21.312  0.00  0.00    +0.020 C 
ENDBRANCH   3  17
TORSDOF 2
ENDMDL
MODEL 6
REMARK VINA RESULT:      -8.2     17.916     19.440
REMARK  Name = 
REMARK  2 active torsions:
REMARK  status: ('A' for Active; 'I' for Inactive)
REMARK    1  A    between atoms: N_3  and  C_17
REMARK    2  A    between atoms: N_7  and  C_11
REMARK                            x       y       z     vdW  Elec       q    Type
REMARK                         _______ _______ _______ _____ _____    ______ ____
ROOT
ATOM      1  O   UNL     1      14.345   6.478  20.377  0.00  0.00    -0.252 OA
ATOM      2  C   UNL     1      14.431   6.916  19.683  0.00  0.00    +0.307 C 
ATOM      3  N   UNL     1      15.145   7.119  19.324  0.00  0.00    -0.264 N 
ATOM      4  C   UNL     1      14.974   7.556  18.645  0.00  0.00    +0.116 C 
ATOM      5  C   UNL     1      14.154   7.622  18.585  0.00  0.00    +0.113 C 
ATOM      6  C   UNL     1      13.669   7.991  18.029  0.00  0.00    +0.094 C 
ATOM      7  N   UNL     1      12.849   7.965  18.114  0.00  0.00    -0.271 NA
ATOM      8  C   UNL     1      12.514   7.570  18.756  0.00  0.00    +0.094 C 
ATOM      9  C   UNL     1      12.998   7.200  19.312  0.00  0.00    +0.112 C 
ATOM     10  N   UNL     1      13.819   7.227  19.226  0.00  0.00    -0.261 N 
ENDROOT
BRANCH   7  11
ATOM     11  C   UNL     1      12.364   8.334  17.558  0.00  0.00    +0.063 C 
ATOM     12  C   UNL     1      12.699   8.724  16.913  0.00  0.00    +0.048 C 
ATOM     13  C   UNL     1      12.215   9.094  16.357  0.00  0.00    +0.144 C 
ATOM     14  O   UNL     1      11.394   9.073  16.446  0.00  0.00    -0.354 OA
ATOM     15  C   UNL     1      11.059   8.683  17.091  0.00  0.00    +0.144 C 
ATOM     16  C   UNL     1      11.545   8.314  17.647  0.00  0.00    +0.048 C 
ENDBRANCH   7  11
BRANCH   3  17
ATOM     17  C   UNL     1      15.899   6.921  19.595  0.00  0.00    +0.077 C 
ATOM     18  C   UNL     1      16.248   7.360  20.200  0.00  0.00    +0.020 C 
ATOM     19  C   UNL     1      17.002   7.162  20.472  0.00  0.00    +0.002 C 
ATOM     20  C   UNL     1      17.405   6.525  20.139  0.00  0.00    +0.000 C 
ATOM     21  C   UNL     1      17.057   6.085  19.534  0.00  0.00    +0.002 C 
ATOM     22  C   UNL     1      16.303   6.283  19.262  0.00  0.00    +0.020 C 
ENDBRANCH   3  17
TORSDOF 2
ENDMDL
MODEL 7
REMARK VINA RESULT:      -8.0     15.567     17.453
REMARK  Name = 
REMARK  2 active torsions:
REMARK  status: ('A' for Active; 'I' for Inactive)
REMARK    1  A    between atoms: N_3  and  C_17
REMARK    2  A    between atoms: N_7  and  C_11
REMARK                            x       y       z     vdW  Elec       q    Type
REMARK                         _______ _______ _______ _____ _____    ______ ____
ROOT
ATOM      1  O   UNL     1      12.407   7.063  20.556  0.00  0.00    -0.252 OA
ATOM      2  C   UNL     1      12.000   7.631  20.117  0.00  0.00    +0.307 C 
ATOM      3  N   UNL     1      11.435   8.155  20.409  0.00  0.00    -0.264 N 
ATOM      4  C   UNL     1      11.172   8.623  19.781  0.00  0.00    +0.116 C 
ATOM      5  C   UNL     1      11.576   8.387  19.102  0.00  0.00    +0.113 C 
ATOM      6  C   UNL     1      11.545   8.651  18.321  0.00  0.00    +0.094 C 
ATOM      7  N   UNL     1      12.024   8.302  17.748  0.00  0.00    -0.271 NA
ATOM      8  C   UNL     1      12.536   7.690  17.956  0.00  0.00    +0.094 C 
ATOM      9  C   UNL     1      12.568   7.425  18.736  0.00  0.00    +0.112 C 
ATOM     10  N   UNL     1      12.088   7.774  19.310  0.00  0.00    -0.261 N 
ENDROOT
BRANCH   7  11
ATOM     11  C   UNL     1      11.993   8.566  16.967  0.00  0.00    +0.063 C 
ATOM     12  C   UNL     1      12.690   8.747  16.565  0.00  0.00    +0.048 C 
ATOM     13  C   UNL     1      12.660   9.010  15.784  0.00  0.00    +0.144 C 
ATOM     14  O   UNL     1      11.932   9.094  15.405  0.00  0.00    -0.354 OA
ATOM     15  C   UNL     1      11.234   8.913  15.807  0.00  0.00    +0.144 C 
ATOM     16  C   UNL     1      11.266   8.650  16.588  0.00  0.00    +0.048 C 
ENDBRANCH   7  11
BRANCH   3  17
ATOM     17  C   UNL     1      11.176   8.204  21.191  0.00  0.00    +0.077 C 
ATOM     18  C   UNL     1      10.673   7.626  21.496  0.00  0.00    +0.020 C 
ATOM     19  C   UNL     1      10.414   7.675  22.278  0.00  0.00    +0.002 C 
ATOM     20  C   UNL     1      10.658   8.302  22.755  0.00  0.00    +0.000 C 
ATOM     21  C   UNL     1      11.162   8.880  22.450  0.00  0.00    +0.002 C 
ATOM     22  C   UNL     1      11.421   8.832  21.669  0.00  0.00    +0.020 C 
ENDBRANCH   3  17
TORSDOF 2
ENDMDL
MODEL 8
REMARK VINA RESULT:      -7.9     17.674     18.606
REMARK  Name = 
REMARK  2 active torsions:
REMARK  status: ('A' for Active; 'I' for Inactive)
REMARK    1  A    between atoms: N_3  and  C_17
REMARK    2  A    between atoms: N_7  and  C_11
REMARK                            x       y       z     vdW  Elec       q    Type
REMARK                         _______ _______ _______ _____ _____    ______ ____
ROOT
ATOM      1  O   UNL     1      12.181   6.874  17.797  0.00  0.00    -0.252 OA
ATOM      2  C   UNL     1      12.457   7.557  18.170  0.00  0.00    +0.307 C 
ATOM      3  N   UNL     1      12.305   8.333  17.934  0.00  0.00    -0.264 N 
ATOM      4  C   UNL     1      12.686   8.839  18.462  0.00  0.00    +0.116 C 
ATOM      5  C   UNL     1      13.074   8.376  19.024  0.00  0.00    +0.113 C 
ATOM      6  C   UNL     1      13.538   8.573  19.677  0.00  0.00    +0.094 C 
ATOM      7  N   UNL     1      13.859   7.979  20.149  0.00  0.00    -0.271 NA
ATOM      8  C   UNL     1      13.717   7.187  19.968  0.00  0.00    +0.094 C 
ATOM      9  C   UNL     1      13.254   6.989  19.315  0.00  0.00    +0.112 C 
ATOM     10  N   UNL     1      12.932   7.584  18.843  0.00  0.00    -0.261 N 
ENDROOT
BRANCH   7  11
ATOM     11  C   UNL     1      14.324   8.176  20.802  0.00  0.00    +0.063 C 
ATOM     12  C   UNL     1      13.964   8.396  21.512  0.00  0.00    +0.048 C 
ATOM     13  C   UNL     1      14.427   8.593  22.165  0.00  0.00    +0.144 C 
ATOM     14  O   UNL     1      15.250   8.570  22.109  0.00  0.00    -0.354 OA
ATOM     15  C   UNL     1      15.610   8.349  21.400  0.00  0.00    +0.144 C 
ATOM     16  C   UNL     1      15.146   8.152  20.747  0.00  0.00    +0.048 C 
ENDBRANCH   7  11
BRANCH   3  17
ATOM     17  C   UNL     1      11.851   8.562  17.284  0.00  0.00    +0.077 C 
ATOM     18  C   UNL     1      12.218   8.864  16.610  0.00  0.00    +0.020 C 
ATOM     19  C   UNL     1      11.765   9.093  15.960  0.00  0.00    +0.002 C 
ATOM     20  C   UNL     1      10.944   9.021  15.984  0.00  0.00    +0.000 C 
ATOM     21  C   UNL     1      10.575   8.720  16.658  0.00  0.00    +0.002 C 
ATOM     22  C   UNL     1      11.029   8.490  17.308  0.00  0.00    +0.020 C 
ENDBRANCH   3  17
TORSDOF 2
ENDMDL
