REMARK  Name = 
REMARK  8 active torsions:
REMARK  status: ('A' for Active; 'I' for Inactive)
REMARK    1  A    between atoms: C_1  and  N_2
REMARK    2  A    between atoms: C_1  and  C_21
REMARK    3  A    between atoms: N_2  and  C_3
REMARK    4  A    between atoms: C_3  and  C_4
REMARK    5  A    between atoms: C_4  and  C_5
REMARK    6  A    between atoms: C_8  and  C_9
REMARK    7  A    between atoms: C_9  and  O_10
REMARK    8  A    between atoms: O_10  and  C_11
REMARK                            x       y       z     vdW  Elec       q    Type
REMARK                         _______ _______ _______ _____ _____    ______ ____
ROOT
ATOM      5  C   UNL     1       0.066  -4.421   0.000  0.00  0.00    +0.102 A 
ATOM      6  N   UNL     1      -0.230  -5.192   0.000  0.00  0.00    -0.082 NA
ATOM      7  O   UNL     1      -1.054  -5.149   0.000  0.00  0.00    -0.354 OA
ATOM      8  C   UNL     1      -1.267  -4.352   0.000  0.00  0.00    +0.198 A 
ATOM     17  C   UNL     1      -0.575  -3.902   0.000  0.00  0.00    +0.057 A 
ENDROOT
BRANCH   5   4
ATOM      4  C   UNL     1       0.863  -4.208   0.000  0.00  0.00    +0.070 C 
BRANCH   4   3
ATOM      3  C   UNL     1       1.446  -4.791   0.000  0.00  0.00    +0.120 C 
ATOM     18  C   UNL     1       2.030  -5.375   0.000  0.00  0.00    +0.161 C 
ATOM     19  O   UNL     1       1.446  -5.958   0.000  0.00  0.00    -0.351 OA
ATOM     20  C   UNL     1       0.863  -5.375   0.000  0.00  0.00    +0.161 C 
BRANCH   3   2
ATOM      2  N   UNL     1       2.030  -4.208   0.000  0.00  0.00    -0.207 NA
BRANCH   2   1
ATOM      1  C   UNL     1       2.826  -4.421   0.000  0.00  0.00    +0.153 C 
BRANCH   1  21
ATOM     21  C   UNL     1       3.040  -5.218   0.000  0.00  0.00    +0.141 A 
ATOM     22  C   UNL     1       3.810  -5.514   0.000  0.00  0.00    +0.038 A 
ATOM     23  C   UNL     1       3.767  -6.338   0.000  0.00  0.00    +0.043 A 
ATOM     24  C   UNL     1       2.970  -6.551   0.000  0.00  0.00    +0.179 A 
ATOM     25  O   UNL     1       2.521  -5.860   0.000  0.00  0.00    -0.453 OA
ENDBRANCH   1  21
ENDBRANCH   2   1
ENDBRANCH   3   2
ENDBRANCH   4   3
ENDBRANCH   5   4
BRANCH   8   9
ATOM      9  C   UNL     1      -2.037  -4.056   0.000  0.00  0.00    +0.272 C 
BRANCH   9  10
ATOM     10  O   UNL     1      -2.679  -4.575   0.000  0.00  0.00    -0.467 OA
BRANCH  10  11
ATOM     11  C   UNL     1      -3.449  -4.279   0.000  0.00  0.00    +0.139 A 
ATOM     12  C   UNL     1      -4.090  -4.799   0.000  0.00  0.00    +0.037 A 
ATOM     13  C   UNL     1      -4.860  -4.503   0.000  0.00  0.00    +0.003 A 
ATOM     14  C   UNL     1      -4.989  -3.688   0.000  0.00  0.00    +0.000 A 
ATOM     15  C   UNL     1      -4.348  -3.169   0.000  0.00  0.00    +0.003 A 
ATOM     16  C   UNL     1      -3.578  -3.465   0.000  0.00  0.00    +0.037 A 
ENDBRANCH  10  11
ENDBRANCH   9  10
ENDBRANCH   8   9
TORSDOF 8
