MODEL 1
REMARK VINA RESULT:     -14.2      0.000      0.000
REMARK  Name = 
REMARK  4 active torsions:
REMARK  status: ('A' for Active; 'I' for Inactive)
REMARK    1  A    between atoms: C_2  and  C_3
REMARK    2  A    between atoms: C_2  and  C_25
REMARK    3  A    between atoms: C_10  and  N_11
REMARK    4  A    between atoms: C_12  and  C_14
REMARK                            x       y       z     vdW  Elec       q    Type
REMARK                         _______ _______ _______ _____ _____    ______ ____
ROOT
ATOM      3  C   UNL     1      -4.254   0.183  24.674  0.00  0.00    +0.039 C 
ATOM      4  C   UNL     1      -4.967   0.422  25.017  0.00  0.00    +0.003 C 
ATOM      5  C   UNL     1      -5.083   1.213  25.218  0.00  0.00    +0.000 C 
ATOM      6  C   UNL     1      -4.488   1.766  25.077  0.00  0.00    +0.002 C 
ATOM      7  C   UNL     1      -5.199   2.004  25.419  0.00  0.00    +0.000 C 
ATOM      8  C   UNL     1      -4.604   2.558  25.279  0.00  0.00    +0.002 C 
ATOM      9  C   UNL     1      -4.008   3.110  25.138  0.00  0.00    +0.022 C 
ATOM     10  C   UNL     1      -3.296   2.872  24.796  0.00  0.00    +0.096 C 
ATOM     20  C   UNL     1      -3.180   2.081  24.595  0.00  0.00    +0.022 C 
ATOM     21  C   UNL     1      -2.468   1.842  24.253  0.00  0.00    +0.002 C 
ATOM     22  C   UNL     1      -3.775   1.527  24.735  0.00  0.00    +0.032 C 
ATOM     23  C   UNL     1      -3.659   0.736  24.534  0.00  0.00    +0.152 C 
ATOM     24  O   UNL     1      -2.947   0.498  24.192  0.00  0.00    -0.223 OA
ENDROOT
BRANCH  10  11
ATOM     11  N   UNL     1      -2.700   3.426  24.656  0.00  0.00    -0.203 NA
ATOM     12  C   UNL     1      -2.420   3.896  25.272  0.00  0.00    +0.265 C 
ATOM     13  O   UNL     1      -2.736   3.813  26.031  0.00  0.00    -0.268 OA
BRANCH  12  14
ATOM     14  C   UNL     1      -1.825   4.450  25.132  0.00  0.00    +0.058 A 
ATOM     15  C   UNL     1      -1.049   4.200  25.010  0.00  0.00    +0.025 A 
ATOM     16  C   UNL     1      -0.453   4.754  24.870  0.00  0.00    +0.099 A 
ATOM     17  N   UNL     1      -0.635   5.558  24.851  0.00  0.00    -0.242 NA
ATOM     18  C   UNL     1      -1.412   5.809  24.973  0.00  0.00    +0.099 A 
ATOM     19  C   UNL     1      -2.007   5.254  25.113  0.00  0.00    +0.025 A 
ENDBRANCH  12  14
ENDBRANCH  10  11
BRANCH   3   2
ATOM      1  C   UNL     1      -4.271  -0.862  23.699  0.00  0.00    +0.010 C 
ATOM      2  C   UNL     1      -4.139  -0.609  24.473  0.00  0.00    +0.079 C 
BRANCH   2  25
ATOM     25  C   UNL     1      -3.891  -1.148  25.046  0.00  0.00    +0.225 C 
ATOM     26  O   UNL     1      -3.818  -0.909  25.833  0.00  0.00    -0.275 OA
ATOM     27  N   UNL     1      -3.716  -1.926  24.834  0.00  0.00    -0.280 N 
ATOM     28  C   UNL     1      -3.464  -2.523  25.343  0.00  0.00    +0.093 C 
ATOM     29  C   UNL     1      -3.355  -3.209  24.899  0.00  0.00    +0.023 C 
ATOM     30  C   UNL     1      -3.541  -3.035  24.114  0.00  0.00    +0.023 C 
ATOM     31  C   UNL     1      -3.764  -2.242  24.074  0.00  0.00    +0.093 C 
ENDBRANCH   2  25
ENDBRANCH   3   2
TORSDOF 4
ENDMDL
MODEL 2
REMARK VINA RESULT:     -13.3      0.829      5.366
REMARK  Name = 
REMARK  4 active torsions:
REMARK  status: ('A' for Active; 'I' for Inactive)
REMARK    1  A    between atoms: C_2  and  C_3
REMARK    2  A    between atoms: C_2  and  C_25
REMARK    3  A    between atoms: C_10  and  N_11
REMARK    4  A    between atoms: C_12  and  C_14
REMARK                            x       y       z     vdW  Elec       q    Type
REMARK                         _______ _______ _______ _____ _____    ______ ____
ROOT
ATOM      3  C   UNL     1      -3.809   3.226  24.826  0.00  0.00    +0.039 C 
ATOM      4  C   UNL     1      -4.505   3.322  25.259  0.00  0.00    +0.003 C 
ATOM      5  C   UNL     1      -4.983   2.670  25.421  0.00  0.00    +0.000 C 
ATOM      6  C   UNL     1      -4.766   1.922  25.152  0.00  0.00    +0.002 C 
ATOM      7  C   UNL     1      -5.461   2.019  25.584  0.00  0.00    +0.000 C 
ATOM      8  C   UNL     1      -5.244   1.270  25.314  0.00  0.00    +0.002 C 
ATOM      9  C   UNL     1      -5.026   0.522  25.044  0.00  0.00    +0.022 C 
ATOM     10  C   UNL     1      -4.330   0.425  24.611  0.00  0.00    +0.096 C 
ATOM     20  C   UNL     1      -3.852   1.077  24.448  0.00  0.00    +0.022 C 
ATOM     21  C   UNL     1      -3.156   0.981  24.016  0.00  0.00    +0.002 C 
ATOM     22  C   UNL     1      -4.069   1.826  24.718  0.00  0.00    +0.032 C 
ATOM     23  C   UNL     1      -3.592   2.478  24.556  0.00  0.00    +0.152 C 
ATOM     24  O   UNL     1      -2.896   2.382  24.123  0.00  0.00    -0.223 OA
ENDROOT
BRANCH  10  11
ATOM     11  N   UNL     1      -4.113  -0.324  24.341  0.00  0.00    -0.203 NA
ATOM     12  C   UNL     1      -4.026  -0.946  24.875  0.00  0.00    +0.265 C 
ATOM     13  O   UNL     1      -4.156  -0.820  25.681  0.00  0.00    -0.268 OA
BRANCH  12  14
ATOM     14  C   UNL     1      -3.809  -1.695  24.605  0.00  0.00    +0.058 A 
ATOM     15  C   UNL     1      -4.254  -2.068  24.020  0.00  0.00    +0.025 A 
ATOM     16  C   UNL     1      -4.037  -2.817  23.750  0.00  0.00    +0.099 A 
ATOM     17  N   UNL     1      -3.373  -3.193  24.066  0.00  0.00    -0.242 NA
ATOM     18  C   UNL     1      -2.927  -2.819  24.652  0.00  0.00    +0.099 A 
ATOM     19  C   UNL     1      -3.145  -2.070  24.921  0.00  0.00    +0.025 A 
ENDBRANCH  12  14
ENDBRANCH  10  11
BRANCH   3   2
ATOM      1  C   UNL     1      -3.326   4.210  23.907  0.00  0.00    +0.010 C 
ATOM      2  C   UNL     1      -3.331   3.879  24.663  0.00  0.00    +0.079 C 
BRANCH   2  25
ATOM     25  C   UNL     1      -2.858   4.201  25.257  0.00  0.00    +0.225 C 
ATOM     26  O   UNL     1      -3.130   4.221  26.037  0.00  0.00    -0.275 OA
ATOM     27  N   UNL     1      -2.112   4.504  25.073  0.00  0.00    -0.280 N 
ATOM     28  C   UNL     1      -1.581   4.841  25.606  0.00  0.00    +0.093 C 
ATOM     29  C   UNL     1      -0.908   5.068  25.186  0.00  0.00    +0.023 C 
ATOM     30  C   UNL     1      -1.025   4.870  24.393  0.00  0.00    +0.023 C 
ATOM     31  C   UNL     1      -1.769   4.522  24.324  0.00  0.00    +0.093 C 
ENDBRANCH   2  25
ENDBRANCH   3   2
TORSDOF 4
ENDMDL
MODEL 3
REMARK VINA RESULT:     -12.3      1.545      2.426
REMARK  Name = 
REMARK  4 active torsions:
REMARK  status: ('A' for Active; 'I' for Inactive)
REMARK    1  A    between atoms: C_2  and  C_3
REMARK    2  A    between atoms: C_2  and  C_25
REMARK    3  A    between atoms: C_10  and  N_11
REMARK    4  A    between atoms: C_12  and  C_14
REMARK                            x       y       z     vdW  Elec       q    Type
REMARK                         _______ _______ _______ _____ _____    ______ ____
ROOT
ATOM      3  C   UNL     1      -2.186  -0.797  25.142  0.00  0.00    +0.039 C 
ATOM      4  C   UNL     1      -1.416  -1.073  25.024  0.00  0.00    +0.003 C 
ATOM      5  C   UNL     1      -0.806  -0.540  24.870  0.00  0.00    +0.000 C 
ATOM      6  C   UNL     1      -0.964   0.268  24.835  0.00  0.00    +0.002 C 
ATOM      7  C   UNL     1      -0.197  -0.007  24.717  0.00  0.00    +0.000 C 
ATOM      8  C   UNL     1      -0.354   0.802  24.682  0.00  0.00    +0.002 C 
ATOM      9  C   UNL     1      -0.512   1.611  24.646  0.00  0.00    +0.022 C 
ATOM     10  C   UNL     1      -1.282   1.887  24.764  0.00  0.00    +0.096 C 
ATOM     20  C   UNL     1      -1.891   1.353  24.917  0.00  0.00    +0.022 C 
ATOM     21  C   UNL     1      -2.660   1.629  25.035  0.00  0.00    +0.002 C 
ATOM     22  C   UNL     1      -1.734   0.544  24.953  0.00  0.00    +0.032 C 
ATOM     23  C   UNL     1      -2.344   0.011  25.106  0.00  0.00    +0.152 C 
ATOM     24  O   UNL     1      -3.112   0.287  25.224  0.00  0.00    -0.223 OA
ENDROOT
BRANCH  10  11
ATOM     11  N   UNL     1      -1.439   2.696  24.729  0.00  0.00    -0.203 NA
ATOM     12  C   UNL     1      -0.985   3.225  25.169  0.00  0.00    +0.265 C 
ATOM     13  O   UNL     1      -0.372   2.944  25.647  0.00  0.00    -0.268 OA
BRANCH  12  14
ATOM     14  C   UNL     1      -1.143   4.034  25.134  0.00  0.00    +0.058 A 
ATOM     15  C   UNL     1      -1.830   4.336  25.473  0.00  0.00    +0.025 A 
ATOM     16  C   UNL     1      -1.988   5.145  25.438  0.00  0.00    +0.099 A 
ATOM     17  N   UNL     1      -1.457   5.652  25.062  0.00  0.00    -0.242 NA
ATOM     18  C   UNL     1      -0.768   5.350  24.721  0.00  0.00    +0.099 A 
ATOM     19  C   UNL     1      -0.612   4.541  24.757  0.00  0.00    +0.025 A 
ENDBRANCH  12  14
ENDBRANCH  10  11
BRANCH   3   2
ATOM      1  C   UNL     1      -3.395  -1.134  25.827  0.00  0.00    +0.010 C 
ATOM      2  C   UNL     1      -2.796  -1.331  25.295  0.00  0.00    +0.079 C 
BRANCH   2  25
ATOM     25  C   UNL     1      -2.807  -2.064  24.915  0.00  0.00    +0.225 C 
ATOM     26  O   UNL     1      -2.188  -2.597  25.029  0.00  0.00    -0.275 OA
ATOM     27  N   UNL     1      -3.438  -2.263  24.421  0.00  0.00    -0.280 N 
ATOM     28  C   UNL     1      -3.525  -2.971  24.008  0.00  0.00    +0.093 C 
ATOM     29  C   UNL     1      -4.233  -2.935  23.586  0.00  0.00    +0.023 C 
ATOM     30  C   UNL     1      -4.583  -2.204  23.739  0.00  0.00    +0.023 C 
ATOM     31  C   UNL     1      -4.092  -1.789  24.256  0.00  0.00    +0.093 C 
ENDBRANCH   2  25
ENDBRANCH   3   2
TORSDOF 4
ENDMDL
MODEL 4
REMARK VINA RESULT:     -11.5      2.997      4.558
REMARK  Name = 
REMARK  4 active torsions:
REMARK  status: ('A' for Active; 'I' for Inactive)
REMARK    1  A    between atoms: C_2  and  C_3
REMARK    2  A    between atoms: C_2  and  C_25
REMARK    3  A    between atoms: C_10  and  N_11
REMARK    4  A    between atoms: C_12  and  C_14
REMARK                            x       y       z     vdW  Elec       q    Type
REMARK                         _______ _______ _______ _____ _____    ______ ____
ROOT
ATOM      3  C   UNL     1      -3.075   1.450  24.513  0.00  0.00    +0.039 C 
ATOM      4  C   UNL     1      -3.187   0.808  25.021  0.00  0.00    +0.003 C 
ATOM      5  C   UNL     1      -2.579   0.264  25.138  0.00  0.00    +0.000 C 
ATOM      6  C   UNL     1      -1.859   0.360  24.748  0.00  0.00    +0.002 C 
ATOM      7  C   UNL     1      -1.971  -0.280  25.255  0.00  0.00    +0.000 C 
ATOM      8  C   UNL     1      -1.250  -0.185  24.865  0.00  0.00    +0.002 C 
ATOM      9  C   UNL     1      -0.530  -0.089  24.474  0.00  0.00    +0.022 C 
ATOM     10  C   UNL     1      -0.418   0.553  23.966  0.00  0.00    +0.096 C 
ATOM     20  C   UNL     1      -1.026   1.097  23.850  0.00  0.00    +0.022 C 
ATOM     21  C   UNL     1      -0.914   1.738  23.342  0.00  0.00    +0.002 C 
ATOM     22  C   UNL     1      -1.747   1.001  24.240  0.00  0.00    +0.032 C 
ATOM     23  C   UNL     1      -2.355   1.546  24.123  0.00  0.00    +0.152 C 
ATOM     24  O   UNL     1      -2.243   2.186  23.616  0.00  0.00    -0.223 OA
ENDROOT
BRANCH  10  11
ATOM     11  N   UNL     1       0.303   0.648  23.576  0.00  0.00    -0.203 NA
ATOM     12  C   UNL     1       0.743  -0.012  23.355  0.00  0.00    +0.265 C 
ATOM     13  O   UNL     1       0.464  -0.771  23.525  0.00  0.00    -0.268 OA
BRANCH  12  14
ATOM     14  C   UNL     1       1.464   0.083  22.965  0.00  0.00    +0.058 A 
ATOM     15  C   UNL     1       2.080   0.493  23.329  0.00  0.00    +0.025 A 
ATOM     16  C   UNL     1       2.800   0.589  22.938  0.00  0.00    +0.099 A 
ATOM     17  N   UNL     1       2.905   0.273  22.183  0.00  0.00    -0.242 NA
ATOM     18  C   UNL     1       2.289  -0.138  21.819  0.00  0.00    +0.099 A 
ATOM     19  C   UNL     1       1.569  -0.232  22.210  0.00  0.00    +0.025 A 
ENDBRANCH  12  14
ENDBRANCH  10  11
BRANCH   3   2
ATOM      1  C   UNL     1      -4.017   2.089  23.648  0.00  0.00    +0.010 C 
ATOM      2  C   UNL     1      -3.684   1.994  24.397  0.00  0.00    +0.079 C 
BRANCH   2  25
ATOM     25  C   UNL     1      -3.961   2.444  25.030  0.00  0.00    +0.225 C 
ATOM     26  O   UNL     1      -3.432   2.889  25.483  0.00  0.00    -0.275 OA
ATOM     27  N   UNL     1      -4.766   2.450  25.212  0.00  0.00    -0.280 N 
ATOM     28  C   UNL     1      -5.122   2.871  25.825  0.00  0.00    +0.093 C 
ATOM     29  C   UNL     1      -5.932   2.718  25.805  0.00  0.00    +0.023 C 
ATOM     30  C   UNL     1      -6.076   2.201  25.178  0.00  0.00    +0.023 C 
ATOM     31  C   UNL     1      -5.356   2.036  24.812  0.00  0.00    +0.093 C 
ENDBRANCH   2  25
ENDBRANCH   3   2
TORSDOF 4
ENDMDL
MODEL 5
REMARK VINA RESULT:     -11.5      2.779      4.356
REMARK  Name = 
REMARK  4 active torsions:
REMARK  status: ('A' for Active; 'I' for Inactive)
REMARK    1  A    between atoms: C_2  and  C_3
REMARK    2  A    between atoms: C_2  and  C_25
REMARK    3  A    between atoms: C_10  and  N_11
REMARK    4  A    between atoms: C_12  and  C_14
REMARK                            x       y       z     vdW  Elec       q    Type
REMARK                         _______ _______ _______ _____ _____    ______ ____
ROOT
ATOM      3  C   UNL     1      -3.274   3.399  24.930  0.00  0.00    +0.039 C 
ATOM      4  C   UNL     1      -2.943   3.828  25.553  0.00  0.00    +0.003 C 
ATOM      5  C   UNL     1      -2.134   3.783  25.701  0.00  0.00    +0.000 C 
ATOM      6  C   UNL     1      -1.654   3.310  25.227  0.00  0.00    +0.002 C 
ATOM      7  C   UNL     1      -1.324   3.738  25.849  0.00  0.00    +0.000 C 
ATOM      8  C   UNL     1      -0.843   3.264  25.374  0.00  0.00    +0.002 C 
ATOM      9  C   UNL     1      -0.363   2.791  24.900  0.00  0.00    +0.022 C 
ATOM     10  C   UNL     1      -0.694   2.362  24.276  0.00  0.00    +0.096 C 
ATOM     20  C   UNL     1      -1.503   2.407  24.129  0.00  0.00    +0.022 C 
ATOM     21  C   UNL     1      -1.833   1.978  23.506  0.00  0.00    +0.002 C 
ATOM     22  C   UNL     1      -1.984   2.881  24.603  0.00  0.00    +0.032 C 
ATOM     23  C   UNL     1      -2.794   2.926  24.456  0.00  0.00    +0.152 C 
ATOM     24  O   UNL     1      -3.124   2.497  23.833  0.00  0.00    -0.223 OA
ENDROOT
BRANCH  10  11
ATOM     11  N   UNL     1      -0.213   1.888  23.802  0.00  0.00    -0.203 NA
ATOM     12  C   UNL     1       0.267   1.311  24.145  0.00  0.00    +0.265 C 
ATOM     13  O   UNL     1       0.266   1.208  24.964  0.00  0.00    -0.268 OA
BRANCH  12  14
ATOM     14  C   UNL     1       0.748   0.838  23.670  0.00  0.00    +0.058 A 
ATOM     15  C   UNL     1       0.455   0.132  23.360  0.00  0.00    +0.025 A 
ATOM     16  C   UNL     1       0.936  -0.341  22.885  0.00  0.00    +0.099 A 
ATOM     17  N   UNL     1       1.710  -0.109  22.721  0.00  0.00    -0.242 NA
ATOM     18  C   UNL     1       2.004   0.598  23.032  0.00  0.00    +0.099 A 
ATOM     19  C   UNL     1       1.522   1.070  23.506  0.00  0.00    +0.025 A 
ENDBRANCH  12  14
ENDBRANCH  10  11
BRANCH   3   2
ATOM      1  C   UNL     1      -4.360   3.542  24.011  0.00  0.00    +0.010 C 
ATOM      2  C   UNL     1      -4.085   3.445  24.783  0.00  0.00    +0.079 C 
BRANCH   2  25
ATOM     25  C   UNL     1      -4.620   3.393  25.408  0.00  0.00    +0.225 C 
ATOM     26  O   UNL     1      -4.575   3.927  26.036  0.00  0.00    -0.275 OA
ATOM     27  N   UNL     1      -5.202   2.807  25.405  0.00  0.00    -0.280 N 
ATOM     28  C   UNL     1      -5.773   2.688  25.989  0.00  0.00    +0.093 C 
ATOM     29  C   UNL     1      -6.238   2.046  25.763  0.00  0.00    +0.023 C 
ATOM     30  C   UNL     1      -5.955   1.768  25.040  0.00  0.00    +0.023 C 
ATOM     31  C   UNL     1      -5.314   2.239  24.819  0.00  0.00    +0.093 C 
ENDBRANCH   2  25
ENDBRANCH   3   2
TORSDOF 4
ENDMDL
MODEL 6
REMARK VINA RESULT:     -11.3      1.482      5.932
REMARK  Name = 
REMARK  4 active torsions:
REMARK  status: ('A' for Active; 'I' for Inactive)
REMARK    1  A    between atoms: C_2  and  C_3
REMARK    2  A    between atoms: C_2  and  C_25
REMARK    3  A    between atoms: C_10  and  N_11
REMARK    4  A    between atoms: C_12  and  C_14
REMARK                            x       y       z     vdW  Elec       q    Type
REMARK                         _______ _______ _______ _____ _____    ______ ____
ROOT
ATOM      3  C   UNL     1      -1.565   2.482  25.177  0.00  0.00    +0.039 C 
ATOM      4  C   UNL     1      -0.955   2.276  25.694  0.00  0.00    +0.003 C 
ATOM      5  C   UNL     1      -0.795   1.482  25.849  0.00  0.00    +0.000 C 
ATOM      6  C   UNL     1      -1.245   0.893  25.488  0.00  0.00    +0.002 C 
ATOM      7  C   UNL     1      -0.636   0.689  26.003  0.00  0.00    +0.000 C 
ATOM      8  C   UNL     1      -1.086   0.099  25.642  0.00  0.00    +0.002 C 
ATOM      9  C   UNL     1      -1.536  -0.490  25.282  0.00  0.00    +0.022 C 
ATOM     10  C   UNL     1      -2.146  -0.285  24.765  0.00  0.00    +0.096 C 
ATOM     20  C   UNL     1      -2.306   0.509  24.610  0.00  0.00    +0.022 C 
ATOM     21  C   UNL     1      -2.916   0.714  24.093  0.00  0.00    +0.002 C 
ATOM     22  C   UNL     1      -1.856   1.099  24.971  0.00  0.00    +0.032 C 
ATOM     23  C   UNL     1      -2.015   1.892  24.816  0.00  0.00    +0.152 C 
ATOM     24  O   UNL     1      -2.625   2.097  24.300  0.00  0.00    -0.223 OA
ENDROOT
BRANCH  10  11
ATOM     11  N   UNL     1      -2.596  -0.875  24.404  0.00  0.00    -0.203 NA
ATOM     12  C   UNL     1      -2.995  -1.431  24.864  0.00  0.00    +0.265 C 
ATOM     13  O   UNL     1      -2.944  -1.396  25.688  0.00  0.00    -0.268 OA
BRANCH  12  14
ATOM     14  C   UNL     1      -3.445  -2.021  24.503  0.00  0.00    +0.058 A 
ATOM     15  C   UNL     1      -4.113  -1.820  24.064  0.00  0.00    +0.025 A 
ATOM     16  C   UNL     1      -4.563  -2.410  23.703  0.00  0.00    +0.099 A 
ATOM     17  N   UNL     1      -4.344  -3.201  23.782  0.00  0.00    -0.242 NA
ATOM     18  C   UNL     1      -3.675  -3.403  24.222  0.00  0.00    +0.099 A 
ATOM     19  C   UNL     1      -3.226  -2.812  24.583  0.00  0.00    +0.025 A 
ENDBRANCH  12  14
ENDBRANCH  10  11
BRANCH   3   2
ATOM      1  C   UNL     1      -2.468   3.591  25.195  0.00  0.00    +0.010 C 
ATOM      2  C   UNL     1      -1.724   3.276  25.022  0.00  0.00    +0.079 C 
BRANCH   2  25
ATOM     25  C   UNL     1      -1.140   3.757  24.694  0.00  0.00    +0.225 C 
ATOM     26  O   UNL     1      -0.529   3.421  24.252  0.00  0.00    -0.275 OA
ATOM     27  N   UNL     1      -1.165   4.575  24.809  0.00  0.00    -0.280 N 
ATOM     28  C   UNL     1      -0.622   5.122  24.517  0.00  0.00    +0.093 C 
ATOM     29  C   UNL     1      -0.860   5.873  24.763  0.00  0.00    +0.023 C 
ATOM     30  C   UNL     1      -1.550   5.788  25.207  0.00  0.00    +0.023 C 
ATOM     31  C   UNL     1      -1.738   4.986  25.235  0.00  0.00    +0.093 C 
ENDBRANCH   2  25
ENDBRANCH   3   2
TORSDOF 4
ENDMDL
