MODEL 1
REMARK VINA RESULT:      -9.2      0.000      0.000
REMARK  Name = 
REMARK  6 active torsions:
REMARK  status: ('A' for Active; 'I' for Inactive)
REMARK    1  A    between atoms: C_2  and  C_29
REMARK    2  A    between atoms: N_3  and  C_4
REMARK    3  A    between atoms: C_8  and  N_12
REMARK    4  A    between atoms: C_16  and  O_17
REMARK    5  A    between atoms: O_17  and  C_18
REMARK    6  A    between atoms: C_21  and  N_24
REMARK                            x       y       z     vdW  Elec       q    Type
REMARK                         _______ _______ _______ _____ _____    ______ ____
ROOT
ATOM      4  C   UNL     1      -3.187   1.160  24.682  0.00  0.00    +0.155 C 
ATOM      5  C   UNL     1      -3.386   0.523  24.197  0.00  0.00    +0.166 C 
ATOM      6  O   UNL     1      -2.738   0.014  24.167  0.00  0.00    -0.350 OA
ATOM      7  C   UNL     1      -2.139   0.335  24.633  0.00  0.00    +0.169 C 
ATOM      8  C   UNL     1      -1.368   0.220  24.904  0.00  0.00    +0.170 C 
ATOM      9  C   UNL     1      -1.169   0.857  25.389  0.00  0.00    +0.169 C 
ATOM     10  O   UNL     1      -1.817   1.366  25.418  0.00  0.00    -0.350 OA
ATOM     11  C   UNL     1      -2.417   1.044  24.951  0.00  0.00    +0.167 C 
ENDROOT
BRANCH   8  12
ATOM     12  N   UNL     1      -0.881  -0.420  24.721  0.00  0.00    -0.180 N 
ATOM     13  N   UNL     1      -0.903  -1.164  25.078  0.00  0.00    -0.040 NA
ATOM     14  N   UNL     1      -0.322  -1.633  24.726  0.00  0.00    -0.020 NA
ATOM     15  N   UNL     1       0.058  -1.179  24.152  0.00  0.00    -0.071 NA
ATOM     16  C   UNL     1      -0.287  -0.430  24.149  0.00  0.00    +0.343 A 
BRANCH  16  17
ATOM     17  O   UNL     1      -0.075   0.199  23.659  0.00  0.00    -0.421 OA
BRANCH  17  18
ATOM     18  C   UNL     1       0.708   0.286  23.414  0.00  0.00    +0.149 A 
ATOM     19  C   UNL     1       1.014  -0.207  22.828  0.00  0.00    +0.039 A 
ATOM     20  C   UNL     1       1.796  -0.121  22.583  0.00  0.00    +0.022 A 
ATOM     21  C   UNL     1       2.274   0.459  22.924  0.00  0.00    +0.085 A 
ATOM     22  C   UNL     1       1.968   0.953  23.511  0.00  0.00    +0.022 A 
ATOM     23  C   UNL     1       1.185   0.866  23.755  0.00  0.00    +0.039 A 
BRANCH  21  24
ATOM     24  N   UNL     1       3.057   0.546  22.680  0.00  0.00    -0.208 N 
ATOM     25  C   UNL     1       3.362   0.328  21.945  0.00  0.00    +0.202 A 
ATOM     26  N   UNL     1       4.167   0.513  21.937  0.00  0.00    -0.200 NA
ATOM     27  C   UNL     1       4.358   0.846  22.668  0.00  0.00    +0.221 A 
ATOM     28  N   UNL     1       3.672   0.866  23.126  0.00  0.00    -0.141 NA
ENDBRANCH  21  24
ENDBRANCH  17  18
ENDBRANCH  16  17
ENDBRANCH   8  12
BRANCH   4   3
ATOM      1  O   UNL     1      -4.775   0.910  25.059  0.00  0.00    -0.268 OA
ATOM      2  C   UNL     1      -4.467   1.675  25.053  0.00  0.00    +0.265 C 
ATOM      3  N   UNL     1      -3.674   1.801  24.865  0.00  0.00    -0.198 NA
BRANCH   2  29
ATOM     29  C   UNL     1      -4.954   2.316  25.236  0.00  0.00    +0.055 A 
ATOM     30  C   UNL     1      -4.689   3.086  25.107  0.00  0.00    +0.005 A 
ATOM     31  C   UNL     1      -5.175   3.726  25.290  0.00  0.00    +0.000 A 
ATOM     32  C   UNL     1      -5.928   3.597  25.603  0.00  0.00    +0.000 A 
ATOM     33  C   UNL     1      -6.194   2.827  25.732  0.00  0.00    +0.000 A 
ATOM     34  C   UNL     1      -5.707   2.186  25.549  0.00  0.00    +0.005 A 
ENDBRANCH   2  29
ENDBRANCH   4   3
TORSDOF 6
ENDMDL
MODEL 2
REMARK VINA RESULT:      -8.9      1.297      6.717
REMARK  Name = 
REMARK  6 active torsions:
REMARK  status: ('A' for Active; 'I' for Inactive)
REMARK    1  A    between atoms: C_2  and  C_29
REMARK    2  A    between atoms: N_3  and  C_4
REMARK    3  A    between atoms: C_8  and  N_12
REMARK    4  A    between atoms: C_16  and  O_17
REMARK    5  A    between atoms: O_17  and  C_18
REMARK    6  A    between atoms: C_21  and  N_24
REMARK                            x       y       z     vdW  Elec       q    Type
REMARK                         _______ _______ _______ _____ _____    ______ ____
ROOT
ATOM      4  C   UNL     1       0.901   0.128  23.409  0.00  0.00    +0.155 C 
ATOM      5  C   UNL     1       0.512  -0.250  22.789  0.00  0.00    +0.166 C 
ATOM      6  O   UNL     1      -0.281  -0.336  23.001  0.00  0.00    -0.350 OA
ATOM      7  C   UNL     1      -0.381  -0.012  23.751  0.00  0.00    +0.169 C 
ATOM      8  C   UNL     1      -0.932   0.136  24.347  0.00  0.00    +0.170 C 
ATOM      9  C   UNL     1      -0.543   0.514  24.968  0.00  0.00    +0.169 C 
ATOM     10  O   UNL     1       0.249   0.600  24.756  0.00  0.00    -0.350 OA
ATOM     11  C   UNL     1       0.350   0.275  24.004  0.00  0.00    +0.167 C 
ENDROOT
BRANCH   8  12
ATOM     12  N   UNL     1      -1.734  -0.061  24.326  0.00  0.00    -0.180 N 
ATOM     13  N   UNL     1      -2.047  -0.824  24.359  0.00  0.00    -0.040 NA
ATOM     14  N   UNL     1      -2.869  -0.763  24.321  0.00  0.00    -0.020 NA
ATOM     15  N   UNL     1      -3.063   0.036  24.264  0.00  0.00    -0.071 NA
ATOM     16  C   UNL     1      -2.362   0.470  24.267  0.00  0.00    +0.343 A 
BRANCH  16  17
ATOM     17  O   UNL     1      -2.300   1.292  24.220  0.00  0.00    -0.421 OA
BRANCH  17  18
ATOM     18  C   UNL     1      -2.926   1.768  24.469  0.00  0.00    +0.149 A 
ATOM     19  C   UNL     1      -3.515   1.986  23.935  0.00  0.00    +0.039 A 
ATOM     20  C   UNL     1      -4.142   2.462  24.183  0.00  0.00    +0.022 A 
ATOM     21  C   UNL     1      -4.178   2.720  24.966  0.00  0.00    +0.085 A 
ATOM     22  C   UNL     1      -3.588   2.501  25.501  0.00  0.00    +0.022 A 
ATOM     23  C   UNL     1      -2.962   2.025  25.251  0.00  0.00    +0.039 A 
BRANCH  21  24
ATOM     24  N   UNL     1      -4.804   3.196  25.216  0.00  0.00    -0.208 N 
ATOM     25  C   UNL     1      -5.477   2.939  25.619  0.00  0.00    +0.202 A 
ATOM     26  N   UNL     1      -5.957   3.596  25.759  0.00  0.00    -0.200 NA
ATOM     27  C   UNL     1      -5.580   4.258  25.441  0.00  0.00    +0.221 A 
ATOM     28  N   UNL     1      -4.868   4.010  25.106  0.00  0.00    -0.141 NA
ENDBRANCH  21  24
ENDBRANCH  17  18
ENDBRANCH  16  17
ENDBRANCH   8  12
BRANCH   4   3
ATOM      1  O   UNL     1       1.891  -0.299  22.159  0.00  0.00    -0.268 OA
ATOM      2  C   UNL     1       2.197   0.111  22.806  0.00  0.00    +0.265 C 
ATOM      3  N   UNL     1       1.702   0.325  23.431  0.00  0.00    -0.198 NA
BRANCH   2  29
ATOM     29  C   UNL     1       2.998   0.308  22.828  0.00  0.00    +0.055 A 
ATOM     30  C   UNL     1       3.245   1.059  22.593  0.00  0.00    +0.005 A 
ATOM     31  C   UNL     1       4.045   1.256  22.615  0.00  0.00    +0.000 A 
ATOM     32  C   UNL     1       4.600   0.701  22.872  0.00  0.00    +0.000 A 
ATOM     33  C   UNL     1       4.353  -0.050  23.106  0.00  0.00    +0.000 A 
ATOM     34  C   UNL     1       3.552  -0.247  23.084  0.00  0.00    +0.005 A 
ENDBRANCH   2  29
ENDBRANCH   4   3
TORSDOF 6
ENDMDL
MODEL 3
REMARK VINA RESULT:      -8.2      3.848      5.548
REMARK  Name = 
REMARK  6 active torsions:
REMARK  status: ('A' for Active; 'I' for Inactive)
REMARK    1  A    between atoms: C_2  and  C_29
REMARK    2  A    between atoms: N_3  and  C_4
REMARK    3  A    between atoms: C_8  and  N_12
REMARK    4  A    between atoms: C_16  and  O_17
REMARK    5  A    between atoms: O_17  and  C_18
REMARK    6  A    between atoms: C_21  and  N_24
REMARK                            x       y       z     vdW  Elec       q    Type
REMARK                         _______ _______ _______ _____ _____    ______ ____
ROOT
ATOM      4  C   UNL     1      -4.653   0.222  24.560  0.00  0.00    +0.155 C 
ATOM      5  C   UNL     1      -4.450   0.709  23.927  0.00  0.00    +0.166 C 
ATOM      6  O   UNL     1      -4.632   1.486  24.134  0.00  0.00    -0.350 OA
ATOM      7  C   UNL     1      -4.948   1.480  24.895  0.00  0.00    +0.169 C 
ATOM      8  C   UNL     1      -5.256   1.955  25.495  0.00  0.00    +0.170 C 
ATOM      9  C   UNL     1      -5.459   1.468  26.129  0.00  0.00    +0.169 C 
ATOM     10  O   UNL     1      -5.277   0.691  25.921  0.00  0.00    -0.350 OA
ATOM     11  C   UNL     1      -4.961   0.698  25.159  0.00  0.00    +0.167 C 
ENDROOT
BRANCH   8  12
ATOM     12  N   UNL     1      -5.345   2.775  25.466  0.00  0.00    -0.180 N 
ATOM     13  N   UNL     1      -6.003   3.182  25.177  0.00  0.00    -0.040 NA
ATOM     14  N   UNL     1      -5.856   3.990  25.253  0.00  0.00    -0.020 NA
ATOM     15  N   UNL     1      -5.109   4.083  25.588  0.00  0.00    -0.071 NA
ATOM     16  C   UNL     1      -4.793   3.333  25.719  0.00  0.00    +0.343 A 
BRANCH  16  17
ATOM     17  O   UNL     1      -4.053   3.168  26.047  0.00  0.00    -0.421 OA
BRANCH  17  18
ATOM     18  C   UNL     1      -3.392   3.602  25.812  0.00  0.00    +0.149 A 
ATOM     19  C   UNL     1      -3.034   3.448  25.085  0.00  0.00    +0.039 A 
ATOM     20  C   UNL     1      -2.374   3.881  24.849  0.00  0.00    +0.022 A 
ATOM     21  C   UNL     1      -2.070   4.470  25.342  0.00  0.00    +0.085 A 
ATOM     22  C   UNL     1      -2.427   4.625  26.070  0.00  0.00    +0.022 A 
ATOM     23  C   UNL     1      -3.088   4.190  26.304  0.00  0.00    +0.039 A 
BRANCH  21  24
ATOM     24  N   UNL     1      -1.409   4.904  25.107  0.00  0.00    -0.208 N 
ATOM     25  C   UNL     1      -0.672   4.593  24.904  0.00  0.00    +0.202 A 
ATOM     26  N   UNL     1      -0.175   5.222  24.706  0.00  0.00    -0.200 NA
ATOM     27  C   UNL     1      -0.605   5.921  24.788  0.00  0.00    +0.221 A 
ATOM     28  N   UNL     1      -1.367   5.725  25.036  0.00  0.00    -0.141 NA
ENDBRANCH  21  24
ENDBRANCH  17  18
ENDBRANCH  16  17
ENDBRANCH   8  12
BRANCH   4   3
ATOM      1  O   UNL     1      -3.236  -0.473  24.075  0.00  0.00    -0.268 OA
ATOM      2  C   UNL     1      -3.856  -0.945  24.347  0.00  0.00    +0.265 C 
ATOM      3  N   UNL     1      -4.564  -0.598  24.590  0.00  0.00    -0.198 NA
BRANCH   2  29
ATOM     29  C   UNL     1      -3.767  -1.765  24.377  0.00  0.00    +0.055 A 
ATOM     30  C   UNL     1      -4.136  -2.240  23.814  0.00  0.00    +0.005 A 
ATOM     31  C   UNL     1      -4.047  -3.059  23.843  0.00  0.00    +0.000 A 
ATOM     32  C   UNL     1      -3.589  -3.404  24.436  0.00  0.00    +0.000 A 
ATOM     33  C   UNL     1      -3.219  -2.928  25.000  0.00  0.00    +0.000 A 
ATOM     34  C   UNL     1      -3.308  -2.108  24.970  0.00  0.00    +0.005 A 
ENDBRANCH   2  29
ENDBRANCH   4   3
TORSDOF 6
ENDMDL
MODEL 4
REMARK VINA RESULT:      -7.4      2.291      6.632
REMARK  Name = 
REMARK  6 active torsions:
REMARK  status: ('A' for Active; 'I' for Inactive)
REMARK    1  A    between atoms: C_2  and  C_29
REMARK    2  A    between atoms: N_3  and  C_4
REMARK    3  A    between atoms: C_8  and  N_12
REMARK    4  A    between atoms: C_16  and  O_17
REMARK    5  A    between atoms: O_17  and  C_18
REMARK    6  A    between atoms: C_21  and  N_24
REMARK                            x       y       z     vdW  Elec       q    Type
REMARK                         _______ _______ _______ _____ _____    ______ ____
ROOT
ATOM      4  C   UNL     1       1.631   0.814  23.413  0.00  0.00    +0.155 C 
ATOM      5  C   UNL     1       1.210   0.502  22.776  0.00  0.00    +0.166 C 
ATOM      6  O   UNL     1       0.420   0.726  22.858  0.00  0.00    -0.350 OA
ATOM      7  C   UNL     1       0.353   1.177  23.545  0.00  0.00    +0.169 C 
ATOM      8  C   UNL     1      -0.175   1.595  24.021  0.00  0.00    +0.170 C 
ATOM      9  C   UNL     1       0.246   1.907  24.658  0.00  0.00    +0.169 C 
ATOM     10  O   UNL     1       1.035   1.682  24.576  0.00  0.00    -0.350 OA
ATOM     11  C   UNL     1       1.102   1.231  23.888  0.00  0.00    +0.167 C 
ENDROOT
BRANCH   8  12
ATOM     12  N   UNL     1      -0.984   1.684  23.884  0.00  0.00    -0.180 N 
ATOM     13  N   UNL     1      -1.332   2.234  23.377  0.00  0.00    -0.040 NA
ATOM     14  N   UNL     1      -2.150   2.130  23.410  0.00  0.00    -0.020 NA
ATOM     15  N   UNL     1      -2.307   1.515  23.937  0.00  0.00    -0.071 NA
ATOM     16  C   UNL     1      -1.587   1.240  24.230  0.00  0.00    +0.343 A 
BRANCH  16  17
ATOM     17  O   UNL     1      -1.487   0.628  24.774  0.00  0.00    -0.421 OA
BRANCH  17  18
ATOM     18  C   UNL     1      -1.956  -0.049  24.724  0.00  0.00    +0.149 A 
ATOM     19  C   UNL     1      -2.748  -0.020  24.954  0.00  0.00    +0.039 A 
ATOM     20  C   UNL     1      -3.217  -0.697  24.904  0.00  0.00    +0.022 A 
ATOM     21  C   UNL     1      -2.894  -1.403  24.624  0.00  0.00    +0.085 A 
ATOM     22  C   UNL     1      -2.102  -1.432  24.394  0.00  0.00    +0.022 A 
ATOM     23  C   UNL     1      -1.633  -0.755  24.445  0.00  0.00    +0.039 A 
BRANCH  21  24
ATOM     24  N   UNL     1      -3.363  -2.080  24.574  0.00  0.00    -0.208 N 
ATOM     25  C   UNL     1      -3.333  -2.728  25.084  0.00  0.00    +0.202 A 
ATOM     26  N   UNL     1      -3.895  -3.277  24.831  0.00  0.00    -0.200 NA
ATOM     27  C   UNL     1      -4.271  -2.968  24.165  0.00  0.00    +0.221 A 
ATOM     28  N   UNL     1      -3.942  -2.229  24.006  0.00  0.00    -0.141 NA
ENDBRANCH  21  24
ENDBRANCH  17  18
ENDBRANCH  16  17
ENDBRANCH   8  12
BRANCH   4   3
ATOM      1  O   UNL     1       2.581   0.069  22.288  0.00  0.00    -0.268 OA
ATOM      2  C   UNL     1       2.914   0.352  22.987  0.00  0.00    +0.265 C 
ATOM      3  N   UNL     1       2.440   0.724  23.550  0.00  0.00    -0.198 NA
BRANCH   2  29
ATOM     29  C   UNL     1       3.723   0.262  23.125  0.00  0.00    +0.055 A 
ATOM     30  C   UNL     1       4.013  -0.445  23.434  0.00  0.00    +0.005 A 
ATOM     31  C   UNL     1       4.821  -0.535  23.571  0.00  0.00    +0.000 A 
ATOM     32  C   UNL     1       5.340   0.083  23.399  0.00  0.00    +0.000 A 
ATOM     33  C   UNL     1       5.051   0.790  23.089  0.00  0.00    +0.000 A 
ATOM     34  C   UNL     1       4.242   0.880  22.952  0.00  0.00    +0.005 A 
ENDBRANCH   2  29
ENDBRANCH   4   3
TORSDOF 6
ENDMDL
MODEL 5
REMARK VINA RESULT:      -7.3      4.000      5.649
REMARK  Name = 
REMARK  6 active torsions:
REMARK  status: ('A' for Active; 'I' for Inactive)
REMARK    1  A    between atoms: C_2  and  C_29
REMARK    2  A    between atoms: N_3  and  C_4
REMARK    3  A    between atoms: C_8  and  N_12
REMARK    4  A    between atoms: C_16  and  O_17
REMARK    5  A    between atoms: O_17  and  C_18
REMARK    6  A    between atoms: C_21  and  N_24
REMARK                            x       y       z     vdW  Elec       q    Type
REMARK                         _______ _______ _______ _____ _____    ______ ____
ROOT
ATOM      4  C   UNL     1      -3.196   3.800  25.356  0.00  0.00    +0.155 C 
ATOM      5  C   UNL     1      -3.264   3.457  26.103  0.00  0.00    +0.166 C 
ATOM      6  O   UNL     1      -3.865   2.893  26.070  0.00  0.00    -0.350 OA
ATOM      7  C   UNL     1      -4.169   2.888  25.303  0.00  0.00    +0.169 C 
ATOM      8  C   UNL     1      -4.727   2.537  24.808  0.00  0.00    +0.170 C 
ATOM      9  C   UNL     1      -4.659   2.880  24.062  0.00  0.00    +0.169 C 
ATOM     10  O   UNL     1      -4.058   3.443  24.094  0.00  0.00    -0.350 OA
ATOM     11  C   UNL     1      -3.755   3.448  24.862  0.00  0.00    +0.167 C 
ENDROOT
BRANCH   8  12
ATOM     12  N   UNL     1      -5.261   1.945  25.023  0.00  0.00    -0.180 N 
ATOM     13  N   UNL     1      -5.920   2.040  25.513  0.00  0.00    -0.040 NA
ATOM     14  N   UNL     1      -6.296   1.309  25.578  0.00  0.00    -0.020 NA
ATOM     15  N   UNL     1      -5.870   0.763  25.131  0.00  0.00    -0.071 NA
ATOM     16  C   UNL     1      -5.231   1.156  24.788  0.00  0.00    +0.343 A 
BRANCH  16  17
ATOM     17  O   UNL     1      -4.662   0.818  24.295  0.00  0.00    -0.421 OA
BRANCH  17  18
ATOM     18  C   UNL     1      -4.407   0.044  24.428  0.00  0.00    +0.149 A 
ATOM     19  C   UNL     1      -3.908  -0.122  25.063  0.00  0.00    +0.039 A 
ATOM     20  C   UNL     1      -3.654  -0.895  25.196  0.00  0.00    +0.022 A 
ATOM     21  C   UNL     1      -3.899  -1.503  24.694  0.00  0.00    +0.085 A 
ATOM     22  C   UNL     1      -4.399  -1.336  24.058  0.00  0.00    +0.022 A 
ATOM     23  C   UNL     1      -4.653  -0.562  23.926  0.00  0.00    +0.039 A 
BRANCH  21  24
ATOM     24  N   UNL     1      -3.645  -2.276  24.826  0.00  0.00    -0.208 N 
ATOM     25  C   UNL     1      -3.353  -2.575  25.538  0.00  0.00    +0.202 A 
ATOM     26  N   UNL     1      -3.166  -3.371  25.423  0.00  0.00    -0.200 NA
ATOM     27  C   UNL     1      -3.343  -3.563  24.641  0.00  0.00    +0.221 A 
ATOM     28  N   UNL     1      -3.639  -2.887  24.272  0.00  0.00    -0.141 NA
ENDBRANCH  21  24
ENDBRANCH  17  18
ENDBRANCH  16  17
ENDBRANCH   8  12
BRANCH   4   3
ATOM      1  O   UNL     1      -1.573   3.548  25.523  0.00  0.00    -0.268 OA
ATOM      2  C   UNL     1      -1.851   4.265  25.224  0.00  0.00    +0.265 C 
ATOM      3  N   UNL     1      -2.662   4.391  25.141  0.00  0.00    -0.198 NA
BRANCH   2  29
ATOM     29  C   UNL     1      -1.317   4.857  25.009  0.00  0.00    +0.055 A 
ATOM     30  C   UNL     1      -0.567   4.654  24.730  0.00  0.00    +0.005 A 
ATOM     31  C   UNL     1      -0.034   5.245  24.516  0.00  0.00    +0.000 A 
ATOM     32  C   UNL     1      -0.250   6.039  24.579  0.00  0.00    +0.000 A 
ATOM     33  C   UNL     1      -0.999   6.242  24.858  0.00  0.00    +0.000 A 
ATOM     34  C   UNL     1      -1.533   5.650  25.073  0.00  0.00    +0.005 A 
ENDBRANCH   2  29
ENDBRANCH   4   3
TORSDOF 6
ENDMDL
MODEL 6
REMARK VINA RESULT:      -7.3      2.021      6.870
REMARK  Name = 
REMARK  6 active torsions:
REMARK  status: ('A' for Active; 'I' for Inactive)
REMARK    1  A    between atoms: C_2  and  C_29
REMARK    2  A    between atoms: N_3  and  C_4
REMARK    3  A    between atoms: C_8  and  N_12
REMARK    4  A    between atoms: C_16  and  O_17
REMARK    5  A    between atoms: O_17  and  C_18
REMARK    6  A    between atoms: C_21  and  N_24
REMARK                            x       y       z     vdW  Elec       q    Type
REMARK                         _______ _______ _______ _____ _____    ______ ____
ROOT
ATOM      4  C   UNL     1       0.450   2.036  24.320  0.00  0.00    +0.155 C 
ATOM      5  C   UNL     1       0.232   1.761  25.067  0.00  0.00    +0.166 C 
ATOM      6  O   UNL     1      -0.336   2.276  25.371  0.00  0.00    -0.350 OA
ATOM      7  C   UNL     1      -0.470   2.868  24.814  0.00  0.00    +0.169 C 
ATOM      8  C   UNL     1      -0.903   3.552  24.657  0.00  0.00    +0.170 C 
ATOM      9  C   UNL     1      -0.685   3.827  23.910  0.00  0.00    +0.169 C 
ATOM     10  O   UNL     1      -0.117   3.313  23.606  0.00  0.00    -0.350 OA
ATOM     11  C   UNL     1       0.016   2.720  24.164  0.00  0.00    +0.167 C 
ENDROOT
BRANCH   8  12
ATOM     12  N   UNL     1      -1.457   3.901  25.159  0.00  0.00    -0.180 N 
ATOM     13  N   UNL     1      -1.289   4.385  25.806  0.00  0.00    -0.040 NA
ATOM     14  N   UNL     1      -2.005   4.609  26.149  0.00  0.00    -0.020 NA
ATOM     15  N   UNL     1      -2.615   4.264  25.715  0.00  0.00    -0.071 NA
ATOM     16  C   UNL     1      -2.276   3.827  25.103  0.00  0.00    +0.343 A 
BRANCH  16  17
ATOM     17  O   UNL     1      -2.686   3.391  24.534  0.00  0.00    -0.421 OA
BRANCH  17  18
ATOM     18  C   UNL     1      -3.426   3.072  24.712  0.00  0.00    +0.149 A 
ATOM     19  C   UNL     1      -3.492   2.279  24.930  0.00  0.00    +0.039 A 
ATOM     20  C   UNL     1      -4.231   1.960  25.109  0.00  0.00    +0.022 A 
ATOM     21  C   UNL     1      -4.905   2.435  25.069  0.00  0.00    +0.085 A 
ATOM     22  C   UNL     1      -4.840   3.228  24.851  0.00  0.00    +0.022 A 
ATOM     23  C   UNL     1      -4.100   3.546  24.672  0.00  0.00    +0.039 A 
BRANCH  21  24
ATOM     24  N   UNL     1      -5.646   2.117  25.247  0.00  0.00    -0.208 N 
ATOM     25  C   UNL     1      -6.207   1.862  24.700  0.00  0.00    +0.202 A 
ATOM     26  N   UNL     1      -6.864   1.585  25.118  0.00  0.00    -0.200 NA
ATOM     27  C   UNL     1      -6.706   1.669  25.923  0.00  0.00    +0.221 A 
ATOM     28  N   UNL     1      -5.953   1.998  26.003  0.00  0.00    -0.141 NA
ENDBRANCH  21  24
ENDBRANCH  17  18
ENDBRANCH  16  17
ENDBRANCH   8  12
BRANCH   4   3
ATOM      1  O   UNL     1       0.369   0.420  23.995  0.00  0.00    -0.268 OA
ATOM      2  C   UNL     1       0.963   0.880  23.655  0.00  0.00    +0.265 C 
ATOM      3  N   UNL     1       1.004   1.688  23.818  0.00  0.00    -0.198 NA
BRANCH   2  29
ATOM     29  C   UNL     1       1.518   0.531  23.153  0.00  0.00    +0.055 A 
ATOM     30  C   UNL     1       1.273  -0.009  22.580  0.00  0.00    +0.005 A 
ATOM     31  C   UNL     1       1.827  -0.357  22.078  0.00  0.00    +0.000 A 
ATOM     32  C   UNL     1       2.627  -0.165  22.149  0.00  0.00    +0.000 A 
ATOM     33  C   UNL     1       2.871   0.376  22.721  0.00  0.00    +0.000 A 
ATOM     34  C   UNL     1       2.317   0.724  23.224  0.00  0.00    +0.005 A 
ENDBRANCH   2  29
ENDBRANCH   4   3
TORSDOF 6
ENDMDL
MODEL 7
REMARK VINA RESULT:      -6.8      2.589      5.766
REMARK  Name = 
REMARK  6 active torsions:
REMARK  status: ('A' for Active; 'I' for Inactive)
REMARK    1  A    between atoms: C_2  and  C_29
REMARK    2  A    between atoms: N_3  and  C_4
REMARK    3  A    between atoms: C_8  and  N_12
REMARK    4  A    between atoms: C_16  and  O_17
REMARK    5  A    between atoms: O_17  and  C_18
REMARK    6  A    between atoms: C_21  and  N_24
REMARK                            x       y       z     vdW  Elec       q    Type
REMARK                         _______ _______ _______ _____ _____    ______ ____
ROOT
ATOM      4  C   UNL     1      -1.913  -0.376  25.039  0.00  0.00    +0.155 C 
ATOM      5  C   UNL     1      -2.013  -0.123  25.817  0.00  0.00    +0.166 C 
ATOM      6  O   UNL     1      -1.689   0.632  25.882  0.00  0.00    -0.350 OA
ATOM      7  C   UNL     1      -1.389   0.846  25.145  0.00  0.00    +0.169 C 
ATOM      8  C   UNL     1      -1.003   1.445  24.729  0.00  0.00    +0.170 C 
ATOM      9  C   UNL     1      -0.903   1.191  23.950  0.00  0.00    +0.169 C 
ATOM     10  O   UNL     1      -1.227   0.436  23.885  0.00  0.00    -0.350 OA
ATOM     11  C   UNL     1      -1.528   0.222  24.624  0.00  0.00    +0.167 C 
ENDROOT
BRANCH   8  12
ATOM     12  N   UNL     1      -0.759   2.170  25.038  0.00  0.00    -0.180 N 
ATOM     13  N   UNL     1      -0.166   2.284  25.600  0.00  0.00    -0.040 NA
ATOM     14  N   UNL     1      -0.106   3.093  25.748  0.00  0.00    -0.020 NA
ATOM     15  N   UNL     1      -0.662   3.479  25.277  0.00  0.00    -0.071 NA
ATOM     16  C   UNL     1      -1.065   2.909  24.838  0.00  0.00    +0.343 A 
BRANCH  16  17
ATOM     17  O   UNL     1      -1.669   3.054  24.295  0.00  0.00    -0.421 OA
BRANCH  17  18
ATOM     18  C   UNL     1      -2.419   3.274  24.560  0.00  0.00    +0.149 A 
ATOM     19  C   UNL     1      -2.500   3.705  25.258  0.00  0.00    +0.039 A 
ATOM     20  C   UNL     1      -3.249   3.925  25.524  0.00  0.00    +0.022 A 
ATOM     21  C   UNL     1      -3.919   3.714  25.090  0.00  0.00    +0.085 A 
ATOM     22  C   UNL     1      -3.838   3.282  24.391  0.00  0.00    +0.022 A 
ATOM     23  C   UNL     1      -3.088   3.063  24.126  0.00  0.00    +0.039 A 
BRANCH  21  24
ATOM     24  N   UNL     1      -4.669   3.933  25.354  0.00  0.00    -0.208 N 
ATOM     25  C   UNL     1      -5.210   3.442  25.737  0.00  0.00    +0.202 A 
ATOM     26  N   UNL     1      -5.885   3.887  25.902  0.00  0.00    -0.200 NA
ATOM     27  C   UNL     1      -5.760   4.652  25.621  0.00  0.00    +0.221 A 
ATOM     28  N   UNL     1      -5.009   4.681  25.282  0.00  0.00    -0.141 NA
ENDBRANCH  21  24
ENDBRANCH  17  18
ENDBRANCH  16  17
ENDBRANCH   8  12
BRANCH   4   3
ATOM      1  O   UNL     1      -3.456  -0.906  25.294  0.00  0.00    -0.268 OA
ATOM      2  C   UNL     1      -2.928  -1.366  24.858  0.00  0.00    +0.265 C 
ATOM      3  N   UNL     1      -2.157  -1.102  24.730  0.00  0.00    -0.198 NA
BRANCH   2  29
ATOM     29  C   UNL     1      -3.172  -2.092  24.549  0.00  0.00    +0.055 A 
ATOM     30  C   UNL     1      -3.887  -2.148  24.141  0.00  0.00    +0.005 A 
ATOM     31  C   UNL     1      -4.130  -2.872  23.833  0.00  0.00    +0.000 A 
ATOM     32  C   UNL     1      -3.658  -3.542  23.931  0.00  0.00    +0.000 A 
ATOM     33  C   UNL     1      -2.943  -3.487  24.338  0.00  0.00    +0.000 A 
ATOM     34  C   UNL     1      -2.699  -2.761  24.647  0.00  0.00    +0.005 A 
ENDBRANCH   2  29
ENDBRANCH   4   3
TORSDOF 6
ENDMDL
