MODEL 1
REMARK VINA RESULT:     -11.7      0.000      0.000
REMARK  Name = 
REMARK  6 active torsions:
REMARK  status: ('A' for Active; 'I' for Inactive)
REMARK    1  A    between atoms: O_2  and  C_3
REMARK    2  A    between atoms: C_6  and  N_9
REMARK    3  A    between atoms: C_13  and  C_14
REMARK    4  A    between atoms: C_16  and  O_17
REMARK    5  A    between atoms: O_17  and  C_18
REMARK    6  A    between atoms: N_20  and  C_21
REMARK                            x       y       z     vdW  Elec       q    Type
REMARK                         _______ _______ _______ _____ _____    ______ ____
ROOT
ATOM     14  C   UNL     1      -4.671   2.123  24.987  0.00  0.00    +0.050 C 
ATOM     15  C   UNL     1      -4.159   2.621  25.399  0.00  0.00    +0.057 C 
ATOM     16  C   UNL     1      -4.284   3.392  25.132  0.00  0.00    +0.193 C 
ATOM     28  C   UNL     1      -4.873   3.369  24.555  0.00  0.00    +0.012 C 
ATOM     29  C   UNL     1      -5.112   2.585  24.466  0.00  0.00    -0.023 C 
ENDROOT
BRANCH  14  13
ATOM      9  N   UNL     1      -4.467  -0.003  25.025  0.00  0.00    -0.234 N 
ATOM     10  N   UNL     1      -5.182   0.096  25.425  0.00  0.00    -0.170 NA
ATOM     11  C   UNL     1      -5.345   0.905  25.460  0.00  0.00    +0.077 A 
ATOM     12  C   UNL     1      -6.006   1.252  25.812  0.00  0.00    +0.054 C 
ATOM     13  C   UNL     1      -4.731   1.305  25.081  0.00  0.00    +0.011 A 
ATOM     30  C   UNL     1      -4.189   0.744  24.812  0.00  0.00    +0.058 A 
ATOM     31  C   UNL     1      -3.491   0.904  24.402  0.00  0.00    +0.052 C 
BRANCH   9   6
ATOM      3  C   UNL     1      -3.355  -2.160  24.546  0.00  0.00    +0.139 A 
ATOM      4  C   UNL     1      -3.905  -1.853  24.014  0.00  0.00    +0.038 A 
ATOM      5  C   UNL     1      -4.276  -1.134  24.174  0.00  0.00    +0.022 A 
ATOM      6  C   UNL     1      -4.097  -0.721  24.865  0.00  0.00    +0.083 A 
ATOM      7  C   UNL     1      -3.546  -1.029  25.397  0.00  0.00    +0.022 A 
ATOM      8  C   UNL     1      -3.175  -1.748  25.237  0.00  0.00    +0.038 A 
BRANCH   3   2
ATOM      1  C   UNL     1      -2.160  -2.921  24.355  0.00  0.00    +0.252 C 
ATOM      2  O   UNL     1      -2.984  -2.880  24.386  0.00  0.00    -0.471 OA
ENDBRANCH   3   2
ENDBRANCH   9   6
ENDBRANCH  14  13
BRANCH  16  17
ATOM     17  O   UNL     1      -3.888   4.066  25.395  0.00  0.00    -0.432 OA
BRANCH  17  18
ATOM     18  C   UNL     1      -3.140   4.249  25.097  0.00  0.00    +0.426 C 
ATOM     19  O   UNL     1      -3.044   4.405  24.293  0.00  0.00    -0.224 OA
ATOM     20  N   UNL     1      -2.491   4.277  25.604  0.00  0.00    -0.142 NA
BRANCH  20  21
ATOM     21  C   UNL     1      -1.743   4.460  25.307  0.00  0.00    +0.079 A 
ATOM     22  C   UNL     1      -1.543   5.244  25.147  0.00  0.00    +0.017 A 
ATOM     23  C   UNL     1      -0.794   5.426  24.850  0.00  0.00    +0.004 A 
ATOM     24  C   UNL     1      -0.248   4.824  24.712  0.00  0.00    +0.030 A 
ATOM     25  C   UNL     1      -0.448   4.040  24.872  0.00  0.00    +0.141 A 
ATOM     26  F   UNL     1       0.099   3.437  24.734  0.00  0.00    -0.204 F 
ATOM     27  C   UNL     1      -1.196   3.857  25.169  0.00  0.00    +0.046 A 
ENDBRANCH  20  21
ENDBRANCH  17  18
ENDBRANCH  16  17
TORSDOF 6
ENDMDL
MODEL 2
REMARK VINA RESULT:     -10.7      1.544      5.319
REMARK  Name = 
REMARK  6 active torsions:
REMARK  status: ('A' for Active; 'I' for Inactive)
REMARK    1  A    between atoms: O_2  and  C_3
REMARK    2  A    between atoms: C_6  and  N_9
REMARK    3  A    between atoms: C_13  and  C_14
REMARK    4  A    between atoms: C_16  and  O_17
REMARK    5  A    between atoms: O_17  and  C_18
REMARK    6  A    between atoms: N_20  and  C_21
REMARK                            x       y       z     vdW  Elec       q    Type
REMARK                         _______ _______ _______ _____ _____    ______ ____
ROOT
ATOM     14  C   UNL     1      -4.581   1.654  24.992  0.00  0.00    +0.050 C 
ATOM     15  C   UNL     1      -4.366   0.926  25.313  0.00  0.00    +0.057 C 
ATOM     16  C   UNL     1      -4.814   0.341  24.942  0.00  0.00    +0.193 C 
ATOM     28  C   UNL     1      -5.306   0.709  24.390  0.00  0.00    +0.012 C 
ATOM     29  C   UNL     1      -5.162   1.520  24.422  0.00  0.00    -0.023 C 
ENDROOT
BRANCH  14  13
ATOM      9  N   UNL     1      -3.441   3.429  25.328  0.00  0.00    -0.234 N 
ATOM     10  N   UNL     1      -4.138   3.608  25.730  0.00  0.00    -0.170 NA
ATOM     11  C   UNL     1      -4.650   2.966  25.653  0.00  0.00    +0.077 A 
ATOM     12  C   UNL     1      -5.410   2.909  25.971  0.00  0.00    +0.054 C 
ATOM     13  C   UNL     1      -4.269   2.389  25.203  0.00  0.00    +0.011 A 
ATOM     30  C   UNL     1      -3.521   2.675  25.002  0.00  0.00    +0.058 A 
ATOM     31  C   UNL     1      -2.955   2.277  24.554  0.00  0.00    +0.052 C 
BRANCH   9   6
ATOM      3  C   UNL     1      -1.456   4.893  25.132  0.00  0.00    +0.139 A 
ATOM      4  C   UNL     1      -2.117   5.029  24.658  0.00  0.00    +0.038 A 
ATOM      5  C   UNL     1      -2.778   4.540  24.723  0.00  0.00    +0.022 A 
ATOM      6  C   UNL     1      -2.780   3.917  25.263  0.00  0.00    +0.083 A 
ATOM      7  C   UNL     1      -2.118   3.781  25.738  0.00  0.00    +0.022 A 
ATOM      8  C   UNL     1      -1.456   4.269  25.672  0.00  0.00    +0.038 A 
BRANCH   3   2
ATOM      1  C   UNL     1      -0.194   5.194  24.531  0.00  0.00    +0.252 C 
ATOM      2  O   UNL     1      -0.794   5.382  25.067  0.00  0.00    -0.471 OA
ENDBRANCH   3   2
ENDBRANCH   9   6
ENDBRANCH  14  13
BRANCH  16  17
ATOM     17  O   UNL     1      -4.777  -0.469  25.094  0.00  0.00    -0.432 OA
BRANCH  17  18
ATOM     18  C   UNL     1      -4.162  -0.921  24.779  0.00  0.00    +0.426 C 
ATOM     19  O   UNL     1      -4.060  -0.964  23.962  0.00  0.00    -0.224 OA
ATOM     20  N   UNL     1      -3.652  -1.328  25.281  0.00  0.00    -0.142 NA
BRANCH  20  21
ATOM     21  C   UNL     1      -3.037  -1.780  24.967  0.00  0.00    +0.079 A 
ATOM     22  C   UNL     1      -3.192  -2.528  24.655  0.00  0.00    +0.017 A 
ATOM     23  C   UNL     1      -2.577  -2.980  24.340  0.00  0.00    +0.004 A 
ATOM     24  C   UNL     1      -1.807  -2.683  24.339  0.00  0.00    +0.030 A 
ATOM     25  C   UNL     1      -1.652  -1.935  24.651  0.00  0.00    +0.141 A 
ATOM     26  F   UNL     1      -0.882  -1.638  24.649  0.00  0.00    -0.204 F 
ATOM     27  C   UNL     1      -2.267  -1.483  24.965  0.00  0.00    +0.046 A 
ENDBRANCH  20  21
ENDBRANCH  17  18
ENDBRANCH  16  17
TORSDOF 6
ENDMDL
MODEL 3
REMARK VINA RESULT:     -10.5      2.726      4.536
REMARK  Name = 
REMARK  6 active torsions:
REMARK  status: ('A' for Active; 'I' for Inactive)
REMARK    1  A    between atoms: O_2  and  C_3
REMARK    2  A    between atoms: C_6  and  N_9
REMARK    3  A    between atoms: C_13  and  C_14
REMARK    4  A    between atoms: C_16  and  O_17
REMARK    5  A    between atoms: O_17  and  C_18
REMARK    6  A    between atoms: N_20  and  C_21
REMARK                            x       y       z     vdW  Elec       q    Type
REMARK                         _______ _______ _______ _____ _____    ______ ____
ROOT
ATOM     14  C   UNL     1      -1.272   3.404  25.370  0.00  0.00    +0.050 C 
ATOM     15  C   UNL     1      -2.037   3.287  25.653  0.00  0.00    +0.057 C 
ATOM     16  C   UNL     1      -2.420   4.018  25.663  0.00  0.00    +0.193 C 
ATOM     28  C   UNL     1      -1.890   4.587  25.385  0.00  0.00    +0.012 C 
ATOM     29  C   UNL     1      -1.181   4.207  25.204  0.00  0.00    -0.023 C 
ENDROOT
BRANCH  14  13
ATOM      9  N   UNL     1       0.059   1.862  24.727  0.00  0.00    -0.234 N 
ATOM     10  N   UNL     1       0.314   1.980  25.502  0.00  0.00    -0.170 NA
ATOM     11  C   UNL     1      -0.153   2.573  25.837  0.00  0.00    +0.077 A 
ATOM     12  C   UNL     1      -0.087   2.866  26.606  0.00  0.00    +0.054 C 
ATOM     13  C   UNL     1      -0.698   2.820  25.269  0.00  0.00    +0.011 A 
ATOM     30  C   UNL     1      -0.567   2.380  24.583  0.00  0.00    +0.058 A 
ATOM     31  C   UNL     1      -0.988   2.449  23.877  0.00  0.00    +0.052 C 
BRANCH   9   6
ATOM      3  C   UNL     1       1.001   0.236  23.117  0.00  0.00    +0.139 A 
ATOM      4  C   UNL     1       0.285   0.076  23.494  0.00  0.00    +0.038 A 
ATOM      5  C   UNL     1      -0.029   0.618  24.031  0.00  0.00    +0.022 A 
ATOM      6  C   UNL     1       0.372   1.320  24.191  0.00  0.00    +0.083 A 
ATOM      7  C   UNL     1       1.089   1.481  23.814  0.00  0.00    +0.022 A 
ATOM      8  C   UNL     1       1.403   0.939  23.277  0.00  0.00    +0.038 A 
BRANCH   3   2
ATOM      1  C   UNL     1       2.085  -0.209  22.299  0.00  0.00    +0.252 C 
ATOM      2  O   UNL     1       1.315  -0.306  22.580  0.00  0.00    -0.471 OA
ENDBRANCH   3   2
ENDBRANCH   9   6
ENDBRANCH  14  13
BRANCH  16  17
ATOM     17  O   UNL     1      -3.196   4.156  25.908  0.00  0.00    -0.432 OA
BRANCH  17  18
ATOM     18  C   UNL     1      -3.818   3.734  25.567  0.00  0.00    +0.426 C 
ATOM     19  O   UNL     1      -4.038   3.884  24.786  0.00  0.00    -0.224 OA
ATOM     20  N   UNL     1      -4.219   3.164  26.006  0.00  0.00    -0.142 NA
BRANCH  20  21
ATOM     21  C   UNL     1      -4.840   2.742  25.665  0.00  0.00    +0.079 A 
ATOM     22  C   UNL     1      -5.608   3.043  25.693  0.00  0.00    +0.017 A 
ATOM     23  C   UNL     1      -6.230   2.620  25.352  0.00  0.00    +0.004 A 
ATOM     24  C   UNL     1      -6.083   1.896  24.984  0.00  0.00    +0.030 A 
ATOM     25  C   UNL     1      -5.315   1.595  24.957  0.00  0.00    +0.141 A 
ATOM     26  F   UNL     1      -5.169   0.871  24.588  0.00  0.00    -0.204 F 
ATOM     27  C   UNL     1      -4.694   2.017  25.297  0.00  0.00    +0.046 A 
ENDBRANCH  20  21
ENDBRANCH  17  18
ENDBRANCH  16  17
TORSDOF 6
ENDMDL
MODEL 4
REMARK VINA RESULT:     -10.0      2.256      5.881
REMARK  Name = 
REMARK  6 active torsions:
REMARK  status: ('A' for Active; 'I' for Inactive)
REMARK    1  A    between atoms: O_2  and  C_3
REMARK    2  A    between atoms: C_6  and  N_9
REMARK    3  A    between atoms: C_13  and  C_14
REMARK    4  A    between atoms: C_16  and  O_17
REMARK    5  A    between atoms: O_17  and  C_18
REMARK    6  A    between atoms: N_20  and  C_21
REMARK                            x       y       z     vdW  Elec       q    Type
REMARK                         _______ _______ _______ _____ _____    ______ ____
ROOT
ATOM     14  C   UNL     1      -0.998   1.120  24.943  0.00  0.00    +0.050 C 
ATOM     15  C   UNL     1      -1.219   0.380  25.231  0.00  0.00    +0.057 C 
ATOM     16  C   UNL     1      -0.739  -0.187  24.872  0.00  0.00    +0.193 C 
ATOM     28  C   UNL     1      -0.222   0.203  24.362  0.00  0.00    +0.012 C 
ATOM     29  C   UNL     1      -0.382   1.011  24.405  0.00  0.00    -0.023 C 
ENDROOT
BRANCH  14  13
ATOM      9  N   UNL     1      -2.213   2.835  25.324  0.00  0.00    -0.234 N 
ATOM     10  N   UNL     1      -1.490   3.078  25.638  0.00  0.00    -0.170 NA
ATOM     11  C   UNL     1      -0.947   2.465  25.533  0.00  0.00    +0.077 A 
ATOM     12  C   UNL     1      -0.156   2.474  25.767  0.00  0.00    +0.054 C 
ATOM     13  C   UNL     1      -1.335   1.843  25.155  0.00  0.00    +0.011 A 
ATOM     30  C   UNL     1      -2.117   2.071  25.025  0.00  0.00    +0.058 A 
ATOM     31  C   UNL     1      -2.700   1.616  24.661  0.00  0.00    +0.052 C 
BRANCH   9   6
ATOM      3  C   UNL     1      -4.302   4.159  25.283  0.00  0.00    +0.139 A 
ATOM      4  C   UNL     1      -3.897   4.008  24.582  0.00  0.00    +0.038 A 
ATOM      5  C   UNL     1      -3.200   3.566  24.595  0.00  0.00    +0.022 A 
ATOM      6  C   UNL     1      -2.909   3.276  25.310  0.00  0.00    +0.083 A 
ATOM      7  C   UNL     1      -3.315   3.427  26.013  0.00  0.00    +0.022 A 
ATOM      8  C   UNL     1      -4.012   3.869  25.999  0.00  0.00    +0.038 A 
BRANCH   3   2
ATOM      1  C   UNL     1      -5.719   4.242  25.456  0.00  0.00    +0.252 C 
ATOM      2  O   UNL     1      -5.000   4.601  25.270  0.00  0.00    -0.471 OA
ENDBRANCH   3   2
ENDBRANCH   9   6
ENDBRANCH  14  13
BRANCH  16  17
ATOM     17  O   UNL     1      -0.771  -1.002  25.001  0.00  0.00    -0.432 OA
BRANCH  17  18
ATOM     18  C   UNL     1      -1.384  -1.448  24.674  0.00  0.00    +0.426 C 
ATOM     19  O   UNL     1      -1.336  -1.700  23.890  0.00  0.00    -0.224 OA
ATOM     20  N   UNL     1      -2.043  -1.640  25.130  0.00  0.00    -0.142 NA
BRANCH  20  21
ATOM     21  C   UNL     1      -2.655  -2.086  24.803  0.00  0.00    +0.079 A 
ATOM     22  C   UNL     1      -2.601  -2.909  24.782  0.00  0.00    +0.017 A 
ATOM     23  C   UNL     1      -3.215  -3.355  24.454  0.00  0.00    +0.004 A 
ATOM     24  C   UNL     1      -3.881  -2.976  24.149  0.00  0.00    +0.030 A 
ATOM     25  C   UNL     1      -3.935  -2.153  24.171  0.00  0.00    +0.141 A 
ATOM     26  F   UNL     1      -4.602  -1.775  23.865  0.00  0.00    -0.204 F 
ATOM     27  C   UNL     1      -3.323  -1.708  24.497  0.00  0.00    +0.046 A 
ENDBRANCH  20  21
ENDBRANCH  17  18
ENDBRANCH  16  17
TORSDOF 6
ENDMDL
MODEL 5
REMARK VINA RESULT:      -9.8      2.407      4.648
REMARK  Name = 
REMARK  6 active torsions:
REMARK  status: ('A' for Active; 'I' for Inactive)
REMARK    1  A    between atoms: O_2  and  C_3
REMARK    2  A    between atoms: C_6  and  N_9
REMARK    3  A    between atoms: C_13  and  C_14
REMARK    4  A    between atoms: C_16  and  O_17
REMARK    5  A    between atoms: O_17  and  C_18
REMARK    6  A    between atoms: N_20  and  C_21
REMARK                            x       y       z     vdW  Elec       q    Type
REMARK                         _______ _______ _______ _____ _____    ______ ____
ROOT
ATOM     14  C   UNL     1      -2.897  -1.056  24.772  0.00  0.00    +0.050 C 
ATOM     15  C   UNL     1      -2.246  -1.047  24.266  0.00  0.00    +0.057 C 
ATOM     16  C   UNL     1      -1.687  -1.577  24.561  0.00  0.00    +0.193 C 
ATOM     28  C   UNL     1      -1.994  -1.915  25.249  0.00  0.00    +0.012 C 
ATOM     29  C   UNL     1      -2.741  -1.593  25.379  0.00  0.00    -0.023 C 
ENDROOT
BRANCH  14  13
ATOM      9  N   UNL     1      -4.460   0.399  24.745  0.00  0.00    -0.234 N 
ATOM     10  N   UNL     1      -4.824  -0.233  24.361  0.00  0.00    -0.170 NA
ATOM     11  C   UNL     1      -4.283  -0.856  24.324  0.00  0.00    +0.077 A 
ATOM     12  C   UNL     1      -4.417  -1.596  23.985  0.00  0.00    +0.054 C 
ATOM     13  C   UNL     1      -3.584  -0.607  24.685  0.00  0.00    +0.011 A 
ATOM     30  C   UNL     1      -3.694   0.169  24.945  0.00  0.00    +0.058 A 
ATOM     31  C   UNL     1      -3.135   0.631  25.337  0.00  0.00    +0.052 C 
BRANCH   9   6
ATOM      3  C   UNL     1      -5.485   2.602  25.212  0.00  0.00    +0.139 A 
ATOM      4  C   UNL     1      -4.941   2.523  24.598  0.00  0.00    +0.038 A 
ATOM      5  C   UNL     1      -4.599   1.788  24.442  0.00  0.00    +0.022 A 
ATOM      6  C   UNL     1      -4.802   1.133  24.900  0.00  0.00    +0.083 A 
ATOM      7  C   UNL     1      -5.347   1.213  25.515  0.00  0.00    +0.022 A 
ATOM      8  C   UNL     1      -5.689   1.947  25.671  0.00  0.00    +0.038 A 
BRANCH   3   2
ATOM      1  C   UNL     1      -5.366   3.950  25.673  0.00  0.00    +0.252 C 
ATOM      2  O   UNL     1      -5.827   3.337  25.368  0.00  0.00    -0.471 OA
ENDBRANCH   3   2
ENDBRANCH   9   6
ENDBRANCH  14  13
BRANCH  16  17
ATOM     17  O   UNL     1      -0.951  -1.742  24.226  0.00  0.00    -0.432 OA
BRANCH  17  18
ATOM     18  C   UNL     1      -0.372  -1.154  24.192  0.00  0.00    +0.426 C 
ATOM     19  O   UNL     1       0.066  -0.968  24.866  0.00  0.00    -0.224 OA
ATOM     20  N   UNL     1      -0.233  -0.753  23.486  0.00  0.00    -0.142 NA
BRANCH  20  21
ATOM     21  C   UNL     1       0.346  -0.166  23.451  0.00  0.00    +0.079 A 
ATOM     22  C   UNL     1       0.203   0.574  23.786  0.00  0.00    +0.017 A 
ATOM     23  C   UNL     1       0.782   1.162  23.751  0.00  0.00    +0.004 A 
ATOM     24  C   UNL     1       1.503   1.008  23.382  0.00  0.00    +0.030 A 
ATOM     25  C   UNL     1       1.646   0.268  23.047  0.00  0.00    +0.141 A 
ATOM     26  F   UNL     1       2.368   0.114  22.676  0.00  0.00    -0.204 F 
ATOM     27  C   UNL     1       1.068  -0.320  23.081  0.00  0.00    +0.046 A 
ENDBRANCH  20  21
ENDBRANCH  17  18
ENDBRANCH  16  17
TORSDOF 6
ENDMDL
MODEL 6
REMARK VINA RESULT:      -9.7      4.052      5.367
REMARK  Name = 
REMARK  6 active torsions:
REMARK  status: ('A' for Active; 'I' for Inactive)
REMARK    1  A    between atoms: O_2  and  C_3
REMARK    2  A    between atoms: C_6  and  N_9
REMARK    3  A    between atoms: C_13  and  C_14
REMARK    4  A    between atoms: C_16  and  O_17
REMARK    5  A    between atoms: O_17  and  C_18
REMARK    6  A    between atoms: N_20  and  C_21
REMARK                            x       y       z     vdW  Elec       q    Type
REMARK                         _______ _______ _______ _____ _____    ______ ____
ROOT
ATOM     14  C   UNL     1      -0.619   0.477  24.158  0.00  0.00    +0.050 C 
ATOM     15  C   UNL     1      -0.147   0.704  23.522  0.00  0.00    +0.057 C 
ATOM     16  C   UNL     1       0.378   0.089  23.361  0.00  0.00    +0.193 C 
ATOM     28  C   UNL     1       0.231  -0.519  23.899  0.00  0.00    +0.012 C 
ATOM     29  C   UNL     1      -0.386  -0.279  24.391  0.00  0.00    -0.023 C 
ENDROOT
BRANCH  14  13
ATOM      9  N   UNL     1      -2.415   1.466  24.758  0.00  0.00    -0.234 N 
ATOM     10  N   UNL     1      -1.875   1.771  25.302  0.00  0.00    -0.170 NA
ATOM     11  C   UNL     1      -1.137   1.437  25.144  0.00  0.00    +0.077 A 
ATOM     12  C   UNL     1      -0.437   1.589  25.555  0.00  0.00    +0.054 C 
ATOM     13  C   UNL     1      -1.220   0.926  24.502  0.00  0.00    +0.011 A 
ATOM     30  C   UNL     1      -2.010   0.944  24.263  0.00  0.00    +0.058 A 
ATOM     31  C   UNL     1      -2.337   0.514  23.640  0.00  0.00    +0.052 C 
BRANCH   9   6
ATOM      3  C   UNL     1      -4.823   2.018  24.633  0.00  0.00    +0.139 A 
ATOM      4  C   UNL     1      -4.263   2.544  24.333  0.00  0.00    +0.038 A 
ATOM      5  C   UNL     1      -3.460   2.360  24.375  0.00  0.00    +0.022 A 
ATOM      6  C   UNL     1      -3.217   1.650  24.717  0.00  0.00    +0.083 A 
ATOM      7  C   UNL     1      -3.777   1.123  25.017  0.00  0.00    +0.022 A 
ATOM      8  C   UNL     1      -4.581   1.307  24.975  0.00  0.00    +0.038 A 
BRANCH   3   2
ATOM      1  C   UNL     1      -6.149   1.899  25.153  0.00  0.00    +0.252 C 
ATOM      2  O   UNL     1      -5.627   2.202  24.591  0.00  0.00    -0.471 OA
ENDBRANCH   3   2
ENDBRANCH   9   6
ENDBRANCH  14  13
BRANCH  16  17
ATOM     17  O   UNL     1       0.951   0.083  22.767  0.00  0.00    -0.432 OA
BRANCH  17  18
ATOM     18  C   UNL     1       1.731   0.289  22.944  0.00  0.00    +0.426 C 
ATOM     19  O   UNL     1       1.885   0.891  23.486  0.00  0.00    -0.224 OA
ATOM     20  N   UNL     1       2.354  -0.107  22.578  0.00  0.00    -0.142 NA
BRANCH  20  21
ATOM     21  C   UNL     1       3.134   0.098  22.754  0.00  0.00    +0.079 A 
ATOM     22  C   UNL     1       3.437   0.822  22.501  0.00  0.00    +0.017 A 
ATOM     23  C   UNL     1       4.217   1.027  22.677  0.00  0.00    +0.004 A 
ATOM     24  C   UNL     1       4.693   0.507  23.106  0.00  0.00    +0.030 A 
ATOM     25  C   UNL     1       4.389  -0.217  23.359  0.00  0.00    +0.141 A 
ATOM     26  F   UNL     1       4.866  -0.737  23.789  0.00  0.00    -0.204 F 
ATOM     27  C   UNL     1       3.610  -0.422  23.184  0.00  0.00    +0.046 A 
ENDBRANCH  20  21
ENDBRANCH  17  18
ENDBRANCH  16  17
TORSDOF 6
ENDMDL
MODEL 7
REMARK VINA RESULT:      -9.6      2.175      3.696
REMARK  Name = 
REMARK  6 active torsions:
REMARK  status: ('A' for Active; 'I' for Inactive)
REMARK    1  A    between atoms: O_2  and  C_3
REMARK    2  A    between atoms: C_6  and  N_9
REMARK    3  A    between atoms: C_13  and  C_14
REMARK    4  A    between atoms: C_16  and  O_17
REMARK    5  A    between atoms: O_17  and  C_18
REMARK    6  A    between atoms: N_20  and  C_21
REMARK                            x       y       z     vdW  Elec       q    Type
REMARK                         _______ _______ _______ _____ _____    ______ ____
ROOT
ATOM     14  C   UNL     1      -0.982   2.349  25.167  0.00  0.00    +0.050 C 
ATOM     15  C   UNL     1      -1.649   2.761  24.913  0.00  0.00    +0.057 C 
ATOM     16  C   UNL     1      -1.673   3.480  25.317  0.00  0.00    +0.193 C 
ATOM     28  C   UNL     1      -1.020   3.512  25.820  0.00  0.00    +0.012 C 
ATOM     29  C   UNL     1      -0.593   2.813  25.727  0.00  0.00    -0.023 C 
ENDROOT
BRANCH  14  13
ATOM      9  N   UNL     1      -0.711   0.287  24.681  0.00  0.00    -0.234 N 
ATOM     10  N   UNL     1      -0.046   0.623  24.327  0.00  0.00    -0.170 NA
ATOM     11  C   UNL     1      -0.067   1.436  24.465  0.00  0.00    +0.077 A 
ATOM     12  C   UNL     1       0.492   1.987  24.209  0.00  0.00    +0.054 C 
ATOM     13  C   UNL     1      -0.744   1.603  24.906  0.00  0.00    +0.011 A 
ATOM     30  C   UNL     1      -1.142   0.892  25.040  0.00  0.00    +0.058 A 
ATOM     31  C   UNL     1      -1.847   0.804  25.457  0.00  0.00    +0.052 C 
BRANCH   9   6
ATOM      3  C   UNL     1      -1.306  -2.115  24.674  0.00  0.00    +0.139 A 
ATOM      4  C   UNL     1      -1.589  -1.618  24.080  0.00  0.00    +0.038 A 
ATOM      5  C   UNL     1      -1.390  -0.817  24.082  0.00  0.00    +0.022 A 
ATOM      6  C   UNL     1      -0.909  -0.513  24.679  0.00  0.00    +0.083 A 
ATOM      7  C   UNL     1      -0.626  -1.011  25.274  0.00  0.00    +0.022 A 
ATOM      8  C   UNL     1      -0.824  -1.811  25.271  0.00  0.00    +0.038 A 
BRANCH   3   2
ATOM      1  C   UNL     1      -2.285  -3.147  24.532  0.00  0.00    +0.252 C 
ATOM      2  O   UNL     1      -1.505  -2.916  24.671  0.00  0.00    -0.471 OA
ENDBRANCH   3   2
ENDBRANCH   9   6
ENDBRANCH  14  13
BRANCH  16  17
ATOM     17  O   UNL     1      -2.249   4.065  25.232  0.00  0.00    -0.432 OA
BRANCH  17  18
ATOM     18  C   UNL     1      -3.024   3.919  25.475  0.00  0.00    +0.426 C 
ATOM     19  O   UNL     1      -3.217   3.943  26.276  0.00  0.00    -0.224 OA
ATOM     20  N   UNL     1      -3.606   3.749  24.916  0.00  0.00    -0.142 NA
BRANCH  20  21
ATOM     21  C   UNL     1      -4.381   3.603  25.157  0.00  0.00    +0.079 A 
ATOM     22  C   UNL     1      -4.873   4.231  25.368  0.00  0.00    +0.017 A 
ATOM     23  C   UNL     1      -5.649   4.084  25.609  0.00  0.00    +0.004 A 
ATOM     24  C   UNL     1      -5.931   3.310  25.640  0.00  0.00    +0.030 A 
ATOM     25  C   UNL     1      -5.439   2.682  25.429  0.00  0.00    +0.141 A 
ATOM     26  F   UNL     1      -5.722   1.907  25.460  0.00  0.00    -0.204 F 
ATOM     27  C   UNL     1      -4.664   2.828  25.188  0.00  0.00    +0.046 A 
ENDBRANCH  20  21
ENDBRANCH  17  18
ENDBRANCH  16  17
TORSDOF 6
ENDMDL
MODEL 8
REMARK VINA RESULT:      -9.5      2.942      4.243
REMARK  Name = 
REMARK  6 active torsions:
REMARK  status: ('A' for Active; 'I' for Inactive)
REMARK    1  A    between atoms: O_2  and  C_3
REMARK    2  A    between atoms: C_6  and  N_9
REMARK    3  A    between atoms: C_13  and  C_14
REMARK    4  A    between atoms: C_16  and  O_17
REMARK    5  A    between atoms: O_17  and  C_18
REMARK    6  A    between atoms: N_20  and  C_21
REMARK                            x       y       z     vdW  Elec       q    Type
REMARK                         _______ _______ _______ _____ _____    ______ ____
ROOT
ATOM     14  C   UNL     1      -3.049  -0.409  24.621  0.00  0.00    +0.050 C 
ATOM     15  C   UNL     1      -3.435   0.139  25.102  0.00  0.00    +0.057 C 
ATOM     16  C   UNL     1      -4.245   0.076  24.960  0.00  0.00    +0.193 C 
ATOM     28  C   UNL     1      -4.360  -0.511  24.392  0.00  0.00    +0.012 C 
ATOM     29  C   UNL     1      -3.620  -0.810  24.182  0.00  0.00    -0.023 C 
ENDROOT
BRANCH  14  13
ATOM      9  N   UNL     1      -0.940  -0.398  24.282  0.00  0.00    -0.234 N 
ATOM     10  N   UNL     1      -1.019  -1.052  24.778  0.00  0.00    -0.170 NA
ATOM     11  C   UNL     1      -1.818  -1.136  24.965  0.00  0.00    +0.077 A 
ATOM     12  C   UNL     1      -2.145  -1.721  25.448  0.00  0.00    +0.054 C 
ATOM     13  C   UNL     1      -2.234  -0.533  24.585  0.00  0.00    +0.011 A 
ATOM     30  C   UNL     1      -1.691  -0.076  24.163  0.00  0.00    +0.058 A 
ATOM     31  C   UNL     1      -1.869   0.584  23.703  0.00  0.00    +0.052 C 
BRANCH   9   6
ATOM      3  C   UNL     1       1.175   0.454  23.321  0.00  0.00    +0.139 A 
ATOM      4  C   UNL     1       0.783   0.887  23.903  0.00  0.00    +0.038 A 
ATOM      5  C   UNL     1       0.077   0.603  24.223  0.00  0.00    +0.022 A 
ATOM      6  C   UNL     1      -0.236  -0.114  23.962  0.00  0.00    +0.083 A 
ATOM      7  C   UNL     1       0.158  -0.547  23.380  0.00  0.00    +0.022 A 
ATOM      8  C   UNL     1       0.863  -0.263  23.059  0.00  0.00    +0.038 A 
BRANCH   3   2
ATOM      1  C   UNL     1       2.428   0.212  22.678  0.00  0.00    +0.252 C 
ATOM      2  O   UNL     1       1.881   0.739  23.001  0.00  0.00    -0.471 OA
ENDBRANCH   3   2
ENDBRANCH   9   6
ENDBRANCH  14  13
BRANCH  16  17
ATOM     17  O   UNL     1      -4.837   0.522  25.323  0.00  0.00    -0.432 OA
BRANCH  17  18
ATOM     18  C   UNL     1      -4.913   1.326  25.151  0.00  0.00    +0.426 C 
ATOM     19  O   UNL     1      -5.174   1.564  24.406  0.00  0.00    -0.224 OA
ATOM     20  N   UNL     1      -4.728   1.889  25.723  0.00  0.00    -0.142 NA
BRANCH  20  21
ATOM     21  C   UNL     1      -4.804   2.692  25.552  0.00  0.00    +0.079 A 
ATOM     22  C   UNL     1      -4.161   3.113  25.251  0.00  0.00    +0.017 A 
ATOM     23  C   UNL     1      -4.238   3.917  25.080  0.00  0.00    +0.004 A 
ATOM     24  C   UNL     1      -4.957   4.299  25.209  0.00  0.00    +0.030 A 
ATOM     25  C   UNL     1      -5.600   3.878  25.510  0.00  0.00    +0.141 A 
ATOM     26  F   UNL     1      -6.320   4.261  25.640  0.00  0.00    -0.204 F 
ATOM     27  C   UNL     1      -5.524   3.075  25.682  0.00  0.00    +0.046 A 
ENDBRANCH  20  21
ENDBRANCH  17  18
ENDBRANCH  16  17
TORSDOF 6
ENDMDL
MODEL 9
REMARK VINA RESULT:      -9.4      2.174      3.102
REMARK  Name = 
REMARK  6 active torsions:
REMARK  status: ('A' for Active; 'I' for Inactive)
REMARK    1  A    between atoms: O_2  and  C_3
REMARK    2  A    between atoms: C_6  and  N_9
REMARK    3  A    between atoms: C_13  and  C_14
REMARK    4  A    between atoms: C_16  and  O_17
REMARK    5  A    between atoms: O_17  and  C_18
REMARK    6  A    between atoms: N_20  and  C_21
REMARK                            x       y       z     vdW  Elec       q    Type
REMARK                         _______ _______ _______ _____ _____    ______ ____
ROOT
ATOM     14  C   UNL     1      -0.690   0.401  24.755  0.00  0.00    +0.050 C 
ATOM     15  C   UNL     1      -0.654   1.161  25.072  0.00  0.00    +0.057 C 
ATOM     16  C   UNL     1      -0.033   1.561  24.706  0.00  0.00    +0.193 C 
ATOM     28  C   UNL     1       0.316   1.048  24.161  0.00  0.00    +0.012 C 
ATOM     29  C   UNL     1      -0.091   0.331  24.192  0.00  0.00    -0.023 C 
ENDROOT
BRANCH  14  13
ATOM      9  N   UNL     1      -2.241  -1.059  24.914  0.00  0.00    -0.234 N 
ATOM     10  N   UNL     1      -1.885  -1.123  25.655  0.00  0.00    -0.170 NA
ATOM     11  C   UNL     1      -1.261  -0.584  25.686  0.00  0.00    +0.077 A 
ATOM     12  C   UNL     1      -0.755  -0.463  26.327  0.00  0.00    +0.054 C 
ATOM     13  C   UNL     1      -1.231  -0.186  24.963  0.00  0.00    +0.011 A 
ATOM     30  C   UNL     1      -1.837  -0.480  24.486  0.00  0.00    +0.058 A 
ATOM     31  C   UNL     1      -2.008  -0.238  23.717  0.00  0.00    +0.052 C 
BRANCH   9   6
ATOM      3  C   UNL     1      -4.179  -2.371  24.113  0.00  0.00    +0.139 A 
ATOM      4  C   UNL     1      -4.234  -1.551  24.174  0.00  0.00    +0.038 A 
ATOM      5  C   UNL     1      -3.588  -1.113  24.442  0.00  0.00    +0.022 A 
ATOM      6  C   UNL     1      -2.886  -1.496  24.647  0.00  0.00    +0.083 A 
ATOM      7  C   UNL     1      -2.832  -2.318  24.585  0.00  0.00    +0.022 A 
ATOM      8  C   UNL     1      -3.478  -2.755  24.318  0.00  0.00    +0.038 A 
BRANCH   3   2
ATOM      1  C   UNL     1      -4.856  -3.063  23.061  0.00  0.00    +0.252 C 
ATOM      2  O   UNL     1      -4.826  -2.809  23.845  0.00  0.00    -0.471 OA
ENDBRANCH   3   2
ENDBRANCH   9   6
ENDBRANCH  14  13
BRANCH  16  17
ATOM     17  O   UNL     1       0.200   2.338  24.857  0.00  0.00    -0.432 OA
BRANCH  17  18
ATOM     18  C   UNL     1      -0.348   2.953  24.797  0.00  0.00    +0.426 C 
ATOM     19  O   UNL     1      -0.732   3.094  24.081  0.00  0.00    -0.224 OA
ATOM     20  N   UNL     1      -0.511   3.425  25.453  0.00  0.00    -0.142 NA
BRANCH  20  21
ATOM     21  C   UNL     1      -1.058   4.039  25.394  0.00  0.00    +0.079 A 
ATOM     22  C   UNL     1      -0.843   4.751  25.037  0.00  0.00    +0.017 A 
ATOM     23  C   UNL     1      -1.392   5.365  24.978  0.00  0.00    +0.004 A 
ATOM     24  C   UNL     1      -2.154   5.266  25.276  0.00  0.00    +0.030 A 
ATOM     25  C   UNL     1      -2.370   4.554  25.632  0.00  0.00    +0.141 A 
ATOM     26  F   UNL     1      -3.133   4.456  25.930  0.00  0.00    -0.204 F 
ATOM     27  C   UNL     1      -1.822   3.940  25.692  0.00  0.00    +0.046 A 
ENDBRANCH  20  21
ENDBRANCH  17  18
ENDBRANCH  16  17
TORSDOF 6
ENDMDL
