MODEL 1
REMARK VINA RESULT:     -12.0      0.000      0.000
REMARK  Name = 
REMARK  9 active torsions:
REMARK  status: ('A' for Active; 'I' for Inactive)
REMARK    1  A    between atoms: O_2  and  C_3
REMARK    2  A    between atoms: C_6  and  C_7
REMARK    3  A    between atoms: C_7  and  N_8
REMARK    4  A    between atoms: C_9  and  C_11
REMARK    5  A    between atoms: C_11  and  C_12
REMARK    6  A    between atoms: C_12  and  C_13
REMARK    7  A    between atoms: C_20  and  N_23
REMARK    8  A    between atoms: N_23  and  C_24
REMARK    9  A    between atoms: C_24  and  C_25
REMARK                            x       y       z     vdW  Elec       q    Type
REMARK                         _______ _______ _______ _____ _____    ______ ____
ROOT
ATOM     13  C   UNL     1      -4.206   3.205  25.163  0.00  0.00    +0.080 C 
ATOM     14  C   UNL     1      -4.624   3.826  25.509  0.00  0.00    +0.131 C 
ATOM     15  N   UNL     1      -5.359   3.686  25.856  0.00  0.00    -0.203 NA
ATOM     16  C   UNL     1      -5.676   2.924  25.856  0.00  0.00    +0.256 C 
ATOM     17  O   UNL     1      -6.411   2.784  26.203  0.00  0.00    -0.272 OA
ATOM     18  C   UNL     1      -5.258   2.303  25.510  0.00  0.00    +0.138 C 
ATOM     19  C   UNL     1      -5.430   1.500  25.427  0.00  0.00    +0.044 C 
ATOM     20  C   UNL     1      -4.800   1.145  25.029  0.00  0.00    +0.091 C 
ATOM     21  C   UNL     1      -4.240   1.728  24.866  0.00  0.00    +0.090 C 
ATOM     22  N   UNL     1      -4.523   2.444  25.163  0.00  0.00    -0.265 NA
ENDROOT
BRANCH  13  12
ATOM     12  C   UNL     1      -3.470   3.346  24.816  0.00  0.00    +0.027 C 
BRANCH  12  11
ATOM     11  C   UNL     1      -2.864   3.687  25.258  0.00  0.00    +0.088 C 
BRANCH  11   9
ATOM      8  N   UNL     1      -1.766   2.819  24.969  0.00  0.00    -0.201 NA
ATOM      9  C   UNL     1      -2.078   3.580  25.032  0.00  0.00    +0.242 C 
ATOM     10  O   UNL     1      -1.604   4.235  24.868  0.00  0.00    -0.273 OA
BRANCH   8   7
ATOM      7  C   UNL     1      -0.980   2.712  24.742  0.00  0.00    +0.141 C 
BRANCH   7   6
ATOM      3  C   UNL     1      -0.157   0.454  24.151  0.00  0.00    +0.139 A 
ATOM      4  C   UNL     1      -0.221   0.676  24.944  0.00  0.00    +0.037 A 
ATOM      5  C   UNL     1      -0.495   1.428  25.141  0.00  0.00    +0.001 A 
ATOM      6  C   UNL     1      -0.706   1.959  24.545  0.00  0.00    -0.000 A 
ATOM     32  C   UNL     1      -0.641   1.738  23.754  0.00  0.00    +0.001 A 
ATOM     33  C   UNL     1      -0.367   0.985  23.556  0.00  0.00    +0.037 A 
BRANCH   3   2
ATOM      1  C   UNL     1      -0.227  -0.966  24.300  0.00  0.00    +0.252 C 
ATOM      2  O   UNL     1       0.117  -0.299  23.955  0.00  0.00    -0.471 OA
ENDBRANCH   3   2
ENDBRANCH   7   6
ENDBRANCH   8   7
ENDBRANCH  11   9
ENDBRANCH  12  11
ENDBRANCH  13  12
BRANCH  20  23
ATOM     23  N   UNL     1      -4.742   0.346  24.830  0.00  0.00    -0.213 NA
BRANCH  23  24
ATOM     24  C   UNL     1      -4.001  -0.000  24.723  0.00  0.00    +0.115 C 
BRANCH  24  25
ATOM     25  C   UNL     1      -3.938  -0.818  24.631  0.00  0.00    -0.005 A 
ATOM     26  C   UNL     1      -4.185  -1.173  23.928  0.00  0.00    -0.001 A 
ATOM     27  C   UNL     1      -4.122  -1.990  23.834  0.00  0.00    +0.029 A 
ATOM     28  C   UNL     1      -3.813  -2.452  24.444  0.00  0.00    +0.140 A 
ATOM     29  F   UNL     1      -3.750  -3.270  24.350  0.00  0.00    -0.204 F 
ATOM     30  C   UNL     1      -3.566  -2.097  25.147  0.00  0.00    +0.029 A 
ATOM     31  C   UNL     1      -3.629  -1.280  25.239  0.00  0.00    -0.001 A 
ENDBRANCH  24  25
ENDBRANCH  23  24
ENDBRANCH  20  23
TORSDOF 9
ENDMDL
MODEL 2
REMARK VINA RESULT:     -11.8      1.149      4.158
REMARK  Name = 
REMARK  9 active torsions:
REMARK  status: ('A' for Active; 'I' for Inactive)
REMARK    1  A    between atoms: O_2  and  C_3
REMARK    2  A    between atoms: C_6  and  C_7
REMARK    3  A    between atoms: C_7  and  N_8
REMARK    4  A    between atoms: C_9  and  C_11
REMARK    5  A    between atoms: C_11  and  C_12
REMARK    6  A    between atoms: C_12  and  C_13
REMARK    7  A    between atoms: C_20  and  N_23
REMARK    8  A    between atoms: N_23  and  C_24
REMARK    9  A    between atoms: C_24  and  C_25
REMARK                            x       y       z     vdW  Elec       q    Type
REMARK                         _______ _______ _______ _____ _____    ______ ____
ROOT
ATOM     13  C   UNL     1      -0.474   1.961  24.818  0.00  0.00    +0.080 C 
ATOM     14  C   UNL     1       0.221   2.272  24.500  0.00  0.00    +0.131 C 
ATOM     15  N   UNL     1       0.722   1.792  24.054  0.00  0.00    -0.203 NA
ATOM     16  C   UNL     1       0.526   1.000  23.924  0.00  0.00    +0.256 C 
ATOM     17  O   UNL     1       1.027   0.520  23.478  0.00  0.00    -0.272 OA
ATOM     18  C   UNL     1      -0.169   0.689  24.242  0.00  0.00    +0.138 C 
ATOM     19  C   UNL     1      -0.504  -0.064  24.207  0.00  0.00    +0.044 C 
ATOM     20  C   UNL     1      -1.211  -0.049  24.632  0.00  0.00    +0.091 C 
ATOM     21  C   UNL     1      -1.313   0.714  24.929  0.00  0.00    +0.090 C 
ATOM     22  N   UNL     1      -0.669   1.171  24.688  0.00  0.00    -0.265 NA
ENDROOT
BRANCH  13  12
ATOM     12  C   UNL     1      -0.974   2.442  25.264  0.00  0.00    +0.027 C 
BRANCH  12  11
ATOM     11  C   UNL     1      -1.139   3.211  25.015  0.00  0.00    +0.088 C 
BRANCH  11   9
ATOM      8  N   UNL     1      -2.560   3.365  25.033  0.00  0.00    -0.201 NA
ATOM      9  C   UNL     1      -1.812   3.599  25.292  0.00  0.00    +0.242 C 
ATOM     10  O   UNL     1      -1.737   4.222  25.827  0.00  0.00    -0.273 OA
BRANCH   8   7
ATOM      7  C   UNL     1      -3.233   3.753  25.310  0.00  0.00    +0.141 C 
BRANCH   7   6
ATOM      3  C   UNL     1      -5.450   2.668  25.131  0.00  0.00    +0.139 A 
ATOM      4  C   UNL     1      -4.925   2.641  24.494  0.00  0.00    +0.037 A 
ATOM      5  C   UNL     1      -4.186   3.003  24.555  0.00  0.00    +0.001 A 
ATOM      6  C   UNL     1      -3.972   3.392  25.250  0.00  0.00    -0.000 A 
ATOM     32  C   UNL     1      -4.496   3.418  25.885  0.00  0.00    +0.001 A 
ATOM     33  C   UNL     1      -5.236   3.057  25.826  0.00  0.00    +0.037 A 
BRANCH   3   2
ATOM      1  C   UNL     1      -6.243   1.483  25.040  0.00  0.00    +0.252 C 
ATOM      2  O   UNL     1      -6.189   2.307  25.070  0.00  0.00    -0.471 OA
ENDBRANCH   3   2
ENDBRANCH   7   6
ENDBRANCH   8   7
ENDBRANCH  11   9
ENDBRANCH  12  11
ENDBRANCH  13  12
BRANCH  20  23
ATOM     23  N   UNL     1      -1.724  -0.685  24.741  0.00  0.00    -0.213 NA
BRANCH  23  24
ATOM     24  C   UNL     1      -2.539  -0.558  24.766  0.00  0.00    +0.115 C 
BRANCH  24  25
ATOM     25  C   UNL     1      -3.057  -1.167  24.561  0.00  0.00    -0.005 A 
ATOM     26  C   UNL     1      -3.721  -1.005  24.098  0.00  0.00    -0.001 A 
ATOM     27  C   UNL     1      -4.239  -1.612  23.892  0.00  0.00    +0.029 A 
ATOM     28  C   UNL     1      -4.094  -2.383  24.150  0.00  0.00    +0.140 A 
ATOM     29  F   UNL     1      -4.613  -2.991  23.944  0.00  0.00    -0.204 F 
ATOM     30  C   UNL     1      -3.431  -2.545  24.613  0.00  0.00    +0.029 A 
ATOM     31  C   UNL     1      -2.913  -1.937  24.818  0.00  0.00    -0.001 A 
ENDBRANCH  24  25
ENDBRANCH  23  24
ENDBRANCH  20  23
TORSDOF 9
ENDMDL
MODEL 3
REMARK VINA RESULT:     -11.8      1.983      4.277
REMARK  Name = 
REMARK  9 active torsions:
REMARK  status: ('A' for Active; 'I' for Inactive)
REMARK    1  A    between atoms: O_2  and  C_3
REMARK    2  A    between atoms: C_6  and  C_7
REMARK    3  A    between atoms: C_7  and  N_8
REMARK    4  A    between atoms: C_9  and  C_11
REMARK    5  A    between atoms: C_11  and  C_12
REMARK    6  A    between atoms: C_12  and  C_13
REMARK    7  A    between atoms: C_20  and  N_23
REMARK    8  A    between atoms: N_23  and  C_24
REMARK    9  A    between atoms: C_24  and  C_25
REMARK                            x       y       z     vdW  Elec       q    Type
REMARK                         _______ _______ _______ _____ _____    ______ ____
ROOT
ATOM     13  C   UNL     1      -1.931  -1.190  24.389  0.00  0.00    +0.080 C 
ATOM     14  C   UNL     1      -1.710  -1.981  24.457  0.00  0.00    +0.131 C 
ATOM     15  N   UNL     1      -2.246  -2.537  24.748  0.00  0.00    -0.203 NA
ATOM     16  C   UNL     1      -3.005  -2.299  24.970  0.00  0.00    +0.256 C 
ATOM     17  O   UNL     1      -3.541  -2.855  25.261  0.00  0.00    -0.272 OA
ATOM     18  C   UNL     1      -3.226  -1.508  24.903  0.00  0.00    +0.138 C 
ATOM     19  C   UNL     1      -3.930  -1.114  25.077  0.00  0.00    +0.044 C 
ATOM     20  C   UNL     1      -3.828  -0.316  24.895  0.00  0.00    +0.091 C 
ATOM     21  C   UNL     1      -3.061  -0.217  24.607  0.00  0.00    +0.090 C 
ATOM     22  N   UNL     1      -2.689  -0.953  24.612  0.00  0.00    -0.265 NA
ENDROOT
BRANCH  13  12
ATOM     12  C   UNL     1      -1.394  -0.635  24.098  0.00  0.00    +0.027 C 
BRANCH  12  11
ATOM     11  C   UNL     1      -0.673  -0.518  24.482  0.00  0.00    +0.088 C 
BRANCH  11   9
ATOM      8  N   UNL     1      -0.425   0.866  24.741  0.00  0.00    -0.201 NA
ATOM      9  C   UNL     1      -0.238   0.168  24.341  0.00  0.00    +0.242 C 
ATOM     10  O   UNL     1       0.385   0.158  23.801  0.00  0.00    -0.273 OA
BRANCH   8   7
ATOM      7  C   UNL     1       0.010   1.552  24.601  0.00  0.00    +0.141 C 
BRANCH   7   6
ATOM      3  C   UNL     1      -0.884   3.751  25.303  0.00  0.00    +0.139 A 
ATOM      4  C   UNL     1      -0.682   3.186  25.871  0.00  0.00    +0.037 A 
ATOM      5  C   UNL     1      -0.385   2.454  25.636  0.00  0.00    +0.001 A 
ATOM      6  C   UNL     1      -0.288   2.285  24.835  0.00  0.00    -0.000 A 
ATOM     32  C   UNL     1      -0.489   2.848  24.267  0.00  0.00    +0.001 A 
ATOM     33  C   UNL     1      -0.787   3.582  24.501  0.00  0.00    +0.037 A 
BRANCH   3   2
ATOM      1  C   UNL     1      -1.274   5.087  24.982  0.00  0.00    +0.252 C 
ATOM      2  O   UNL     1      -1.181   4.483  25.537  0.00  0.00    -0.471 OA
ENDBRANCH   3   2
ENDBRANCH   7   6
ENDBRANCH   8   7
ENDBRANCH  11   9
ENDBRANCH  12  11
ENDBRANCH  13  12
BRANCH  20  23
ATOM     23  N   UNL     1      -4.394   0.278  24.984  0.00  0.00    -0.213 NA
BRANCH  23  24
ATOM     24  C   UNL     1      -4.287   1.009  24.617  0.00  0.00    +0.115 C 
BRANCH  24  25
ATOM     25  C   UNL     1      -4.689   1.673  24.898  0.00  0.00    -0.005 A 
ATOM     26  C   UNL     1      -5.496   1.628  25.060  0.00  0.00    -0.001 A 
ATOM     27  C   UNL     1      -5.899   2.291  25.341  0.00  0.00    +0.029 A 
ATOM     28  C   UNL     1      -5.493   3.000  25.458  0.00  0.00    +0.140 A 
ATOM     29  F   UNL     1      -5.895   3.663  25.739  0.00  0.00    -0.204 F 
ATOM     30  C   UNL     1      -4.685   3.045  25.295  0.00  0.00    +0.029 A 
ATOM     31  C   UNL     1      -4.284   2.381  25.015  0.00  0.00    -0.001 A 
ENDBRANCH  24  25
ENDBRANCH  23  24
ENDBRANCH  20  23
TORSDOF 9
ENDMDL
MODEL 4
REMARK VINA RESULT:     -11.7      2.233      5.823
REMARK  Name = 
REMARK  9 active torsions:
REMARK  status: ('A' for Active; 'I' for Inactive)
REMARK    1  A    between atoms: O_2  and  C_3
REMARK    2  A    between atoms: C_6  and  C_7
REMARK    3  A    between atoms: C_7  and  N_8
REMARK    4  A    between atoms: C_9  and  C_11
REMARK    5  A    between atoms: C_11  and  C_12
REMARK    6  A    between atoms: C_12  and  C_13
REMARK    7  A    between atoms: C_20  and  N_23
REMARK    8  A    between atoms: N_23  and  C_24
REMARK    9  A    between atoms: C_24  and  C_25
REMARK                            x       y       z     vdW  Elec       q    Type
REMARK                         _______ _______ _______ _____ _____    ______ ____
ROOT
ATOM     13  C   UNL     1      -1.259  -0.417  24.671  0.00  0.00    +0.080 C 
ATOM     14  C   UNL     1      -0.920  -1.116  24.393  0.00  0.00    +0.131 C 
ATOM     15  N   UNL     1      -0.210  -1.092  23.973  0.00  0.00    -0.203 NA
ATOM     16  C   UNL     1       0.161  -0.368  23.832  0.00  0.00    +0.256 C 
ATOM     17  O   UNL     1       0.871  -0.345  23.413  0.00  0.00    -0.272 OA
ATOM     18  C   UNL     1      -0.178   0.330  24.111  0.00  0.00    +0.138 C 
ATOM     19  C   UNL     1       0.059   1.119  24.056  0.00  0.00    +0.044 C 
ATOM     20  C   UNL     1      -0.505   1.582  24.443  0.00  0.00    +0.091 C 
ATOM     21  C   UNL     1      -1.090   1.079  24.735  0.00  0.00    +0.090 C 
ATOM     22  N   UNL     1      -0.888   0.305  24.530  0.00  0.00    -0.265 NA
ENDROOT
BRANCH  13  12
ATOM     12  C   UNL     1      -1.969  -0.442  25.091  0.00  0.00    +0.027 C 
BRANCH  12  11
ATOM     11  C   UNL     1      -2.625  -0.824  24.769  0.00  0.00    +0.088 C 
BRANCH  11   9
ATOM      8  N   UNL     1      -3.781   0.012  24.858  0.00  0.00    -0.201 NA
ATOM      9  C   UNL     1      -3.378  -0.676  25.072  0.00  0.00    +0.242 C 
ATOM     10  O   UNL     1      -3.729  -1.216  25.588  0.00  0.00    -0.273 OA
BRANCH   8   7
ATOM      7  C   UNL     1      -4.534   0.160  25.160  0.00  0.00    +0.141 C 
BRANCH   7   6
ATOM      3  C   UNL     1      -5.451   2.458  25.129  0.00  0.00    +0.139 A 
ATOM      4  C   UNL     1      -5.698   1.923  25.708  0.00  0.00    +0.037 A 
ATOM      5  C   UNL     1      -5.392   1.157  25.718  0.00  0.00    +0.001 A 
ATOM      6  C   UNL     1      -4.840   0.926  25.150  0.00  0.00    -0.000 A 
ATOM     32  C   UNL     1      -4.594   1.460  24.572  0.00  0.00    +0.001 A 
ATOM     33  C   UNL     1      -4.899   2.227  24.561  0.00  0.00    +0.037 A 
BRANCH   3   2
ATOM      1  C   UNL     1      -5.406   3.814  25.577  0.00  0.00    +0.252 C 
ATOM      2  O   UNL     1      -5.758   3.224  25.119  0.00  0.00    -0.471 OA
ENDBRANCH   3   2
ENDBRANCH   7   6
ENDBRANCH   8   7
ENDBRANCH  11   9
ENDBRANCH  12  11
ENDBRANCH  13  12
BRANCH  20  23
ATOM     23  N   UNL     1      -0.486   2.402  24.522  0.00  0.00    -0.213 NA
BRANCH  23  24
ATOM     24  C   UNL     1      -0.800   2.760  25.195  0.00  0.00    +0.115 C 
BRANCH  24  25
ATOM     25  C   UNL     1      -1.002   3.560  25.181  0.00  0.00    -0.005 A 
ATOM     26  C   UNL     1      -0.489   4.108  24.839  0.00  0.00    -0.001 A 
ATOM     27  C   UNL     1      -0.690   4.908  24.824  0.00  0.00    +0.029 A 
ATOM     28  C   UNL     1      -1.405   5.160  25.152  0.00  0.00    +0.140 A 
ATOM     29  F   UNL     1      -1.606   5.960  25.137  0.00  0.00    -0.204 F 
ATOM     30  C   UNL     1      -1.918   4.611  25.494  0.00  0.00    +0.029 A 
ATOM     31  C   UNL     1      -1.716   3.811  25.508  0.00  0.00    -0.001 A 
ENDBRANCH  24  25
ENDBRANCH  23  24
ENDBRANCH  20  23
TORSDOF 9
ENDMDL
MODEL 5
REMARK VINA RESULT:     -11.2      1.614      4.090
REMARK  Name = 
REMARK  9 active torsions:
REMARK  status: ('A' for Active; 'I' for Inactive)
REMARK    1  A    between atoms: O_2  and  C_3
REMARK    2  A    between atoms: C_6  and  C_7
REMARK    3  A    between atoms: C_7  and  N_8
REMARK    4  A    between atoms: C_9  and  C_11
REMARK    5  A    between atoms: C_11  and  C_12
REMARK    6  A    between atoms: C_12  and  C_13
REMARK    7  A    between atoms: C_20  and  N_23
REMARK    8  A    between atoms: N_23  and  C_24
REMARK    9  A    between atoms: C_24  and  C_25
REMARK                            x       y       z     vdW  Elec       q    Type
REMARK                         _______ _______ _______ _____ _____    ______ ____
ROOT
ATOM     13  C   UNL     1      -3.274   3.230  24.881  0.00  0.00    +0.080 C 
ATOM     14  C   UNL     1      -3.565   3.896  25.272  0.00  0.00    +0.131 C 
ATOM     15  N   UNL     1      -3.047   4.487  25.523  0.00  0.00    -0.203 NA
ATOM     16  C   UNL     1      -2.237   4.411  25.382  0.00  0.00    +0.256 C 
ATOM     17  O   UNL     1      -1.719   5.002  25.632  0.00  0.00    -0.272 OA
ATOM     18  C   UNL     1      -1.946   3.745  24.991  0.00  0.00    +0.138 C 
ATOM     19  C   UNL     1      -1.182   3.521  24.777  0.00  0.00    +0.044 C 
ATOM     20  C   UNL     1      -1.229   2.791  24.394  0.00  0.00    +0.091 C 
ATOM     21  C   UNL     1      -2.021   2.565  24.372  0.00  0.00    +0.090 C 
ATOM     22  N   UNL     1      -2.466   3.155  24.741  0.00  0.00    -0.265 NA
ENDROOT
BRANCH  13  12
ATOM     12  C   UNL     1      -3.794   2.639  24.631  0.00  0.00    +0.027 C 
BRANCH  12  11
ATOM     11  C   UNL     1      -4.310   2.288  25.170  0.00  0.00    +0.088 C 
BRANCH  11   9
ATOM      8  N   UNL     1      -4.301   0.867  25.020  0.00  0.00    -0.201 NA
ATOM      9  C   UNL     1      -4.699   1.588  24.972  0.00  0.00    +0.242 C 
ATOM     10  O   UNL     1      -5.486   1.609  24.727  0.00  0.00    -0.273 OA
BRANCH   8   7
ATOM      7  C   UNL     1      -4.689   0.166  24.822  0.00  0.00    +0.141 C 
BRANCH   7   6
ATOM      3  C   UNL     1      -3.426  -1.957  24.689  0.00  0.00    +0.139 A 
ATOM      4  C   UNL     1      -3.889  -1.711  24.051  0.00  0.00    +0.037 A 
ATOM      5  C   UNL     1      -4.310  -1.004  24.096  0.00  0.00    +0.001 A 
ATOM      6  C   UNL     1      -4.268  -0.541  24.778  0.00  0.00    -0.000 A 
ATOM     32  C   UNL     1      -3.806  -0.786  25.415  0.00  0.00    +0.001 A 
ATOM     33  C   UNL     1      -3.384  -1.494  25.371  0.00  0.00    +0.037 A 
BRANCH   3   2
ATOM      1  C   UNL     1      -2.194  -2.653  24.488  0.00  0.00    +0.252 C 
ATOM      2  O   UNL     1      -3.005  -2.665  24.644  0.00  0.00    -0.471 OA
ENDBRANCH   3   2
ENDBRANCH   7   6
ENDBRANCH   8   7
ENDBRANCH  11   9
ENDBRANCH  12  11
ENDBRANCH  13  12
BRANCH  20  23
ATOM     23  N   UNL     1      -0.593   2.364  24.087  0.00  0.00    -0.213 NA
BRANCH  23  24
ATOM     24  C   UNL     1      -0.362   1.656  24.442  0.00  0.00    +0.115 C 
BRANCH  24  25
ATOM     25  C   UNL     1       0.110   1.121  24.026  0.00  0.00    -0.005 A 
ATOM     26  C   UNL     1      -0.178   0.369  23.849  0.00  0.00    -0.001 A 
ATOM     27  C   UNL     1       0.292  -0.166  23.434  0.00  0.00    +0.029 A 
ATOM     28  C   UNL     1       1.052   0.052  23.195  0.00  0.00    +0.140 A 
ATOM     29  F   UNL     1       1.522  -0.484  22.780  0.00  0.00    -0.204 F 
ATOM     30  C   UNL     1       1.340   0.804  23.372  0.00  0.00    +0.029 A 
ATOM     31  C   UNL     1       0.869   1.339  23.788  0.00  0.00    -0.001 A 
ENDBRANCH  24  25
ENDBRANCH  23  24
ENDBRANCH  20  23
TORSDOF 9
ENDMDL
MODEL 6
REMARK VINA RESULT:     -11.2      2.173      4.209
REMARK  Name = 
REMARK  9 active torsions:
REMARK  status: ('A' for Active; 'I' for Inactive)
REMARK    1  A    between atoms: O_2  and  C_3
REMARK    2  A    between atoms: C_6  and  C_7
REMARK    3  A    between atoms: C_7  and  N_8
REMARK    4  A    between atoms: C_9  and  C_11
REMARK    5  A    between atoms: C_11  and  C_12
REMARK    6  A    between atoms: C_12  and  C_13
REMARK    7  A    between atoms: C_20  and  N_23
REMARK    8  A    between atoms: N_23  and  C_24
REMARK    9  A    between atoms: C_24  and  C_25
REMARK                            x       y       z     vdW  Elec       q    Type
REMARK                         _______ _______ _______ _____ _____    ______ ____
ROOT
ATOM     13  C   UNL     1      -5.070   1.432  25.142  0.00  0.00    +0.080 C 
ATOM     14  C   UNL     1      -5.824   1.299  25.449  0.00  0.00    +0.131 C 
ATOM     15  N   UNL     1      -6.239   1.917  25.806  0.00  0.00    -0.203 NA
ATOM     16  C   UNL     1      -5.899   2.668  25.854  0.00  0.00    +0.256 C 
ATOM     17  O   UNL     1      -6.315   3.285  26.210  0.00  0.00    -0.272 OA
ATOM     18  C   UNL     1      -5.145   2.800  25.547  0.00  0.00    +0.138 C 
ATOM     19  C   UNL     1      -4.673   3.476  25.515  0.00  0.00    +0.044 C 
ATOM     20  C   UNL     1      -3.966   3.275  25.138  0.00  0.00    +0.091 C 
ATOM     21  C   UNL     1      -4.003   2.476  24.938  0.00  0.00    +0.090 C 
ATOM     22  N   UNL     1      -4.731   2.182  25.190  0.00  0.00    -0.265 NA
ENDROOT
BRANCH  13  12
ATOM     12  C   UNL     1      -4.656   0.813  24.786  0.00  0.00    +0.027 C 
BRANCH  12  11
ATOM     11  C   UNL     1      -4.532   0.109  25.196  0.00  0.00    +0.088 C 
BRANCH  11   9
ATOM      8  N   UNL     1      -3.257  -0.494  24.963  0.00  0.00    -0.201 NA
ATOM      9  C   UNL     1      -4.076  -0.490  24.859  0.00  0.00    +0.242 C 
ATOM     10  O   UNL     1      -4.438  -1.085  24.418  0.00  0.00    -0.273 OA
BRANCH   8   7
ATOM      7  C   UNL     1      -2.800  -1.093  24.627  0.00  0.00    +0.141 C 
BRANCH   7   6
ATOM      3  C   UNL     1      -0.365  -0.774  24.329  0.00  0.00    +0.139 A 
ATOM      4  C   UNL     1      -0.876  -0.130  24.262  0.00  0.00    +0.037 A 
ATOM      5  C   UNL     1      -1.688  -0.237  24.361  0.00  0.00    +0.001 A 
ATOM      6  C   UNL     1      -1.989  -0.987  24.527  0.00  0.00    -0.000 A 
ATOM     32  C   UNL     1      -1.478  -1.630  24.594  0.00  0.00    +0.001 A 
ATOM     33  C   UNL     1      -0.665  -1.524  24.495  0.00  0.00    +0.037 A 
BRANCH   3   2
ATOM      1  C   UNL     1       0.738  -0.347  23.526  0.00  0.00    +0.252 C 
ATOM      2  O   UNL     1       0.447  -0.667  24.229  0.00  0.00    -0.471 OA
ENDBRANCH   3   2
ENDBRANCH   7   6
ENDBRANCH   8   7
ENDBRANCH  11   9
ENDBRANCH  12  11
ENDBRANCH  13  12
BRANCH  20  23
ATOM     23  N   UNL     1      -3.336   3.785  24.989  0.00  0.00    -0.213 NA
BRANCH  23  24
ATOM     24  C   UNL     1      -2.669   3.770  25.474  0.00  0.00    +0.115 C 
BRANCH  24  25
ATOM     25  C   UNL     1      -1.994   4.194  25.260  0.00  0.00    -0.005 A 
ATOM     26  C   UNL     1      -2.007   5.019  25.261  0.00  0.00    -0.001 A 
ATOM     27  C   UNL     1      -1.333   5.443  25.047  0.00  0.00    +0.029 A 
ATOM     28  C   UNL     1      -0.644   5.042  24.831  0.00  0.00    +0.140 A 
ATOM     29  F   UNL     1       0.030   5.466  24.617  0.00  0.00    -0.204 F 
ATOM     30  C   UNL     1      -0.631   4.217  24.830  0.00  0.00    +0.029 A 
ATOM     31  C   UNL     1      -1.306   3.793  25.044  0.00  0.00    -0.001 A 
ENDBRANCH  24  25
ENDBRANCH  23  24
ENDBRANCH  20  23
TORSDOF 9
ENDMDL
MODEL 7
REMARK VINA RESULT:     -11.1      1.819      3.907
REMARK  Name = 
REMARK  9 active torsions:
REMARK  status: ('A' for Active; 'I' for Inactive)
REMARK    1  A    between atoms: O_2  and  C_3
REMARK    2  A    between atoms: C_6  and  C_7
REMARK    3  A    between atoms: C_7  and  N_8
REMARK    4  A    between atoms: C_9  and  C_11
REMARK    5  A    between atoms: C_11  and  C_12
REMARK    6  A    between atoms: C_12  and  C_13
REMARK    7  A    between atoms: C_20  and  N_23
REMARK    8  A    between atoms: N_23  and  C_24
REMARK    9  A    between atoms: C_24  and  C_25
REMARK                            x       y       z     vdW  Elec       q    Type
REMARK                         _______ _______ _______ _____ _____    ______ ____
ROOT
ATOM     13  C   UNL     1      -0.836   3.011  24.468  0.00  0.00    +0.080 C 
ATOM     14  C   UNL     1      -0.186   3.508  24.573  0.00  0.00    +0.131 C 
ATOM     15  N   UNL     1      -0.296   4.280  24.841  0.00  0.00    -0.203 NA
ATOM     16  C   UNL     1      -1.057   4.556  25.004  0.00  0.00    +0.256 C 
ATOM     17  O   UNL     1      -1.167   5.328  25.271  0.00  0.00    -0.272 OA
ATOM     18  C   UNL     1      -1.707   4.059  24.898  0.00  0.00    +0.138 C 
ATOM     19  C   UNL     1      -2.515   4.176  25.013  0.00  0.00    +0.044 C 
ATOM     20  C   UNL     1      -2.905   3.475  24.815  0.00  0.00    +0.091 C 
ATOM     21  C   UNL     1      -2.336   2.926  24.579  0.00  0.00    +0.090 C 
ATOM     22  N   UNL     1      -1.596   3.286  24.630  0.00  0.00    -0.265 NA
ENDROOT
BRANCH  13  12
ATOM     12  C   UNL     1      -0.725   2.238  24.200  0.00  0.00    +0.027 C 
BRANCH  12  11
ATOM     11  C   UNL     1      -0.261   1.713  24.634  0.00  0.00    +0.088 C 
BRANCH  11   9
ATOM      8  N   UNL     1      -0.742   0.376  24.776  0.00  0.00    -0.201 NA
ATOM      9  C   UNL     1      -0.230   0.917  24.422  0.00  0.00    +0.242 C 
ATOM     10  O   UNL     1       0.312   0.662  23.856  0.00  0.00    -0.273 OA
BRANCH   8   7
ATOM      7  C   UNL     1      -0.712  -0.421  24.565  0.00  0.00    +0.141 C 
BRANCH   7   6
ATOM      3  C   UNL     1      -2.632  -1.905  25.049  0.00  0.00    +0.139 A 
ATOM      4  C   UNL     1      -2.599  -1.151  25.383  0.00  0.00    +0.037 A 
ATOM      5  C   UNL     1      -1.959  -0.657  25.221  0.00  0.00    +0.001 A 
ATOM      6  C   UNL     1      -1.352  -0.916  24.726  0.00  0.00    -0.000 A 
ATOM     32  C   UNL     1      -1.385  -1.669  24.393  0.00  0.00    +0.001 A 
ATOM     33  C   UNL     1      -2.025  -2.164  24.554  0.00  0.00    +0.037 A 
BRANCH   3   2
ATOM      1  C   UNL     1      -3.639  -2.814  24.598  0.00  0.00    +0.252 C 
ATOM      2  O   UNL     1      -3.273  -2.399  25.211  0.00  0.00    -0.471 OA
ENDBRANCH   3   2
ENDBRANCH   7   6
ENDBRANCH   8   7
ENDBRANCH  11   9
ENDBRANCH  12  11
ENDBRANCH  13  12
BRANCH  20  23
ATOM     23  N   UNL     1      -3.719   3.348  24.849  0.00  0.00    -0.213 NA
BRANCH  23  24
ATOM     24  C   UNL     1      -4.032   2.815  25.395  0.00  0.00    +0.115 C 
BRANCH  24  25
ATOM     25  C   UNL     1      -4.792   2.514  25.288  0.00  0.00    -0.005 A 
ATOM     26  C   UNL     1      -4.900   1.803  24.883  0.00  0.00    -0.001 A 
ATOM     27  C   UNL     1      -5.659   1.500  24.775  0.00  0.00    +0.029 A 
ATOM     28  C   UNL     1      -6.312   1.909  25.072  0.00  0.00    +0.140 A 
ATOM     29  F   UNL     1      -7.072   1.606  24.964  0.00  0.00    -0.204 F 
ATOM     30  C   UNL     1      -6.205   2.619  25.478  0.00  0.00    +0.029 A 
ATOM     31  C   UNL     1      -5.444   2.921  25.585  0.00  0.00    -0.001 A 
ENDBRANCH  24  25
ENDBRANCH  23  24
ENDBRANCH  20  23
TORSDOF 9
ENDMDL
MODEL 8
REMARK VINA RESULT:      -8.4     14.417     16.316
REMARK  Name = 
REMARK  9 active torsions:
REMARK  status: ('A' for Active; 'I' for Inactive)
REMARK    1  A    between atoms: O_2  and  C_3
REMARK    2  A    between atoms: C_6  and  C_7
REMARK    3  A    between atoms: C_7  and  N_8
REMARK    4  A    between atoms: C_9  and  C_11
REMARK    5  A    between atoms: C_11  and  C_12
REMARK    6  A    between atoms: C_12  and  C_13
REMARK    7  A    between atoms: C_20  and  N_23
REMARK    8  A    between atoms: N_23  and  C_24
REMARK    9  A    between atoms: C_24  and  C_25
REMARK                            x       y       z     vdW  Elec       q    Type
REMARK                         _______ _______ _______ _____ _____    ______ ____
ROOT
ATOM     13  C   UNL     1      -2.125 -10.727  14.478  0.00  0.00    +0.080 C 
ATOM     14  C   UNL     1      -1.323 -10.748  14.673  0.00  0.00    +0.131 C 
ATOM     15  N   UNL     1      -1.091 -10.759  15.464  0.00  0.00    -0.203 NA
ATOM     16  C   UNL     1      -1.661 -10.748  16.061  0.00  0.00    +0.256 C 
ATOM     17  O   UNL     1      -1.429 -10.759  16.853  0.00  0.00    -0.272 OA
ATOM     18  C   UNL     1      -2.463 -10.726  15.866  0.00  0.00    +0.138 C 
ATOM     19  C   UNL     1      -3.144 -10.712  16.332  0.00  0.00    +0.044 C 
ATOM     20  C   UNL     1      -3.797 -10.692  15.827  0.00  0.00    +0.091 C 
ATOM     21  C   UNL     1      -3.518 -10.694  15.051  0.00  0.00    +0.090 C 
ATOM     22  N   UNL     1      -2.694 -10.716  15.074  0.00  0.00    -0.265 NA
ENDROOT
BRANCH  13  12
ATOM     12  C   UNL     1      -2.356 -10.716  13.686  0.00  0.00    +0.027 C 
BRANCH  12  11
ATOM     11  C   UNL     1      -2.010 -10.181  13.162  0.00  0.00    +0.088 C 
BRANCH  11   9
ATOM      8  N   UNL     1      -2.711  -9.957  11.937  0.00  0.00    -0.201 NA
ATOM      9  C   UNL     1      -2.081 -10.296  12.349  0.00  0.00    +0.242 C 
ATOM     10  O   UNL     1      -1.522 -10.749  11.946  0.00  0.00    -0.273 OA
BRANCH   8   7
ATOM      7  C   UNL     1      -2.783 -10.071  11.123  0.00  0.00    +0.141 C 
BRANCH   7   6
ATOM      3  C   UNL     1      -4.687  -9.077   9.895  0.00  0.00    +0.139 A 
ATOM      4  C   UNL     1      -3.914  -8.938   9.640  0.00  0.00    +0.037 A 
ATOM      5  C   UNL     1      -3.280  -9.270  10.050  0.00  0.00    +0.001 A 
ATOM      6  C   UNL     1      -3.417  -9.740  10.714  0.00  0.00    -0.000 A 
ATOM     32  C   UNL     1      -4.190  -9.878  10.968  0.00  0.00    +0.001 A 
ATOM     33  C   UNL     1      -4.825  -9.546  10.559  0.00  0.00    +0.037 A 
BRANCH   3   2
ATOM      1  C   UNL     1      -5.512  -7.949   9.595  0.00  0.00    +0.252 C 
ATOM      2  O   UNL     1      -5.321  -8.745   9.485  0.00  0.00    -0.471 OA
ENDBRANCH   3   2
ENDBRANCH   7   6
ENDBRANCH   8   7
ENDBRANCH  11   9
ENDBRANCH  12  11
ENDBRANCH  13  12
BRANCH  20  23
ATOM     23  N   UNL     1      -4.588 -10.673  16.059  0.00  0.00    -0.213 NA
BRANCH  23  24
ATOM     24  C   UNL     1      -4.840 -10.123  16.620  0.00  0.00    +0.115 C 
BRANCH  24  25
ATOM     25  C   UNL     1      -5.641 -10.071  16.815  0.00  0.00    -0.005 A 
ATOM     26  C   UNL     1      -5.935 -10.487  17.463  0.00  0.00    -0.001 A 
ATOM     27  C   UNL     1      -6.735 -10.436  17.658  0.00  0.00    +0.029 A 
ATOM     28  C   UNL     1      -7.241  -9.967  17.204  0.00  0.00    +0.140 A 
ATOM     29  F   UNL     1      -8.040  -9.915  17.399  0.00  0.00    -0.204 F 
ATOM     30  C   UNL     1      -6.946  -9.550  16.556  0.00  0.00    +0.029 A 
ATOM     31  C   UNL     1      -6.146  -9.602  16.362  0.00  0.00    -0.001 A 
ENDBRANCH  24  25
ENDBRANCH  23  24
ENDBRANCH  20  23
TORSDOF 9
ENDMDL
MODEL 9
REMARK VINA RESULT:      -8.0     16.074     18.444
REMARK  Name = 
REMARK  9 active torsions:
REMARK  status: ('A' for Active; 'I' for Inactive)
REMARK    1  A    between atoms: O_2  and  C_3
REMARK    2  A    between atoms: C_6  and  C_7
REMARK    3  A    between atoms: C_7  and  N_8
REMARK    4  A    between atoms: C_9  and  C_11
REMARK    5  A    between atoms: C_11  and  C_12
REMARK    6  A    between atoms: C_12  and  C_13
REMARK    7  A    between atoms: C_20  and  N_23
REMARK    8  A    between atoms: N_23  and  C_24
REMARK    9  A    between atoms: C_24  and  C_25
REMARK                            x       y       z     vdW  Elec       q    Type
REMARK                         _______ _______ _______ _____ _____    ______ ____
ROOT
ATOM     13  C   UNL     1      12.538   8.619  16.906  0.00  0.00    +0.080 C 
ATOM     14  C   UNL     1      12.385   8.722  16.102  0.00  0.00    +0.131 C 
ATOM     15  N   UNL     1      11.612   8.837  15.840  0.00  0.00    -0.203 NA
ATOM     16  C   UNL     1      10.990   8.848  16.383  0.00  0.00    +0.256 C 
ATOM     17  O   UNL     1      10.216   8.963  16.121  0.00  0.00    -0.272 OA
ATOM     18  C   UNL     1      11.142   8.745  17.187  0.00  0.00    +0.138 C 
ATOM     19  C   UNL     1      10.646   8.729  17.846  0.00  0.00    +0.044 C 
ATOM     20  C   UNL     1      11.113   8.605  18.515  0.00  0.00    +0.091 C 
ATOM     21  C   UNL     1      11.898   8.544  18.269  0.00  0.00    +0.090 C 
ATOM     22  N   UNL     1      11.917   8.630  17.448  0.00  0.00    -0.265 NA
ENDROOT
BRANCH  13  12
ATOM     12  C   UNL     1      13.312   8.504  17.168  0.00  0.00    +0.027 C 
BRANCH  12  11
ATOM     11  C   UNL     1      13.731   7.833  16.935  0.00  0.00    +0.088 C 
BRANCH  11   9
ATOM      8  N   UNL     1      14.404   7.523  18.157  0.00  0.00    -0.201 NA
ATOM      9  C   UNL     1      14.417   7.615  17.337  0.00  0.00    +0.242 C 
ATOM     10  O   UNL     1      15.117   7.490  16.920  0.00  0.00    -0.273 OA
BRANCH   8   7
ATOM      7  C   UNL     1      15.090   7.304  18.560  0.00  0.00    +0.141 C 
BRANCH   7   6
ATOM      3  C   UNL     1      15.128   7.305  21.034  0.00  0.00    +0.139 A 
ATOM      4  C   UNL     1      15.456   7.937  20.616  0.00  0.00    +0.037 A 
ATOM      5  C   UNL     1      15.443   7.936  19.791  0.00  0.00    +0.001 A 
ATOM      6  C   UNL     1      15.102   7.304  19.384  0.00  0.00    -0.000 A 
ATOM     32  C   UNL     1      14.774   6.674  19.802  0.00  0.00    +0.001 A 
ATOM     33  C   UNL     1      14.787   6.674  20.627  0.00  0.00    +0.037 A 
BRANCH   3   2
ATOM      1  C   UNL     1      14.654   7.825  22.278  0.00  0.00    +0.252 C 
ATOM      2  O   UNL     1      15.141   7.306  21.859  0.00  0.00    -0.471 OA
ENDBRANCH   3   2
ENDBRANCH   7   6
ENDBRANCH   8   7
ENDBRANCH  11   9
ENDBRANCH  12  11
ENDBRANCH  13  12
BRANCH  20  23
ATOM     23  N   UNL     1      10.842   8.552  19.292  0.00  0.00    -0.213 NA
BRANCH  23  24
ATOM     24  C   UNL     1      11.380   8.480  19.913  0.00  0.00    +0.115 C 
BRANCH  24  25
ATOM     25  C   UNL     1      11.107   8.343  20.680  0.00  0.00    -0.005 A 
ATOM     26  C   UNL     1      11.004   7.570  20.949  0.00  0.00    -0.001 A 
ATOM     27  C   UNL     1      10.732   7.431  21.715  0.00  0.00    +0.029 A 
ATOM     28  C   UNL     1      10.563   8.068  22.213  0.00  0.00    +0.140 A 
ATOM     29  F   UNL     1      10.291   7.930  22.979  0.00  0.00    -0.204 F 
ATOM     30  C   UNL     1      10.666   8.841  21.945  0.00  0.00    +0.029 A 
ATOM     31  C   UNL     1      10.938   8.978  21.178  0.00  0.00    -0.001 A 
ENDBRANCH  24  25
ENDBRANCH  23  24
ENDBRANCH  20  23
TORSDOF 9
ENDMDL
