REMARK  Name = 
REMARK  4 active torsions:
REMARK  status: ('A' for Active; 'I' for Inactive)
REMARK    1  A    between atoms: C_5  and  C_6
REMARK    2  A    between atoms: C_6  and  N_7
REMARK    3  A    between atoms: N_10  and  C_11
REMARK    4  A    between atoms: C_11  and  C_12
REMARK                            x       y       z     vdW  Elec       q    Type
REMARK                         _______ _______ _______ _____ _____    ______ ____
ROOT
ATOM      7  N   UNL     1       0.715  -0.412   0.000  0.00  0.00    -0.271 N 
ATOM      8  C   UNL     1       0.000   0.000   0.000  0.00  0.00    +0.120 C 
ATOM      9  C   UNL     1      -0.785  -0.255   0.000  0.00  0.00    +0.095 C 
ATOM     10  N   UNL     1      -1.270   0.412   0.000  0.00  0.00    -0.264 NA
ATOM     18  C   UNL     1      -0.785   1.080   0.000  0.00  0.00    +0.104 C 
ATOM     19  C   UNL     1       0.000   0.825   0.000  0.00  0.00    +0.151 C 
ATOM     20  O   UNL     1       0.715   1.238   0.000  0.00  0.00    -0.344 OA
ATOM     21  C   UNL     1       1.429   0.825   0.000  0.00  0.00    +0.227 C 
ATOM     22  C   UNL     1       1.429   0.000   0.000  0.00  0.00    +0.256 C 
ATOM     23  O   UNL     1       2.143  -0.412   0.000  0.00  0.00    -0.272 OA
ENDROOT
BRANCH   7   6
ATOM      6  C   UNL     1       0.715  -1.238   0.000  0.00  0.00    +0.120 C 
BRANCH   6   5
ATOM      1  F   UNL     1       3.572  -2.888   0.000  0.00  0.00    -0.204 F 
ATOM      2  C   UNL     1       2.858  -2.475   0.000  0.00  0.00    +0.140 A 
ATOM      3  C   UNL     1       2.143  -2.888   0.000  0.00  0.00    +0.029 A 
ATOM      4  C   UNL     1       1.429  -2.475   0.000  0.00  0.00    -0.000 A 
ATOM      5  C   UNL     1       1.429  -1.650   0.000  0.00  0.00    -0.002 A 
ATOM     24  C   UNL     1       2.143  -1.238   0.000  0.00  0.00    -0.000 A 
ATOM     25  C   UNL     1       2.858  -1.650   0.000  0.00  0.00    +0.029 A 
ENDBRANCH   6   5
ENDBRANCH   7   6
BRANCH  10  11
ATOM     11  C   UNL     1      -2.095   0.412   0.000  0.00  0.00    +0.119 C 
BRANCH  11  12
ATOM     12  C   UNL     1      -2.507   1.127   0.000  0.00  0.00    +0.075 A 
ATOM     13  N   UNL     1      -3.332   1.127   0.000  0.00  0.00    -0.247 NA
ATOM     14  C   UNL     1      -3.744   1.841   0.000  0.00  0.00    +0.098 A 
ATOM     15  C   UNL     1      -3.332   2.556   0.000  0.00  0.00    +0.021 A 
ATOM     16  C   UNL     1      -2.507   2.556   0.000  0.00  0.00    +0.003 A 
ATOM     17  C   UNL     1      -2.095   1.841   0.000  0.00  0.00    +0.016 A 
ENDBRANCH  11  12
ENDBRANCH  10  11
TORSDOF 4
