MODEL 1
REMARK VINA RESULT:     -10.2      0.000      0.000
REMARK  Name = 
REMARK  6 active torsions:
REMARK  status: ('A' for Active; 'I' for Inactive)
REMARK    1  A    between atoms: O_2  and  C_3
REMARK    2  A    between atoms: C_6  and  C_9
REMARK    3  A    between atoms: N_11  and  C_12
REMARK    4  A    between atoms: C_12  and  C_13
REMARK    5  A    between atoms: C_15  and  C_16
REMARK    6  A    between atoms: C_16  and  C_17
REMARK                            x       y       z     vdW  Elec       q    Type
REMARK                         _______ _______ _______ _____ _____    ______ ____
ROOT
ATOM     13  C   UNL     1      -3.707   3.518  25.567  0.00  0.00    +0.170 C 
ATOM     14  O   UNL     1      -3.881   2.729  25.399  0.00  0.00    -0.351 OA
ATOM     15  C   UNL     1      -4.687   2.611  25.533  0.00  0.00    +0.157 C 
ATOM     31  C   UNL     1      -5.012   3.328  25.782  0.00  0.00    +0.212 C 
ATOM     32  O   UNL     1      -5.802   3.461  25.977  0.00  0.00    -0.218 OA
ATOM     33  C   UNL     1      -4.406   3.888  25.803  0.00  0.00    +0.213 C 
ATOM     34  O   UNL     1      -4.485   4.679  26.022  0.00  0.00    -0.218 OA
ENDROOT
BRANCH  13  12
ATOM     12  C   UNL     1      -2.966   3.874  25.508  0.00  0.00    +0.148 C 
BRANCH  12  11
ATOM      9  C   UNL     1      -1.561   3.772  25.268  0.00  0.00    +0.265 C 
ATOM     10  O   UNL     1      -1.469   4.568  25.465  0.00  0.00    -0.268 OA
ATOM     11  N   UNL     1      -2.308   3.426  25.289  0.00  0.00    -0.199 NA
BRANCH   9   6
ATOM      3  C   UNL     1       0.410   2.427  24.610  0.00  0.00    +0.139 A 
ATOM      4  C   UNL     1       0.145   2.415  25.391  0.00  0.00    +0.037 A 
ATOM      5  C   UNL     1      -0.512   2.863  25.611  0.00  0.00    +0.008 A 
ATOM      6  C   UNL     1      -0.904   3.324  25.049  0.00  0.00    +0.055 A 
ATOM      7  C   UNL     1      -0.638   3.335  24.267  0.00  0.00    +0.008 A 
ATOM      8  C   UNL     1       0.019   2.887  24.048  0.00  0.00    +0.037 A 
BRANCH   3   2
ATOM      1  C   UNL     1       0.969   1.301  23.930  0.00  0.00    +0.252 C 
ATOM      2  O   UNL     1       1.066   1.979  24.391  0.00  0.00    -0.471 OA
ENDBRANCH   3   2
ENDBRANCH   9   6
ENDBRANCH  12  11
ENDBRANCH  13  12
BRANCH  15  16
ATOM     16  C   UNL     1      -5.096   1.902  25.434  0.00  0.00    +0.117 C 
BRANCH  16  17
ATOM     17  C   UNL     1      -5.031   1.483  24.725  0.00  0.00    +0.228 C 
ATOM     18  O   UNL     1      -5.270   1.832  24.017  0.00  0.00    -0.275 OA
ATOM     19  N   UNL     1      -4.729   0.716  24.726  0.00  0.00    -0.276 N 
ATOM     20  C   UNL     1      -4.664   0.297  24.019  0.00  0.00    +0.115 C 
ATOM     21  C   UNL     1      -4.361  -0.470  24.019  0.00  0.00    +0.114 C 
ATOM     22  N   UNL     1      -4.123  -0.819  24.728  0.00  0.00    -0.290 N 
ATOM     23  C   UNL     1      -4.188  -0.400  25.436  0.00  0.00    +0.114 C 
ATOM     24  C   UNL     1      -4.490   0.367  25.435  0.00  0.00    +0.115 C 
ATOM     25  C   UNL     1      -3.820  -1.586  24.728  0.00  0.00    +0.132 A 
ATOM     26  N   UNL     1      -3.755  -2.005  24.021  0.00  0.00    -0.229 NA
ATOM     27  C   UNL     1      -3.452  -2.772  24.022  0.00  0.00    +0.100 A 
ATOM     28  C   UNL     1      -3.214  -3.120  24.731  0.00  0.00    +0.021 A 
ATOM     29  C   UNL     1      -3.278  -2.702  25.439  0.00  0.00    +0.004 A 
ATOM     30  C   UNL     1      -3.582  -1.934  25.438  0.00  0.00    +0.034 A 
ENDBRANCH  16  17
ENDBRANCH  15  16
TORSDOF 6
ENDMDL
MODEL 2
REMARK VINA RESULT:     -10.2      1.510      4.002
REMARK  Name = 
REMARK  6 active torsions:
REMARK  status: ('A' for Active; 'I' for Inactive)
REMARK    1  A    between atoms: O_2  and  C_3
REMARK    2  A    between atoms: C_6  and  C_9
REMARK    3  A    between atoms: N_11  and  C_12
REMARK    4  A    between atoms: C_12  and  C_13
REMARK    5  A    between atoms: C_15  and  C_16
REMARK    6  A    between atoms: C_16  and  C_17
REMARK                            x       y       z     vdW  Elec       q    Type
REMARK                         _______ _______ _______ _____ _____    ______ ____
ROOT
ATOM     13  C   UNL     1      -1.474   3.167  25.191  0.00  0.00    +0.170 C 
ATOM     14  O   UNL     1      -1.397   2.346  25.192  0.00  0.00    -0.351 OA
ATOM     15  C   UNL     1      -0.621   2.162  25.403  0.00  0.00    +0.157 C 
ATOM     31  C   UNL     1      -0.217   2.870  25.532  0.00  0.00    +0.212 C 
ATOM     32  O   UNL     1       0.574   2.944  25.753  0.00  0.00    -0.218 OA
ATOM     33  C   UNL     1      -0.745   3.491  25.401  0.00  0.00    +0.213 C 
ATOM     34  O   UNL     1      -0.573   4.295  25.469  0.00  0.00    -0.218 OA
ENDROOT
BRANCH  13  12
ATOM     12  C   UNL     1      -2.159   3.590  25.011  0.00  0.00    +0.148 C 
BRANCH  12  11
ATOM      9  C   UNL     1      -3.565   3.536  24.763  0.00  0.00    +0.265 C 
ATOM     10  O   UNL     1      -3.490   4.141  24.207  0.00  0.00    -0.268 OA
ATOM     11  N   UNL     1      -2.900   3.261  25.165  0.00  0.00    -0.199 NA
BRANCH   9   6
ATOM      3  C   UNL     1      -5.787   2.548  25.225  0.00  0.00    +0.139 A 
ATOM      4  C   UNL     1      -5.545   3.225  25.628  0.00  0.00    +0.037 A 
ATOM      5  C   UNL     1      -4.804   3.555  25.475  0.00  0.00    +0.008 A 
ATOM      6  C   UNL     1      -4.306   3.207  24.917  0.00  0.00    +0.055 A 
ATOM      7  C   UNL     1      -4.548   2.529  24.513  0.00  0.00    +0.008 A 
ATOM      8  C   UNL     1      -5.289   2.200  24.668  0.00  0.00    +0.037 A 
BRANCH   3   2
ATOM      1  C   UNL     1      -6.637   1.739  26.041  0.00  0.00    +0.252 C 
ATOM      2  O   UNL     1      -6.527   2.219  25.379  0.00  0.00    -0.471 OA
ENDBRANCH   3   2
ENDBRANCH   9   6
ENDBRANCH  12  11
ENDBRANCH  13  12
BRANCH  15  16
ATOM     16  C   UNL     1      -0.304   1.403  25.472  0.00  0.00    +0.117 C 
BRANCH  16  17
ATOM     17  C   UNL     1      -0.323   0.887  24.828  0.00  0.00    +0.228 C 
ATOM     18  O   UNL     1       0.162   1.026  24.175  0.00  0.00    -0.275 OA
ATOM     19  N   UNL     1      -0.826   0.234  24.837  0.00  0.00    -0.276 N 
ATOM     20  C   UNL     1      -0.845  -0.281  24.194  0.00  0.00    +0.115 C 
ATOM     21  C   UNL     1      -1.348  -0.935  24.203  0.00  0.00    +0.114 C 
ATOM     22  N   UNL     1      -1.833  -1.073  24.855  0.00  0.00    -0.290 N 
ATOM     23  C   UNL     1      -1.814  -0.557  25.499  0.00  0.00    +0.114 C 
ATOM     24  C   UNL     1      -1.311   0.096  25.490  0.00  0.00    +0.115 C 
ATOM     25  C   UNL     1      -2.336  -1.726  24.865  0.00  0.00    +0.132 A 
ATOM     26  N   UNL     1      -2.355  -2.242  24.221  0.00  0.00    -0.229 NA
ATOM     27  C   UNL     1      -2.859  -2.895  24.231  0.00  0.00    +0.100 A 
ATOM     28  C   UNL     1      -3.343  -3.033  24.884  0.00  0.00    +0.021 A 
ATOM     29  C   UNL     1      -3.325  -2.518  25.528  0.00  0.00    +0.004 A 
ATOM     30  C   UNL     1      -2.821  -1.864  25.518  0.00  0.00    +0.034 A 
ENDBRANCH  16  17
ENDBRANCH  15  16
TORSDOF 6
ENDMDL
MODEL 3
REMARK VINA RESULT:      -9.9      1.309      1.670
REMARK  Name = 
REMARK  6 active torsions:
REMARK  status: ('A' for Active; 'I' for Inactive)
REMARK    1  A    between atoms: O_2  and  C_3
REMARK    2  A    between atoms: C_6  and  C_9
REMARK    3  A    between atoms: N_11  and  C_12
REMARK    4  A    between atoms: C_12  and  C_13
REMARK    5  A    between atoms: C_15  and  C_16
REMARK    6  A    between atoms: C_16  and  C_17
REMARK                            x       y       z     vdW  Elec       q    Type
REMARK                         _______ _______ _______ _____ _____    ______ ____
ROOT
ATOM     13  C   UNL     1      -4.769   3.177  25.637  0.00  0.00    +0.170 C 
ATOM     14  O   UNL     1      -4.487   2.504  25.253  0.00  0.00    -0.351 OA
ATOM     15  C   UNL     1      -5.134   2.031  25.058  0.00  0.00    +0.157 C 
ATOM     31  C   UNL     1      -5.817   2.412  25.321  0.00  0.00    +0.212 C 
ATOM     32  O   UNL     1      -6.589   2.134  25.241  0.00  0.00    -0.218 OA
ATOM     33  C   UNL     1      -5.591   3.121  25.679  0.00  0.00    +0.213 C 
ATOM     34  O   UNL     1      -6.098   3.675  26.020  0.00  0.00    -0.218 OA
ENDROOT
BRANCH  13  12
ATOM     12  C   UNL     1      -4.310   3.798  25.927  0.00  0.00    +0.148 C 
BRANCH  12  11
ATOM      9  C   UNL     1      -2.962   4.261  26.017  0.00  0.00    +0.265 C 
ATOM     10  O   UNL     1      -3.045   4.347  26.833  0.00  0.00    -0.268 OA
ATOM     11  N   UNL     1      -3.593   3.987  25.565  0.00  0.00    -0.199 NA
BRANCH   9   6
ATOM      3  C   UNL     1      -0.812   4.829  24.927  0.00  0.00    +0.139 A 
ATOM      4  C   UNL     1      -0.934   4.071  25.228  0.00  0.00    +0.037 A 
ATOM      5  C   UNL     1      -1.651   3.882  25.592  0.00  0.00    +0.008 A 
ATOM      6  C   UNL     1      -2.245   4.450  25.653  0.00  0.00    +0.055 A 
ATOM      7  C   UNL     1      -2.123   5.209  25.351  0.00  0.00    +0.008 A 
ATOM      8  C   UNL     1      -1.407   5.398  24.988  0.00  0.00    +0.037 A 
BRANCH   3   2
ATOM      1  C   UNL     1       0.087   4.703  23.823  0.00  0.00    +0.252 C 
ATOM      2  O   UNL     1      -0.097   5.018  24.564  0.00  0.00    -0.471 OA
ENDBRANCH   3   2
ENDBRANCH   9   6
ENDBRANCH  12  11
ENDBRANCH  13  12
BRANCH  15  16
ATOM     16  C   UNL     1      -5.104   1.305  24.668  0.00  0.00    +0.117 C 
BRANCH  16  17
ATOM     17  C   UNL     1      -4.440   1.102  24.222  0.00  0.00    +0.228 C 
ATOM     18  O   UNL     1      -4.112   1.650  23.699  0.00  0.00    -0.275 OA
ATOM     19  N   UNL     1      -4.103   0.353  24.299  0.00  0.00    -0.276 N 
ATOM     20  C   UNL     1      -3.440   0.151  23.854  0.00  0.00    +0.115 C 
ATOM     21  C   UNL     1      -3.103  -0.598  23.931  0.00  0.00    +0.114 C 
ATOM     22  N   UNL     1      -3.431  -1.146  24.453  0.00  0.00    -0.290 N 
ATOM     23  C   UNL     1      -4.095  -0.943  24.899  0.00  0.00    +0.114 C 
ATOM     24  C   UNL     1      -4.432  -0.194  24.822  0.00  0.00    +0.115 C 
ATOM     25  C   UNL     1      -3.094  -1.895  24.530  0.00  0.00    +0.132 A 
ATOM     26  N   UNL     1      -2.431  -2.097  24.085  0.00  0.00    -0.229 NA
ATOM     27  C   UNL     1      -2.094  -2.847  24.162  0.00  0.00    +0.100 A 
ATOM     28  C   UNL     1      -2.422  -3.393  24.685  0.00  0.00    +0.021 A 
ATOM     29  C   UNL     1      -3.086  -3.192  25.131  0.00  0.00    +0.004 A 
ATOM     30  C   UNL     1      -3.422  -2.442  25.054  0.00  0.00    +0.034 A 
ENDBRANCH  16  17
ENDBRANCH  15  16
TORSDOF 6
ENDMDL
MODEL 4
REMARK VINA RESULT:      -9.6      1.862      4.959
REMARK  Name = 
REMARK  6 active torsions:
REMARK  status: ('A' for Active; 'I' for Inactive)
REMARK    1  A    between atoms: O_2  and  C_3
REMARK    2  A    between atoms: C_6  and  C_9
REMARK    3  A    between atoms: N_11  and  C_12
REMARK    4  A    between atoms: C_12  and  C_13
REMARK    5  A    between atoms: C_15  and  C_16
REMARK    6  A    between atoms: C_16  and  C_17
REMARK                            x       y       z     vdW  Elec       q    Type
REMARK                         _______ _______ _______ _____ _____    ______ ____
ROOT
ATOM     13  C   UNL     1      -0.294   1.254  24.472  0.00  0.00    +0.170 C 
ATOM     14  O   UNL     1      -0.994   1.687  24.523  0.00  0.00    -0.351 OA
ATOM     15  C   UNL     1      -0.823   2.472  24.333  0.00  0.00    +0.157 C 
ATOM     31  C   UNL     1      -0.017   2.524  24.164  0.00  0.00    +0.212 C 
ATOM     32  O   UNL     1       0.390   3.208  23.947  0.00  0.00    -0.218 OA
ATOM     33  C   UNL     1       0.310   1.771  24.250  0.00  0.00    +0.213 C 
ATOM     34  O   UNL     1       1.101   1.571  24.134  0.00  0.00    -0.218 OA
ENDROOT
BRANCH  13  12
ATOM     12  C   UNL     1      -0.212   0.446  24.617  0.00  0.00    +0.148 C 
BRANCH  12  11
ATOM      9  C   UNL     1      -0.812  -0.826  24.865  0.00  0.00    +0.265 C 
ATOM     10  O   UNL     1      -0.085  -1.120  25.120  0.00  0.00    -0.268 OA
ATOM     11  N   UNL     1      -0.875  -0.043  24.614  0.00  0.00    -0.199 NA
BRANCH   9   6
ATOM      3  C   UNL     1      -2.805  -2.295  24.856  0.00  0.00    +0.139 A 
ATOM      4  C   UNL     1      -2.145  -2.493  24.404  0.00  0.00    +0.037 A 
ATOM      5  C   UNL     1      -1.480  -2.004  24.407  0.00  0.00    +0.008 A 
ATOM      6  C   UNL     1      -1.476  -1.316  24.862  0.00  0.00    +0.055 A 
ATOM      7  C   UNL     1      -2.138  -1.117  25.315  0.00  0.00    +0.008 A 
ATOM      8  C   UNL     1      -2.801  -1.607  25.312  0.00  0.00    +0.037 A 
BRANCH   3   2
ATOM      1  C   UNL     1      -3.947  -2.827  24.183  0.00  0.00    +0.252 C 
ATOM      2  O   UNL     1      -3.468  -2.784  24.854  0.00  0.00    -0.471 OA
ENDBRANCH   3   2
ENDBRANCH   9   6
ENDBRANCH  12  11
ENDBRANCH  13  12
BRANCH  15  16
ATOM     16  C   UNL     1      -1.364   3.095  24.315  0.00  0.00    +0.117 C 
BRANCH  16  17
ATOM     17  C   UNL     1      -1.769   3.310  25.001  0.00  0.00    +0.228 C 
ATOM     18  O   UNL     1      -1.373   3.707  25.606  0.00  0.00    -0.275 OA
ATOM     19  N   UNL     1      -2.570   3.130  25.081  0.00  0.00    -0.276 N 
ATOM     20  C   UNL     1      -2.975   3.345  25.766  0.00  0.00    +0.115 C 
ATOM     21  C   UNL     1      -3.775   3.164  25.847  0.00  0.00    +0.114 C 
ATOM     22  N   UNL     1      -4.172   2.767  25.241  0.00  0.00    -0.290 N 
ATOM     23  C   UNL     1      -3.766   2.552  24.555  0.00  0.00    +0.114 C 
ATOM     24  C   UNL     1      -2.966   2.733  24.475  0.00  0.00    +0.115 C 
ATOM     25  C   UNL     1      -4.972   2.587  25.322  0.00  0.00    +0.132 A 
ATOM     26  N   UNL     1      -5.377   2.802  26.007  0.00  0.00    -0.229 NA
ATOM     27  C   UNL     1      -6.179   2.621  26.087  0.00  0.00    +0.100 A 
ATOM     28  C   UNL     1      -6.574   2.224  25.481  0.00  0.00    +0.021 A 
ATOM     29  C   UNL     1      -6.170   2.009  24.796  0.00  0.00    +0.004 A 
ATOM     30  C   UNL     1      -5.368   2.190  24.716  0.00  0.00    +0.034 A 
ENDBRANCH  16  17
ENDBRANCH  15  16
TORSDOF 6
ENDMDL
MODEL 5
REMARK VINA RESULT:      -9.4      2.522      5.684
REMARK  Name = 
REMARK  6 active torsions:
REMARK  status: ('A' for Active; 'I' for Inactive)
REMARK    1  A    between atoms: O_2  and  C_3
REMARK    2  A    between atoms: C_6  and  C_9
REMARK    3  A    between atoms: N_11  and  C_12
REMARK    4  A    between atoms: C_12  and  C_13
REMARK    5  A    between atoms: C_15  and  C_16
REMARK    6  A    between atoms: C_16  and  C_17
REMARK                            x       y       z     vdW  Elec       q    Type
REMARK                         _______ _______ _______ _____ _____    ______ ____
ROOT
ATOM     13  C   UNL     1      -3.313  -0.880  24.691  0.00  0.00    +0.170 C 
ATOM     14  O   UNL     1      -2.621  -0.523  24.420  0.00  0.00    -0.351 OA
ATOM     15  C   UNL     1      -2.015  -1.082  24.456  0.00  0.00    +0.157 C 
ATOM     31  C   UNL     1      -2.332  -1.785  24.748  0.00  0.00    +0.212 C 
ATOM     32  O   UNL     1      -1.920  -2.488  24.874  0.00  0.00    -0.218 OA
ATOM     33  C   UNL     1      -3.135  -1.660  24.894  0.00  0.00    +0.213 C 
ATOM     34  O   UNL     1      -3.666  -2.217  25.190  0.00  0.00    -0.218 OA
ENDROOT
BRANCH  13  12
ATOM     12  C   UNL     1      -4.054  -0.521  24.748  0.00  0.00    +0.148 C 
BRANCH  12  11
ATOM      9  C   UNL     1      -4.828   0.678  24.791  0.00  0.00    +0.265 C 
ATOM     10  O   UNL     1      -5.492   0.260  24.536  0.00  0.00    -0.268 OA
ATOM     11  N   UNL     1      -4.110   0.288  24.897  0.00  0.00    -0.199 NA
BRANCH   9   6
ATOM      3  C   UNL     1      -4.996   3.107  25.238  0.00  0.00    +0.139 A 
ATOM      4  C   UNL     1      -5.435   2.574  25.687  0.00  0.00    +0.037 A 
ATOM      5  C   UNL     1      -5.380   1.764  25.539  0.00  0.00    +0.008 A 
ATOM      6  C   UNL     1      -4.884   1.488  24.940  0.00  0.00    +0.055 A 
ATOM      7  C   UNL     1      -4.444   2.022  24.490  0.00  0.00    +0.008 A 
ATOM      8  C   UNL     1      -4.500   2.831  24.639  0.00  0.00    +0.037 A 
BRANCH   3   2
ATOM      1  C   UNL     1      -4.375   4.349  25.577  0.00  0.00    +0.252 C 
ATOM      2  O   UNL     1      -5.051   3.916  25.387  0.00  0.00    -0.471 OA
ENDBRANCH   3   2
ENDBRANCH   9   6
ENDBRANCH  12  11
ENDBRANCH  13  12
BRANCH  15  16
ATOM     16  C   UNL     1      -1.229  -0.959  24.237  0.00  0.00    +0.117 C 
BRANCH  16  17
ATOM     17  C   UNL     1      -0.860  -0.240  24.408  0.00  0.00    +0.228 C 
ATOM     18  O   UNL     1      -1.223   0.298  24.917  0.00  0.00    -0.275 OA
ATOM     19  N   UNL     1      -0.129  -0.061  24.071  0.00  0.00    -0.276 N 
ATOM     20  C   UNL     1       0.239   0.657  24.242  0.00  0.00    +0.115 C 
ATOM     21  C   UNL     1       0.971   0.836  23.905  0.00  0.00    +0.114 C 
ATOM     22  N   UNL     1       1.334   0.297  23.397  0.00  0.00    -0.290 N 
ATOM     23  C   UNL     1       0.965  -0.421  23.226  0.00  0.00    +0.114 C 
ATOM     24  C   UNL     1       0.234  -0.601  23.563  0.00  0.00    +0.115 C 
ATOM     25  C   UNL     1       2.065   0.476  23.060  0.00  0.00    +0.132 A 
ATOM     26  N   UNL     1       2.433   1.194  23.231  0.00  0.00    -0.229 NA
ATOM     27  C   UNL     1       3.165   1.373  22.894  0.00  0.00    +0.100 A 
ATOM     28  C   UNL     1       3.528   0.833  22.386  0.00  0.00    +0.021 A 
ATOM     29  C   UNL     1       3.160   0.116  22.214  0.00  0.00    +0.004 A 
ATOM     30  C   UNL     1       2.428  -0.063  22.552  0.00  0.00    +0.034 A 
ENDBRANCH  16  17
ENDBRANCH  15  16
TORSDOF 6
ENDMDL
MODEL 6
REMARK VINA RESULT:      -9.3      2.764      5.336
REMARK  Name = 
REMARK  6 active torsions:
REMARK  status: ('A' for Active; 'I' for Inactive)
REMARK    1  A    between atoms: O_2  and  C_3
REMARK    2  A    between atoms: C_6  and  C_9
REMARK    3  A    between atoms: N_11  and  C_12
REMARK    4  A    between atoms: C_12  and  C_13
REMARK    5  A    between atoms: C_15  and  C_16
REMARK    6  A    between atoms: C_16  and  C_17
REMARK                            x       y       z     vdW  Elec       q    Type
REMARK                         _______ _______ _______ _____ _____    ______ ____
ROOT
ATOM     13  C   UNL     1       0.294  -0.053  23.528  0.00  0.00    +0.170 C 
ATOM     14  O   UNL     1      -0.019   0.630  23.866  0.00  0.00    -0.351 OA
ATOM     15  C   UNL     1      -0.581   0.404  24.427  0.00  0.00    +0.157 C 
ATOM     31  C   UNL     1      -0.615  -0.421  24.435  0.00  0.00    +0.212 C 
ATOM     32  O   UNL     1      -1.103  -0.882  24.914  0.00  0.00    -0.218 OA
ATOM     33  C   UNL     1      -0.074  -0.703  23.879  0.00  0.00    +0.213 C 
ATOM     34  O   UNL     1       0.073  -1.496  23.705  0.00  0.00    -0.218 OA
ENDROOT
BRANCH  13  12
ATOM     12  C   UNL     1       0.873  -0.083  22.941  0.00  0.00    +0.148 C 
BRANCH  12  11
ATOM      9  C   UNL     1       2.239   0.048  22.546  0.00  0.00    +0.265 C 
ATOM     10  O   UNL     1       2.023  -0.063  21.757  0.00  0.00    -0.268 OA
ATOM     11  N   UNL     1       1.666   0.038  23.137  0.00  0.00    -0.199 NA
BRANCH   9   6
ATOM      3  C   UNL     1       4.617   0.409  23.134  0.00  0.00    +0.139 A 
ATOM      4  C   UNL     1       4.182   1.016  22.784  0.00  0.00    +0.037 A 
ATOM      5  C   UNL     1       3.389   0.896  22.588  0.00  0.00    +0.008 A 
ATOM      6  C   UNL     1       3.032   0.168  22.742  0.00  0.00    +0.055 A 
ATOM      7  C   UNL     1       3.468  -0.439  23.092  0.00  0.00    +0.008 A 
ATOM      8  C   UNL     1       4.260  -0.318  23.288  0.00  0.00    +0.037 A 
BRANCH   3   2
ATOM      1  C   UNL     1       5.755   0.091  23.937  0.00  0.00    +0.252 C 
ATOM      2  O   UNL     1       5.409   0.529  23.330  0.00  0.00    -0.471 OA
ENDBRANCH   3   2
ENDBRANCH   9   6
ENDBRANCH  12  11
ENDBRANCH  13  12
BRANCH  15  16
ATOM     16  C   UNL     1      -1.029   0.912  24.897  0.00  0.00    +0.117 C 
BRANCH  16  17
ATOM     17  C   UNL     1      -1.189   1.680  24.639  0.00  0.00    +0.228 C 
ATOM     18  O   UNL     1      -0.609   2.108  24.237  0.00  0.00    -0.275 OA
ATOM     19  N   UNL     1      -1.927   2.019  24.784  0.00  0.00    -0.276 N 
ATOM     20  C   UNL     1      -2.086   2.786  24.526  0.00  0.00    +0.115 C 
ATOM     21  C   UNL     1      -2.824   3.125  24.671  0.00  0.00    +0.114 C 
ATOM     22  N   UNL     1      -3.403   2.697  25.073  0.00  0.00    -0.290 N 
ATOM     23  C   UNL     1      -3.243   1.929  25.331  0.00  0.00    +0.114 C 
ATOM     24  C   UNL     1      -2.506   1.590  25.186  0.00  0.00    +0.115 C 
ATOM     25  C   UNL     1      -4.141   3.036  25.217  0.00  0.00    +0.132 A 
ATOM     26  N   UNL     1      -4.300   3.803  24.960  0.00  0.00    -0.229 NA
ATOM     27  C   UNL     1      -5.039   4.141  25.105  0.00  0.00    +0.100 A 
ATOM     28  C   UNL     1      -5.617   3.713  25.507  0.00  0.00    +0.021 A 
ATOM     29  C   UNL     1      -5.458   2.946  25.765  0.00  0.00    +0.004 A 
ATOM     30  C   UNL     1      -4.720   2.607  25.620  0.00  0.00    +0.034 A 
ENDBRANCH  16  17
ENDBRANCH  15  16
TORSDOF 6
ENDMDL
MODEL 7
REMARK VINA RESULT:      -9.1      1.998      5.748
REMARK  Name = 
REMARK  6 active torsions:
REMARK  status: ('A' for Active; 'I' for Inactive)
REMARK    1  A    between atoms: O_2  and  C_3
REMARK    2  A    between atoms: C_6  and  C_9
REMARK    3  A    between atoms: N_11  and  C_12
REMARK    4  A    between atoms: C_12  and  C_13
REMARK    5  A    between atoms: C_15  and  C_16
REMARK    6  A    between atoms: C_16  and  C_17
REMARK                            x       y       z     vdW  Elec       q    Type
REMARK                         _______ _______ _______ _____ _____    ______ ____
ROOT
ATOM     13  C   UNL     1      -2.635  -1.047  24.924  0.00  0.00    +0.170 C 
ATOM     14  O   UNL     1      -2.057  -0.460  24.955  0.00  0.00    -0.351 OA
ATOM     15  C   UNL     1      -1.322  -0.829  25.026  0.00  0.00    +0.157 C 
ATOM     31  C   UNL     1      -1.446  -1.644  25.038  0.00  0.00    +0.212 C 
ATOM     32  O   UNL     1      -0.863  -2.223  25.102  0.00  0.00    -0.218 OA
ATOM     33  C   UNL     1      -2.258  -1.779  24.976  0.00  0.00    +0.213 C 
ATOM     34  O   UNL     1      -2.628  -2.516  24.966  0.00  0.00    -0.218 OA
ENDROOT
BRANCH  13  12
ATOM     12  C   UNL     1      -3.448  -0.924  24.854  0.00  0.00    +0.148 C 
BRANCH  12  11
ATOM      9  C   UNL     1      -4.494   0.032  24.673  0.00  0.00    +0.265 C 
ATOM     10  O   UNL     1      -4.905  -0.506  24.202  0.00  0.00    -0.268 OA
ATOM     11  N   UNL     1      -3.767  -0.177  24.999  0.00  0.00    -0.199 NA
BRANCH   9   6
ATOM      3  C   UNL     1      -5.450   2.273  25.110  0.00  0.00    +0.139 A 
ATOM      4  C   UNL     1      -4.803   2.192  24.605  0.00  0.00    +0.037 A 
ATOM      5  C   UNL     1      -4.484   1.445  24.459  0.00  0.00    +0.008 A 
ATOM      6  C   UNL     1      -4.813   0.779  24.819  0.00  0.00    +0.055 A 
ATOM      7  C   UNL     1      -5.461   0.861  25.324  0.00  0.00    +0.008 A 
ATOM      8  C   UNL     1      -5.779   1.608  25.469  0.00  0.00    +0.037 A 
BRANCH   3   2
ATOM      1  C   UNL     1      -5.320   3.591  25.647  0.00  0.00    +0.252 C 
ATOM      2  O   UNL     1      -5.768   3.020  25.255  0.00  0.00    -0.471 OA
ENDBRANCH   3   2
ENDBRANCH   9   6
ENDBRANCH  12  11
ENDBRANCH  13  12
BRANCH  15  16
ATOM     16  C   UNL     1      -0.592  -0.449  25.075  0.00  0.00    +0.117 C 
BRANCH  16  17
ATOM     17  C   UNL     1      -0.344   0.051  24.466  0.00  0.00    +0.228 C 
ATOM     18  O   UNL     1      -0.016  -0.268  23.779  0.00  0.00    -0.275 OA
ATOM     19  N   UNL     1      -0.424   0.868  24.545  0.00  0.00    -0.276 N 
ATOM     20  C   UNL     1      -0.176   1.367  23.937  0.00  0.00    +0.115 C 
ATOM     21  C   UNL     1      -0.256   2.184  24.015  0.00  0.00    +0.114 C 
ATOM     22  N   UNL     1      -0.583   2.503  24.702  0.00  0.00    -0.290 N 
ATOM     23  C   UNL     1      -0.831   2.003  25.311  0.00  0.00    +0.114 C 
ATOM     24  C   UNL     1      -0.751   1.186  25.232  0.00  0.00    +0.115 C 
ATOM     25  C   UNL     1      -0.663   3.320  24.781  0.00  0.00    +0.132 A 
ATOM     26  N   UNL     1      -0.416   3.819  24.173  0.00  0.00    -0.229 NA
ATOM     27  C   UNL     1      -0.496   4.637  24.252  0.00  0.00    +0.100 A 
ATOM     28  C   UNL     1      -0.823   4.954  24.939  0.00  0.00    +0.021 A 
ATOM     29  C   UNL     1      -1.071   4.456  25.547  0.00  0.00    +0.004 A 
ATOM     30  C   UNL     1      -0.991   3.638  25.468  0.00  0.00    +0.034 A 
ENDBRANCH  16  17
ENDBRANCH  15  16
TORSDOF 6
ENDMDL
MODEL 8
REMARK VINA RESULT:      -7.1     14.154     16.753
REMARK  Name = 
REMARK  6 active torsions:
REMARK  status: ('A' for Active; 'I' for Inactive)
REMARK    1  A    between atoms: O_2  and  C_3
REMARK    2  A    between atoms: C_6  and  C_9
REMARK    3  A    between atoms: N_11  and  C_12
REMARK    4  A    between atoms: C_12  and  C_13
REMARK    5  A    between atoms: C_15  and  C_16
REMARK    6  A    between atoms: C_16  and  C_17
REMARK                            x       y       z     vdW  Elec       q    Type
REMARK                         _______ _______ _______ _____ _____    ______ ____
ROOT
ATOM     13  C   UNL     1      -8.885  -9.452  14.760  0.00  0.00    +0.170 C 
ATOM     14  O   UNL     1      -8.208  -9.480  14.292  0.00  0.00    -0.351 OA
ATOM     15  C   UNL     1      -8.437  -9.669  13.522  0.00  0.00    +0.157 C 
ATOM     31  C   UNL     1      -9.257  -9.758  13.515  0.00  0.00    +0.212 C 
ATOM     32  O   UNL     1      -9.719  -9.947  12.859  0.00  0.00    -0.218 OA
ATOM     33  C   UNL     1      -9.535  -9.624  14.281  0.00  0.00    +0.213 C 
ATOM     34  O   UNL     1     -10.322  -9.655  14.523  0.00  0.00    -0.218 OA
ENDROOT
BRANCH  13  12
ATOM     12  C   UNL     1      -8.911  -9.282  15.567  0.00  0.00    +0.148 C 
BRANCH  12  11
ATOM      9  C   UNL     1      -8.360  -9.422  16.878  0.00  0.00    +0.265 C 
ATOM     10  O   UNL     1      -8.913  -8.883  17.169  0.00  0.00    -0.268 OA
ATOM     11  N   UNL     1      -8.359  -9.621  16.078  0.00  0.00    -0.199 NA
BRANCH   9   6
ATOM      3  C   UNL     1      -6.704 -10.442  18.410  0.00  0.00    +0.139 A 
ATOM      4  C   UNL     1      -6.450  -9.975  17.780  0.00  0.00    +0.037 A 
ATOM      5  C   UNL     1      -7.002  -9.635  17.269  0.00  0.00    +0.008 A 
ATOM      6  C   UNL     1      -7.808  -9.762  17.389  0.00  0.00    +0.055 A 
ATOM      7  C   UNL     1      -8.063 -10.229  18.020  0.00  0.00    +0.008 A 
ATOM      8  C   UNL     1      -7.511 -10.569  18.530  0.00  0.00    +0.037 A 
BRANCH   3   2
ATOM      1  C   UNL     1      -6.168 -10.599  19.725  0.00  0.00    +0.252 C 
ATOM      2  O   UNL     1      -6.153 -10.781  18.921  0.00  0.00    -0.471 OA
ENDBRANCH   3   2
ENDBRANCH   9   6
ENDBRANCH  12  11
ENDBRANCH  13  12
BRANCH  15  16
ATOM     16  C   UNL     1      -7.935  -9.754  12.873  0.00  0.00    +0.117 C 
BRANCH  16  17
ATOM     17  C   UNL     1      -7.187 -10.091  12.971  0.00  0.00    +0.228 C 
ATOM     18  O   UNL     1      -7.047 -10.605  13.601  0.00  0.00    -0.275 OA
ATOM     19  N   UNL     1      -6.582  -9.913  12.440  0.00  0.00    -0.276 N 
ATOM     20  C   UNL     1      -5.835 -10.249  12.538  0.00  0.00    +0.115 C 
ATOM     21  C   UNL     1      -5.230 -10.072  12.007  0.00  0.00    +0.114 C 
ATOM     22  N   UNL     1      -5.371  -9.558  11.377  0.00  0.00    -0.290 N 
ATOM     23  C   UNL     1      -6.118  -9.221  11.279  0.00  0.00    +0.114 C 
ATOM     24  C   UNL     1      -6.724  -9.399  11.810  0.00  0.00    +0.115 C 
ATOM     25  C   UNL     1      -4.765  -9.380  10.846  0.00  0.00    +0.132 A 
ATOM     26  N   UNL     1      -4.019  -9.716  10.944  0.00  0.00    -0.229 NA
ATOM     27  C   UNL     1      -3.413  -9.538  10.412  0.00  0.00    +0.100 A 
ATOM     28  C   UNL     1      -3.555  -9.024   9.783  0.00  0.00    +0.021 A 
ATOM     29  C   UNL     1      -4.301  -8.687   9.685  0.00  0.00    +0.004 A 
ATOM     30  C   UNL     1      -4.907  -8.865  10.216  0.00  0.00    +0.034 A 
ENDBRANCH  16  17
ENDBRANCH  15  16
TORSDOF 6
ENDMDL
MODEL 9
REMARK VINA RESULT:      -6.2     14.639     17.739
REMARK  Name = 
REMARK  6 active torsions:
REMARK  status: ('A' for Active; 'I' for Inactive)
REMARK    1  A    between atoms: O_2  and  C_3
REMARK    2  A    between atoms: C_6  and  C_9
REMARK    3  A    between atoms: N_11  and  C_12
REMARK    4  A    between atoms: C_12  and  C_13
REMARK    5  A    between atoms: C_15  and  C_16
REMARK    6  A    between atoms: C_16  and  C_17
REMARK                            x       y       z     vdW  Elec       q    Type
REMARK                         _______ _______ _______ _____ _____    ______ ____
ROOT
ATOM     13  C   UNL     1      -8.806  -9.841  12.186  0.00  0.00    +0.170 C 
ATOM     14  O   UNL     1      -7.989  -9.883  12.294  0.00  0.00    -0.351 OA
ATOM     15  C   UNL     1      -7.629  -9.802  11.555  0.00  0.00    +0.157 C 
ATOM     31  C   UNL     1      -8.224  -9.711  10.991  0.00  0.00    +0.212 C 
ATOM     32  O   UNL     1      -8.111  -9.613  10.180  0.00  0.00    -0.218 OA
ATOM     33  C   UNL     1      -8.951  -9.735  11.380  0.00  0.00    +0.213 C 
ATOM     34  O   UNL     1      -9.693  -9.665  11.027  0.00  0.00    -0.218 OA
ENDROOT
BRANCH  13  12
ATOM     12  C   UNL     1      -9.377  -9.896  12.778  0.00  0.00    +0.148 C 
BRANCH  12  11
ATOM      9  C   UNL     1      -9.818  -9.569  14.097  0.00  0.00    +0.265 C 
ATOM     10  O   UNL     1     -10.404 -10.148  14.045  0.00  0.00    -0.268 OA
ATOM     11  N   UNL     1      -9.306  -9.443  13.464  0.00  0.00    -0.199 NA
BRANCH   9   6
ATOM      3  C   UNL     1      -9.602  -8.210  16.155  0.00  0.00    +0.139 A 
ATOM      4  C   UNL     1      -9.157  -8.898  16.066  0.00  0.00    +0.037 A 
ATOM      5  C   UNL     1      -9.228  -9.351  15.381  0.00  0.00    +0.008 A 
ATOM      6  C   UNL     1      -9.746  -9.116  14.783  0.00  0.00    +0.055 A 
ATOM      7  C   UNL     1     -10.193  -8.427  14.872  0.00  0.00    +0.008 A 
ATOM      8  C   UNL     1     -10.120  -7.974  15.557  0.00  0.00    +0.037 A 
BRANCH   3   2
ATOM      1  C   UNL     1      -9.982  -7.941  17.506  0.00  0.00    +0.252 C 
ATOM      2  O   UNL     1      -9.531  -7.757  16.840  0.00  0.00    -0.471 OA
ENDBRANCH   3   2
ENDBRANCH   9   6
ENDBRANCH  12  11
ENDBRANCH  13  12
BRANCH  15  16
ATOM     16  C   UNL     1      -6.818  -9.812  11.408  0.00  0.00    +0.117 C 
BRANCH  16  17
ATOM     17  C   UNL     1      -6.317 -10.264  11.884  0.00  0.00    +0.228 C 
ATOM     18  O   UNL     1      -6.635 -10.781  12.442  0.00  0.00    -0.275 OA
ATOM     19  N   UNL     1      -5.499 -10.198  11.801  0.00  0.00    -0.276 N 
ATOM     20  C   UNL     1      -4.999 -10.650  12.276  0.00  0.00    +0.115 C 
ATOM     21  C   UNL     1      -4.181 -10.584  12.193  0.00  0.00    +0.114 C 
ATOM     22  N   UNL     1      -3.863 -10.067  11.635  0.00  0.00    -0.290 N 
ATOM     23  C   UNL     1      -4.364  -9.615  11.160  0.00  0.00    +0.114 C 
ATOM     24  C   UNL     1      -5.181  -9.680  11.243  0.00  0.00    +0.115 C 
ATOM     25  C   UNL     1      -3.045 -10.001  11.553  0.00  0.00    +0.132 A 
ATOM     26  N   UNL     1      -2.544 -10.453  12.028  0.00  0.00    -0.229 NA
ATOM     27  C   UNL     1      -1.726 -10.387  11.944  0.00  0.00    +0.100 A 
ATOM     28  C   UNL     1      -1.409  -9.869  11.386  0.00  0.00    +0.021 A 
ATOM     29  C   UNL     1      -1.908  -9.417  10.911  0.00  0.00    +0.004 A 
ATOM     30  C   UNL     1      -2.727  -9.483  10.994  0.00  0.00    +0.034 A 
ENDBRANCH  16  17
ENDBRANCH  15  16
TORSDOF 6
ENDMDL
