MODEL 1
REMARK VINA RESULT:     -11.0      0.000      0.000
REMARK  Name = 
REMARK  8 active torsions:
REMARK  status: ('A' for Active; 'I' for Inactive)
REMARK    1  A    between atoms: C_2  and  C_3
REMARK    2  A    between atoms: C_3  and  C_4
REMARK    3  A    between atoms: C_4  and  C_5
REMARK    4  A    between atoms: C_7  and  C_8
REMARK    5  A    between atoms: C_8  and  C_9
REMARK    6  A    between atoms: C_14  and  C_15
REMARK    7  A    between atoms: C_15  and  C_16
REMARK    8  A    between atoms: N_18  and  C_19
REMARK                            x       y       z     vdW  Elec       q    Type
REMARK                         _______ _______ _______ _____ _____    ______ ____
ROOT
ATOM      9  C   UNL     1      -4.523   2.068  24.834  0.00  0.00    +0.024 C 
ATOM     10  C   UNL     1      -5.301   1.851  24.999  0.00  0.00    +0.089 C 
ATOM     11  N   UNL     1      -5.805   2.379  25.382  0.00  0.00    -0.218 NA
ATOM     12  C   UNL     1      -5.530   3.126  25.601  0.00  0.00    +0.089 C 
ATOM     13  C   UNL     1      -4.753   3.344  25.436  0.00  0.00    +0.019 C 
ATOM     14  C   UNL     1      -4.248   2.815  25.052  0.00  0.00    +0.012 C 
ENDROOT
BRANCH   9   8
ATOM      8  C   UNL     1      -4.020   1.539  24.450  0.00  0.00    +0.051 C 
BRANCH   8   7
ATOM      5  C   UNL     1      -4.123  -0.592  24.523  0.00  0.00    +0.154 A 
ATOM      6  C   UNL     1      -4.123   0.115  24.098  0.00  0.00    +0.054 A 
ATOM      7  C   UNL     1      -4.046   0.736  24.637  0.00  0.00    +0.100 A 
ATOM     25  N   UNL     1      -3.999   0.412  25.394  0.00  0.00    -0.082 NA
ATOM     26  O   UNL     1      -4.047  -0.409  25.323  0.00  0.00    -0.358 OA
BRANCH   5   4
ATOM      4  C   UNL     1      -4.189  -1.349  24.203  0.00  0.00    +0.067 C 
BRANCH   4   3
ATOM      3  C   UNL     1      -3.729  -1.965  24.501  0.00  0.00    +0.008 C 
BRANCH   3   2
ATOM      1  C   UNL     1      -3.356  -3.344  24.492  0.00  0.00    +0.000 C 
ATOM      2  C   UNL     1      -3.762  -2.712  24.152  0.00  0.00    +0.000 C 
ENDBRANCH   3   2
ENDBRANCH   4   3
ENDBRANCH   5   4
ENDBRANCH   8   7
ENDBRANCH   9   8
BRANCH  14  15
ATOM     15  C   UNL     1      -3.470   3.032  24.888  0.00  0.00    +0.087 C 
BRANCH  15  16
ATOM     16  C   UNL     1      -3.302   3.796  24.622  0.00  0.00    +0.241 C 
ATOM     17  O   UNL     1      -3.902   4.261  24.298  0.00  0.00    -0.273 OA
ATOM     18  N   UNL     1      -2.536   4.093  24.681  0.00  0.00    -0.207 NA
BRANCH  18  19
ATOM     19  C   UNL     1      -1.936   3.628  25.005  0.00  0.00    +0.095 C 
ATOM     20  C   UNL     1      -1.816   3.621  25.821  0.00  0.00    +0.022 C 
ATOM     21  C   UNL     1      -1.216   3.156  26.145  0.00  0.00    +0.002 C 
ATOM     22  C   UNL     1      -0.736   2.699  25.654  0.00  0.00    +0.000 C 
ATOM     23  C   UNL     1      -0.857   2.707  24.837  0.00  0.00    +0.002 C 
ATOM     24  C   UNL     1      -1.457   3.172  24.513  0.00  0.00    +0.022 C 
ENDBRANCH  18  19
ENDBRANCH  15  16
ENDBRANCH  14  15
TORSDOF 8
ENDMDL
MODEL 2
REMARK VINA RESULT:     -10.5      1.552      3.014
REMARK  Name = 
REMARK  8 active torsions:
REMARK  status: ('A' for Active; 'I' for Inactive)
REMARK    1  A    between atoms: C_2  and  C_3
REMARK    2  A    between atoms: C_3  and  C_4
REMARK    3  A    between atoms: C_4  and  C_5
REMARK    4  A    between atoms: C_7  and  C_8
REMARK    5  A    between atoms: C_8  and  C_9
REMARK    6  A    between atoms: C_14  and  C_15
REMARK    7  A    between atoms: C_15  and  C_16
REMARK    8  A    between atoms: N_18  and  C_19
REMARK                            x       y       z     vdW  Elec       q    Type
REMARK                         _______ _______ _______ _____ _____    ______ ____
ROOT
ATOM      9  C   UNL     1      -1.270   1.841  25.158  0.00  0.00    +0.024 C 
ATOM     10  C   UNL     1      -0.568   1.537  25.466  0.00  0.00    +0.089 C 
ATOM     11  N   UNL     1      -0.127   1.978  26.006  0.00  0.00    -0.218 NA
ATOM     12  C   UNL     1      -0.390   2.726  26.237  0.00  0.00    +0.089 C 
ATOM     13  C   UNL     1      -1.091   3.031  25.929  0.00  0.00    +0.019 C 
ATOM     14  C   UNL     1      -1.532   2.589  25.390  0.00  0.00    +0.012 C 
ENDROOT
BRANCH   9   8
ATOM      8  C   UNL     1      -1.710   1.398  24.619  0.00  0.00    +0.051 C 
BRANCH   8   7
ATOM      5  C   UNL     1      -2.048  -0.691  24.897  0.00  0.00    +0.154 A 
ATOM      6  C   UNL     1      -2.286   0.095  24.979  0.00  0.00    +0.054 A 
ATOM      7  C   UNL     1      -1.698   0.575  24.655  0.00  0.00    +0.100 A 
ATOM     25  N   UNL     1      -1.097   0.085  24.373  0.00  0.00    -0.082 NA
ATOM     26  O   UNL     1      -1.313  -0.697  24.522  0.00  0.00    -0.358 OA
BRANCH   5   4
ATOM      4  C   UNL     1      -2.471  -1.354  25.145  0.00  0.00    +0.067 C 
BRANCH   4   3
ATOM      3  C   UNL     1      -2.949  -1.762  24.612  0.00  0.00    +0.008 C 
BRANCH   3   2
ATOM      1  C   UNL     1      -3.844  -2.838  24.326  0.00  0.00    +0.000 C 
ATOM      2  C   UNL     1      -3.350  -2.442  24.853  0.00  0.00    +0.000 C 
ENDBRANCH   3   2
ENDBRANCH   4   3
ENDBRANCH   5   4
ENDBRANCH   8   7
ENDBRANCH   9   8
BRANCH  14  15
ATOM     15  C   UNL     1      -2.233   2.893  25.082  0.00  0.00    +0.087 C 
BRANCH  15  16
ATOM     16  C   UNL     1      -2.290   3.697  24.900  0.00  0.00    +0.241 C 
ATOM     17  O   UNL     1      -1.605   4.147  24.807  0.00  0.00    -0.273 OA
ATOM     18  N   UNL     1      -3.030   4.048  24.812  0.00  0.00    -0.207 NA
BRANCH  18  19
ATOM     19  C   UNL     1      -3.715   3.598  24.905  0.00  0.00    +0.095 C 
ATOM     20  C   UNL     1      -4.047   3.214  24.255  0.00  0.00    +0.022 C 
ATOM     21  C   UNL     1      -4.733   2.764  24.348  0.00  0.00    +0.002 C 
ATOM     22  C   UNL     1      -5.085   2.697  25.091  0.00  0.00    +0.000 C 
ATOM     23  C   UNL     1      -4.752   3.081  25.741  0.00  0.00    +0.002 C 
ATOM     24  C   UNL     1      -4.067   3.531  25.648  0.00  0.00    +0.022 C 
ENDBRANCH  18  19
ENDBRANCH  15  16
ENDBRANCH  14  15
TORSDOF 8
ENDMDL
MODEL 3
REMARK VINA RESULT:     -10.2      2.465      5.634
REMARK  Name = 
REMARK  8 active torsions:
REMARK  status: ('A' for Active; 'I' for Inactive)
REMARK    1  A    between atoms: C_2  and  C_3
REMARK    2  A    between atoms: C_3  and  C_4
REMARK    3  A    between atoms: C_4  and  C_5
REMARK    4  A    between atoms: C_7  and  C_8
REMARK    5  A    between atoms: C_8  and  C_9
REMARK    6  A    between atoms: C_14  and  C_15
REMARK    7  A    between atoms: C_15  and  C_16
REMARK    8  A    between atoms: N_18  and  C_19
REMARK                            x       y       z     vdW  Elec       q    Type
REMARK                         _______ _______ _______ _____ _____    ______ ____
ROOT
ATOM      9  C   UNL     1      -0.641   0.439  24.755  0.00  0.00    +0.024 C 
ATOM     10  C   UNL     1       0.001   0.845  24.434  0.00  0.00    +0.089 C 
ATOM     11  N   UNL     1       0.433   0.512  23.816  0.00  0.00    -0.218 NA
ATOM     12  C   UNL     1       0.224  -0.229  23.519  0.00  0.00    +0.089 C 
ATOM     13  C   UNL     1      -0.417  -0.636  23.840  0.00  0.00    +0.019 C 
ATOM     14  C   UNL     1      -0.850  -0.303  24.459  0.00  0.00    +0.012 C 
ENDROOT
BRANCH   9   8
ATOM      8  C   UNL     1      -1.073   0.773  25.373  0.00  0.00    +0.051 C 
BRANCH   8   7
ATOM      5  C   UNL     1      -1.260   2.887  25.603  0.00  0.00    +0.154 A 
ATOM      6  C   UNL     1      -1.549   2.163  25.331  0.00  0.00    +0.054 A 
ATOM      7  C   UNL     1      -1.004   1.578  25.537  0.00  0.00    +0.100 A 
ATOM     25  N   UNL     1      -0.379   1.940  25.935  0.00  0.00    -0.082 NA
ATOM     26  O   UNL     1      -0.537   2.749  25.976  0.00  0.00    -0.358 OA
BRANCH   5   4
ATOM      4  C   UNL     1      -1.629   3.619  25.516  0.00  0.00    +0.067 C 
BRANCH   4   3
ATOM      3  C   UNL     1      -1.200   4.268  25.243  0.00  0.00    +0.008 C 
BRANCH   3   2
ATOM      1  C   UNL     1      -1.165   5.635  24.830  0.00  0.00    +0.000 C 
ATOM      2  C   UNL     1      -1.557   5.010  25.199  0.00  0.00    +0.000 C 
ENDBRANCH   3   2
ENDBRANCH   4   3
ENDBRANCH   5   4
ENDBRANCH   8   7
ENDBRANCH   9   8
BRANCH  14  15
ATOM     15  C   UNL     1      -1.491  -0.709  24.780  0.00  0.00    +0.087 C 
BRANCH  15  16
ATOM     16  C   UNL     1      -1.431  -1.518  24.934  0.00  0.00    +0.241 C 
ATOM     17  O   UNL     1      -0.689  -1.865  25.036  0.00  0.00    -0.273 OA
ATOM     18  N   UNL     1      -2.113  -1.980  24.985  0.00  0.00    -0.207 NA
BRANCH  18  19
ATOM     19  C   UNL     1      -2.855  -1.633  24.882  0.00  0.00    +0.095 C 
ATOM     20  C   UNL     1      -3.211  -1.637  24.138  0.00  0.00    +0.022 C 
ATOM     21  C   UNL     1      -3.953  -1.290  24.036  0.00  0.00    +0.002 C 
ATOM     22  C   UNL     1      -4.338  -0.941  24.676  0.00  0.00    +0.000 C 
ATOM     23  C   UNL     1      -3.981  -0.937  25.420  0.00  0.00    +0.002 C 
ATOM     24  C   UNL     1      -3.239  -1.284  25.523  0.00  0.00    +0.022 C 
ENDBRANCH  18  19
ENDBRANCH  15  16
ENDBRANCH  14  15
TORSDOF 8
ENDMDL
MODEL 4
REMARK VINA RESULT:     -10.0      1.898      4.540
REMARK  Name = 
REMARK  8 active torsions:
REMARK  status: ('A' for Active; 'I' for Inactive)
REMARK    1  A    between atoms: C_2  and  C_3
REMARK    2  A    between atoms: C_3  and  C_4
REMARK    3  A    between atoms: C_4  and  C_5
REMARK    4  A    between atoms: C_7  and  C_8
REMARK    5  A    between atoms: C_8  and  C_9
REMARK    6  A    between atoms: C_14  and  C_15
REMARK    7  A    between atoms: C_15  and  C_16
REMARK    8  A    between atoms: N_18  and  C_19
REMARK                            x       y       z     vdW  Elec       q    Type
REMARK                         _______ _______ _______ _____ _____    ______ ____
ROOT
ATOM      9  C   UNL     1      -1.523   1.396  24.061  0.00  0.00    +0.024 C 
ATOM     10  C   UNL     1      -1.183   2.147  24.066  0.00  0.00    +0.089 C 
ATOM     11  N   UNL     1      -0.501   2.290  24.505  0.00  0.00    -0.218 NA
ATOM     12  C   UNL     1      -0.156   1.679  24.941  0.00  0.00    +0.089 C 
ATOM     13  C   UNL     1      -0.495   0.927  24.937  0.00  0.00    +0.019 C 
ATOM     14  C   UNL     1      -1.179   0.785  24.497  0.00  0.00    +0.012 C 
ENDROOT
BRANCH   9   8
ATOM      8  C   UNL     1      -2.206   1.254  23.621  0.00  0.00    +0.051 C 
BRANCH   8   7
ATOM      5  C   UNL     1      -3.904   2.503  23.959  0.00  0.00    +0.154 A 
ATOM      6  C   UNL     1      -3.415   1.876  24.180  0.00  0.00    +0.054 A 
ATOM      7  C   UNL     1      -2.816   1.809  23.616  0.00  0.00    +0.100 A 
ATOM     25  N   UNL     1      -2.935   2.394  23.047  0.00  0.00    -0.082 NA
ATOM     26  O   UNL     1      -3.608   2.823  23.259  0.00  0.00    -0.358 OA
BRANCH   5   4
ATOM      4  C   UNL     1      -4.571   2.764  24.366  0.00  0.00    +0.067 C 
BRANCH   4   3
ATOM      3  C   UNL     1      -5.024   2.229  24.802  0.00  0.00    +0.008 C 
BRANCH   3   2
ATOM      1  C   UNL     1      -6.051   1.984  25.763  0.00  0.00    +0.000 C 
ATOM      2  C   UNL     1      -5.664   2.498  25.248  0.00  0.00    +0.000 C 
ENDBRANCH   3   2
ENDBRANCH   4   3
ENDBRANCH   5   4
ENDBRANCH   8   7
ENDBRANCH   9   8
BRANCH  14  15
ATOM     15  C   UNL     1      -1.517   0.033  24.492  0.00  0.00    +0.087 C 
BRANCH  15  16
ATOM     16  C   UNL     1      -1.036  -0.637  24.518  0.00  0.00    +0.241 C 
ATOM     17  O   UNL     1      -0.240  -0.581  24.305  0.00  0.00    -0.273 OA
ATOM     18  N   UNL     1      -1.349  -1.361  24.757  0.00  0.00    -0.207 NA
BRANCH  18  19
ATOM     19  C   UNL     1      -2.145  -1.416  24.970  0.00  0.00    +0.095 C 
ATOM     20  C   UNL     1      -2.380  -1.217  25.735  0.00  0.00    +0.022 C 
ATOM     21  C   UNL     1      -3.176  -1.273  25.948  0.00  0.00    +0.002 C 
ATOM     22  C   UNL     1      -3.735  -1.527  25.398  0.00  0.00    +0.000 C 
ATOM     23  C   UNL     1      -3.498  -1.727  24.632  0.00  0.00    +0.002 C 
ATOM     24  C   UNL     1      -2.702  -1.671  24.419  0.00  0.00    +0.022 C 
ENDBRANCH  18  19
ENDBRANCH  15  16
ENDBRANCH  14  15
TORSDOF 8
ENDMDL
MODEL 5
REMARK VINA RESULT:      -9.9      1.927      3.145
REMARK  Name = 
REMARK  8 active torsions:
REMARK  status: ('A' for Active; 'I' for Inactive)
REMARK    1  A    between atoms: C_2  and  C_3
REMARK    2  A    between atoms: C_3  and  C_4
REMARK    3  A    between atoms: C_4  and  C_5
REMARK    4  A    between atoms: C_7  and  C_8
REMARK    5  A    between atoms: C_8  and  C_9
REMARK    6  A    between atoms: C_14  and  C_15
REMARK    7  A    between atoms: C_15  and  C_16
REMARK    8  A    between atoms: N_18  and  C_19
REMARK                            x       y       z     vdW  Elec       q    Type
REMARK                         _______ _______ _______ _____ _____    ______ ____
ROOT
ATOM      9  C   UNL     1      -1.071   0.977  24.560  0.00  0.00    +0.024 C 
ATOM     10  C   UNL     1      -0.848   0.334  24.095  0.00  0.00    +0.089 C 
ATOM     11  N   UNL     1      -0.115   0.331  23.717  0.00  0.00    -0.218 NA
ATOM     12  C   UNL     1       0.396   0.973  23.806  0.00  0.00    +0.089 C 
ATOM     13  C   UNL     1       0.174   1.616  24.271  0.00  0.00    +0.019 C 
ATOM     14  C   UNL     1      -0.560   1.619  24.649  0.00  0.00    +0.012 C 
ENDROOT
BRANCH   9   8
ATOM      8  C   UNL     1      -1.804   0.979  24.938  0.00  0.00    +0.051 C 
BRANCH   8   7
ATOM      5  C   UNL     1      -3.453  -0.223  24.308  0.00  0.00    +0.154 A 
ATOM      6  C   UNL     1      -2.831  -0.068  24.828  0.00  0.00    +0.054 A 
ATOM      7  C   UNL     1      -2.455   0.623  24.577  0.00  0.00    +0.100 A 
ATOM     25  N   UNL     1      -2.845   0.895  23.902  0.00  0.00    -0.082 NA
ATOM     26  O   UNL     1      -3.461   0.372  23.736  0.00  0.00    -0.358 OA
BRANCH   5   4
ATOM      4  C   UNL     1      -3.973  -0.860  24.352  0.00  0.00    +0.067 C 
BRANCH   4   3
ATOM      3  C   UNL     1      -3.809  -1.557  23.943  0.00  0.00    +0.008 C 
BRANCH   3   2
ATOM      1  C   UNL     1      -4.062  -2.962  23.988  0.00  0.00    +0.000 C 
ATOM      2  C   UNL     1      -4.341  -2.187  23.969  0.00  0.00    +0.000 C 
ENDBRANCH   3   2
ENDBRANCH   4   3
ENDBRANCH   5   4
ENDBRANCH   8   7
ENDBRANCH   9   8
BRANCH  14  15
ATOM     15  C   UNL     1      -0.782   2.262  25.114  0.00  0.00    +0.087 C 
BRANCH  15  16
ATOM     16  C   UNL     1      -0.236   2.609  25.627  0.00  0.00    +0.241 C 
ATOM     17  O   UNL     1       0.438   2.191  25.855  0.00  0.00    -0.273 OA
ATOM     18  N   UNL     1      -0.363   3.372  25.910  0.00  0.00    -0.207 NA
BRANCH  18  19
ATOM     19  C   UNL     1      -1.037   3.791  25.682  0.00  0.00    +0.095 C 
ATOM     20  C   UNL     1      -1.004   4.304  25.037  0.00  0.00    +0.022 C 
ATOM     21  C   UNL     1      -1.678   4.722  24.809  0.00  0.00    +0.002 C 
ATOM     22  C   UNL     1      -2.384   4.627  25.225  0.00  0.00    +0.000 C 
ATOM     23  C   UNL     1      -2.417   4.113  25.870  0.00  0.00    +0.002 C 
ATOM     24  C   UNL     1      -1.743   3.695  26.098  0.00  0.00    +0.022 C 
ENDBRANCH  18  19
ENDBRANCH  15  16
ENDBRANCH  14  15
TORSDOF 8
ENDMDL
