MODEL 1
REMARK VINA RESULT:     -11.0      0.000      0.000
REMARK  Name = 
REMARK  8 active torsions:
REMARK  status: ('A' for Active; 'I' for Inactive)
REMARK    1  A    between atoms: O_2  and  C_3
REMARK    2  A    between atoms: C_3  and  C_4
REMARK    3  A    between atoms: C_4  and  N_5
REMARK    4  A    between atoms: N_5  and  C_6
REMARK    5  A    between atoms: C_8  and  C_12
REMARK    6  A    between atoms: C_15  and  C_17
REMARK    7  A    between atoms: N_21  and  C_22
REMARK    8  A    between atoms: C_22  and  C_23
REMARK                            x       y       z     vdW  Elec       q    Type
REMARK                         _______ _______ _______ _____ _____    ______ ____
ROOT
ATOM     12  C   UNL     1      -1.744   1.970  24.596  0.00  0.00    +0.203 A 
ATOM     13  N   UNL     1      -1.518   1.847  23.812  0.00  0.00    -0.056 NA
ATOM     14  O   UNL     1      -1.303   1.055  23.730  0.00  0.00    -0.336 OA
ATOM     15  C   UNL     1      -1.396   0.688  24.463  0.00  0.00    +0.251 A 
ATOM     16  N   UNL     1      -1.669   1.254  24.998  0.00  0.00    -0.190 NA
ENDROOT
BRANCH  12   8
ATOM      6  C   UNL     1      -3.061   3.585  25.246  0.00  0.00    +0.148 A 
ATOM      7  C   UNL     1      -2.805   2.871  24.922  0.00  0.00    +0.039 A 
ATOM      8  C   UNL     1      -2.001   2.684  24.921  0.00  0.00    +0.043 A 
ATOM      9  C   UNL     1      -1.454   3.210  25.243  0.00  0.00    +0.024 A 
ATOM     10  C   UNL     1      -1.710   3.924  25.568  0.00  0.00    +0.100 A 
ATOM     11  N   UNL     1      -2.514   4.112  25.570  0.00  0.00    -0.228 NA
BRANCH   6   5
ATOM      5  N   UNL     1      -3.864   3.772  25.248  0.00  0.00    -0.218 NA
BRANCH   5   4
ATOM      4  C   UNL     1      -4.386   3.351  25.729  0.00  0.00    +0.146 C 
BRANCH   4   3
ATOM      3  C   UNL     1      -5.198   3.395  25.592  0.00  0.00    +0.166 C 
BRANCH   3   2
ATOM      1  C   UNL     1      -6.162   2.405  25.961  0.00  0.00    +0.174 C 
ATOM      2  O   UNL     1      -5.726   3.082  26.144  0.00  0.00    -0.349 OA
ENDBRANCH   3   2
ENDBRANCH   4   3
ENDBRANCH   5   4
ENDBRANCH   6   5
ENDBRANCH  12   8
BRANCH  15  17
ATOM     17  C   UNL     1      -1.243  -0.105  24.631  0.00  0.00    +0.138 C 
ATOM     18  C   UNL     1      -0.500  -0.436  24.772  0.00  0.00    +0.027 C 
ATOM     19  C   UNL     1      -0.604  -1.242  24.917  0.00  0.00    +0.019 C 
ATOM     20  C   UNL     1      -1.410  -1.408  24.866  0.00  0.00    +0.073 C 
ATOM     21  N   UNL     1      -1.806  -0.705  24.690  0.00  0.00    -0.263 NA
BRANCH  21  22
ATOM     22  C   UNL     1      -2.620  -0.619  24.590  0.00  0.00    +0.102 C 
BRANCH  22  23
ATOM     23  C   UNL     1      -3.098  -1.285  24.502  0.00  0.00    +0.021 A 
ATOM     24  C   UNL     1      -2.982  -1.943  24.987  0.00  0.00    -0.001 A 
ATOM     25  C   UNL     1      -3.460  -2.609  24.899  0.00  0.00    -0.000 A 
ATOM     26  C   UNL     1      -4.054  -2.619  24.327  0.00  0.00    +0.002 A 
ATOM     27  C   UNL     1      -4.169  -1.962  23.841  0.00  0.00    +0.029 A 
ATOM     28  C   UNL     1      -3.691  -1.295  23.929  0.00  0.00    +0.137 A 
ATOM     29  F   UNL     1      -3.806  -0.638  23.443  0.00  0.00    -0.204 F 
ENDBRANCH  22  23
ENDBRANCH  21  22
ENDBRANCH  15  17
TORSDOF 8
ENDMDL
MODEL 2
REMARK VINA RESULT:     -10.9      1.725      3.542
REMARK  Name = 
REMARK  8 active torsions:
REMARK  status: ('A' for Active; 'I' for Inactive)
REMARK    1  A    between atoms: O_2  and  C_3
REMARK    2  A    between atoms: C_3  and  C_4
REMARK    3  A    between atoms: C_4  and  N_5
REMARK    4  A    between atoms: N_5  and  C_6
REMARK    5  A    between atoms: C_8  and  C_12
REMARK    6  A    between atoms: C_15  and  C_17
REMARK    7  A    between atoms: N_21  and  C_22
REMARK    8  A    between atoms: C_22  and  C_23
REMARK                            x       y       z     vdW  Elec       q    Type
REMARK                         _______ _______ _______ _____ _____    ______ ____
ROOT
ATOM     12  C   UNL     1      -3.095   3.319  24.724  0.00  0.00    +0.203 A 
ATOM     13  N   UNL     1      -3.554   3.496  24.060  0.00  0.00    -0.056 NA
ATOM     14  O   UNL     1      -4.230   3.024  24.086  0.00  0.00    -0.336 OA
ATOM     15  C   UNL     1      -4.190   2.556  24.764  0.00  0.00    +0.251 A 
ATOM     16  N   UNL     1      -3.488   2.739  25.158  0.00  0.00    -0.190 NA
ENDROOT
BRANCH  12   8
ATOM      6  C   UNL     1      -0.968   3.539  25.159  0.00  0.00    +0.148 A 
ATOM      7  C   UNL     1      -1.692   3.195  24.966  0.00  0.00    +0.039 A 
ATOM      8  C   UNL     1      -2.370   3.663  24.917  0.00  0.00    +0.043 A 
ATOM      9  C   UNL     1      -2.324   4.473  25.062  0.00  0.00    +0.024 A 
ATOM     10  C   UNL     1      -1.600   4.817  25.256  0.00  0.00    +0.100 A 
ATOM     11  N   UNL     1      -0.921   4.351  25.305  0.00  0.00    -0.228 NA
BRANCH   6   5
ATOM      5  N   UNL     1      -0.289   3.073  25.208  0.00  0.00    -0.218 NA
BRANCH   5   4
ATOM      4  C   UNL     1      -0.052   2.619  24.561  0.00  0.00    +0.146 C 
BRANCH   4   3
ATOM      3  C   UNL     1       0.471   1.990  24.668  0.00  0.00    +0.166 C 
BRANCH   3   2
ATOM      1  C   UNL     1       0.980   1.064  23.706  0.00  0.00    +0.174 C 
ATOM      2  O   UNL     1       1.013   1.800  24.076  0.00  0.00    -0.349 OA
ENDBRANCH   3   2
ENDBRANCH   4   3
ENDBRANCH   5   4
ENDBRANCH   6   5
ENDBRANCH  12   8
BRANCH  15  17
ATOM     17  C   UNL     1      -4.752   2.003  25.006  0.00  0.00    +0.138 C 
ATOM     18  C   UNL     1      -5.456   2.170  25.403  0.00  0.00    +0.027 C 
ATOM     19  C   UNL     1      -5.848   1.456  25.536  0.00  0.00    +0.019 C 
ATOM     20  C   UNL     1      -5.386   0.849  25.222  0.00  0.00    +0.073 C 
ATOM     21  N   UNL     1      -4.708   1.187  24.895  0.00  0.00    -0.263 NA
BRANCH  21  22
ATOM     22  C   UNL     1      -4.096   0.780  24.522  0.00  0.00    +0.102 C 
BRANCH  22  23
ATOM     23  C   UNL     1      -3.987  -0.024  24.666  0.00  0.00    +0.021 A 
ATOM     24  C   UNL     1      -3.874  -0.294  25.437  0.00  0.00    -0.001 A 
ATOM     25  C   UNL     1      -3.765  -1.099  25.581  0.00  0.00    -0.000 A 
ATOM     26  C   UNL     1      -3.769  -1.634  24.954  0.00  0.00    +0.002 A 
ATOM     27  C   UNL     1      -3.882  -1.365  24.182  0.00  0.00    +0.029 A 
ATOM     28  C   UNL     1      -3.991  -0.560  24.038  0.00  0.00    +0.137 A 
ATOM     29  F   UNL     1      -4.104  -0.291  23.267  0.00  0.00    -0.204 F 
ENDBRANCH  22  23
ENDBRANCH  21  22
ENDBRANCH  15  17
TORSDOF 8
ENDMDL
MODEL 3
REMARK VINA RESULT:     -10.7      1.585      2.916
REMARK  Name = 
REMARK  8 active torsions:
REMARK  status: ('A' for Active; 'I' for Inactive)
REMARK    1  A    between atoms: O_2  and  C_3
REMARK    2  A    between atoms: C_3  and  C_4
REMARK    3  A    between atoms: C_4  and  N_5
REMARK    4  A    between atoms: N_5  and  C_6
REMARK    5  A    between atoms: C_8  and  C_12
REMARK    6  A    between atoms: C_15  and  C_17
REMARK    7  A    between atoms: N_21  and  C_22
REMARK    8  A    between atoms: C_22  and  C_23
REMARK                            x       y       z     vdW  Elec       q    Type
REMARK                         _______ _______ _______ _____ _____    ______ ____
ROOT
ATOM     12  C   UNL     1      -4.048   1.543  24.429  0.00  0.00    +0.203 A 
ATOM     13  N   UNL     1      -3.827   1.468  23.637  0.00  0.00    -0.056 NA
ATOM     14  O   UNL     1      -3.691   0.668  23.486  0.00  0.00    -0.336 OA
ATOM     15  C   UNL     1      -3.828   0.249  24.184  0.00  0.00    +0.251 A 
ATOM     16  N   UNL     1      -4.049   0.791  24.766  0.00  0.00    -0.190 NA
ENDROOT
BRANCH  12   8
ATOM      6  C   UNL     1      -3.821   3.429  25.504  0.00  0.00    +0.148 A 
ATOM      7  C   UNL     1      -3.634   2.724  25.118  0.00  0.00    +0.039 A 
ATOM      8  C   UNL     1      -4.235   2.248  24.815  0.00  0.00    +0.043 A 
ATOM      9  C   UNL     1      -5.023   2.475  24.898  0.00  0.00    +0.024 A 
ATOM     10  C   UNL     1      -5.211   3.180  25.284  0.00  0.00    +0.100 A 
ATOM     11  N   UNL     1      -4.610   3.657  25.587  0.00  0.00    -0.228 NA
BRANCH   6   5
ATOM      5  N   UNL     1      -3.220   3.906  25.807  0.00  0.00    -0.218 NA
BRANCH   5   4
ATOM      4  C   UNL     1      -2.684   4.270  25.296  0.00  0.00    +0.146 C 
BRANCH   4   3
ATOM      3  C   UNL     1      -1.983   4.588  25.593  0.00  0.00    +0.166 C 
BRANCH   3   2
ATOM      1  C   UNL     1      -0.816   5.055  24.913  0.00  0.00    +0.174 C 
ATOM      2  O   UNL     1      -1.589   5.179  25.174  0.00  0.00    -0.349 OA
ENDBRANCH   3   2
ENDBRANCH   4   3
ENDBRANCH   5   4
ENDBRANCH   6   5
ENDBRANCH  12   8
BRANCH  15  17
ATOM     17  C   UNL     1      -3.757  -0.566  24.282  0.00  0.00    +0.138 C 
ATOM     18  C   UNL     1      -4.352  -1.124  24.154  0.00  0.00    +0.027 C 
ATOM     19  C   UNL     1      -4.042  -1.871  24.318  0.00  0.00    +0.019 C 
ATOM     20  C   UNL     1      -3.256  -1.775  24.548  0.00  0.00    +0.073 C 
ATOM     21  N   UNL     1      -3.079  -0.969  24.525  0.00  0.00    -0.263 NA
BRANCH  21  22
ATOM     22  C   UNL     1      -2.353  -0.626  24.714  0.00  0.00    +0.102 C 
BRANCH  22  23
ATOM     23  C   UNL     1      -1.701  -1.104  24.877  0.00  0.00    +0.021 A 
ATOM     24  C   UNL     1      -1.498  -1.714  24.360  0.00  0.00    -0.001 A 
ATOM     25  C   UNL     1      -0.846  -2.192  24.523  0.00  0.00    -0.000 A 
ATOM     26  C   UNL     1      -0.397  -2.060  25.202  0.00  0.00    +0.002 A 
ATOM     27  C   UNL     1      -0.600  -1.450  25.719  0.00  0.00    +0.029 A 
ATOM     28  C   UNL     1      -1.253  -0.972  25.556  0.00  0.00    +0.137 A 
ATOM     29  F   UNL     1      -1.455  -0.362  26.073  0.00  0.00    -0.204 F 
ENDBRANCH  22  23
ENDBRANCH  21  22
ENDBRANCH  15  17
TORSDOF 8
ENDMDL
MODEL 4
REMARK VINA RESULT:     -10.7      1.564      4.748
REMARK  Name = 
REMARK  8 active torsions:
REMARK  status: ('A' for Active; 'I' for Inactive)
REMARK    1  A    between atoms: O_2  and  C_3
REMARK    2  A    between atoms: C_3  and  C_4
REMARK    3  A    between atoms: C_4  and  N_5
REMARK    4  A    between atoms: N_5  and  C_6
REMARK    5  A    between atoms: C_8  and  C_12
REMARK    6  A    between atoms: C_15  and  C_17
REMARK    7  A    between atoms: N_21  and  C_22
REMARK    8  A    between atoms: C_22  and  C_23
REMARK                            x       y       z     vdW  Elec       q    Type
REMARK                         _______ _______ _______ _____ _____    ______ ____
ROOT
ATOM     12  C   UNL     1      -0.510   1.508  25.000  0.00  0.00    +0.203 A 
ATOM     13  N   UNL     1      -0.285   1.697  25.771  0.00  0.00    -0.056 NA
ATOM     14  O   UNL     1      -0.576   2.450  25.945  0.00  0.00    -0.336 OA
ATOM     15  C   UNL     1      -0.981   2.726  25.281  0.00  0.00    +0.251 A 
ATOM     16  N   UNL     1      -0.940   2.144  24.698  0.00  0.00    -0.190 NA
ENDROOT
BRANCH  12   8
ATOM      6  C   UNL     1      -0.500  -0.605  24.454  0.00  0.00    +0.148 A 
ATOM      7  C   UNL     1      -0.674   0.097  24.852  0.00  0.00    +0.039 A 
ATOM      8  C   UNL     1      -0.336   0.807  24.602  0.00  0.00    +0.043 A 
ATOM      9  C   UNL     1       0.175   0.816  23.955  0.00  0.00    +0.024 A 
ATOM     10  C   UNL     1       0.349   0.115  23.557  0.00  0.00    +0.100 A 
ATOM     11  N   UNL     1       0.012  -0.596  23.806  0.00  0.00    -0.228 NA
BRANCH   6   5
ATOM      5  N   UNL     1      -0.836  -1.315  24.703  0.00  0.00    -0.218 NA
BRANCH   5   4
ATOM      4  C   UNL     1      -1.573  -1.548  24.412  0.00  0.00    +0.146 C 
BRANCH   4   3
ATOM      3  C   UNL     1      -1.946  -2.215  24.722  0.00  0.00    +0.166 C 
BRANCH   3   2
ATOM      1  C   UNL     1      -3.304  -2.661  24.709  0.00  0.00    +0.174 C 
ATOM      2  O   UNL     1      -2.583  -2.554  24.322  0.00  0.00    -0.349 OA
ENDBRANCH   3   2
ENDBRANCH   4   3
ENDBRANCH   5   4
ENDBRANCH   6   5
ENDBRANCH  12   8
BRANCH  15  17
ATOM     17  C   UNL     1      -1.360   3.455  25.213  0.00  0.00    +0.138 C 
ATOM     18  C   UNL     1      -0.991   4.193  25.199  0.00  0.00    +0.027 C 
ATOM     19  C   UNL     1      -1.578   4.770  25.124  0.00  0.00    +0.019 C 
ATOM     20  C   UNL     1      -2.308   4.387  25.091  0.00  0.00    +0.073 C 
ATOM     21  N   UNL     1      -2.173   3.575  25.146  0.00  0.00    -0.263 NA
BRANCH  21  22
ATOM     22  C   UNL     1      -2.751   2.986  25.136  0.00  0.00    +0.102 C 
BRANCH  22  23
ATOM     23  C   UNL     1      -3.545   3.186  25.229  0.00  0.00    +0.021 A 
ATOM     24  C   UNL     1      -3.787   3.624  25.885  0.00  0.00    -0.001 A 
ATOM     25  C   UNL     1      -4.582   3.824  25.978  0.00  0.00    -0.000 A 
ATOM     26  C   UNL     1      -5.135   3.587  25.415  0.00  0.00    +0.002 A 
ATOM     27  C   UNL     1      -4.895   3.149  24.759  0.00  0.00    +0.029 A 
ATOM     28  C   UNL     1      -4.099   2.948  24.666  0.00  0.00    +0.137 A 
ATOM     29  F   UNL     1      -3.859   2.510  24.010  0.00  0.00    -0.204 F 
ENDBRANCH  22  23
ENDBRANCH  21  22
ENDBRANCH  15  17
TORSDOF 8
ENDMDL
MODEL 5
REMARK VINA RESULT:     -10.6      1.720      5.360
REMARK  Name = 
REMARK  8 active torsions:
REMARK  status: ('A' for Active; 'I' for Inactive)
REMARK    1  A    between atoms: O_2  and  C_3
REMARK    2  A    between atoms: C_3  and  C_4
REMARK    3  A    between atoms: C_4  and  N_5
REMARK    4  A    between atoms: N_5  and  C_6
REMARK    5  A    between atoms: C_8  and  C_12
REMARK    6  A    between atoms: C_15  and  C_17
REMARK    7  A    between atoms: N_21  and  C_22
REMARK    8  A    between atoms: C_22  and  C_23
REMARK                            x       y       z     vdW  Elec       q    Type
REMARK                         _______ _______ _______ _____ _____    ______ ____
ROOT
ATOM     12  C   UNL     1      -4.037  -0.121  24.778  0.00  0.00    +0.203 A 
ATOM     13  N   UNL     1      -4.509   0.012  24.114  0.00  0.00    -0.056 NA
ATOM     14  O   UNL     1      -4.909   0.725  24.225  0.00  0.00    -0.336 OA
ATOM     15  C   UNL     1      -4.685   1.032  24.957  0.00  0.00    +0.251 A 
ATOM     16  N   UNL     1      -4.145   0.509  25.298  0.00  0.00    -0.190 NA
ENDROOT
BRANCH  12   8
ATOM      6  C   UNL     1      -2.230  -1.319  25.033  0.00  0.00    +0.148 A 
ATOM      7  C   UNL     1      -2.724  -0.669  24.911  0.00  0.00    +0.039 A 
ATOM      8  C   UNL     1      -3.543  -0.771  24.899  0.00  0.00    +0.043 A 
ATOM      9  C   UNL     1      -3.868  -1.521  25.009  0.00  0.00    +0.024 A 
ATOM     10  C   UNL     1      -3.374  -2.170  25.130  0.00  0.00    +0.100 A 
ATOM     11  N   UNL     1      -2.555  -2.070  25.142  0.00  0.00    -0.228 NA
BRANCH   6   5
ATOM      5  N   UNL     1      -1.411  -1.219  25.045  0.00  0.00    -0.218 NA
BRANCH   5   4
ATOM      4  C   UNL     1      -0.996  -1.125  24.338  0.00  0.00    +0.146 C 
BRANCH   4   3
ATOM      3  C   UNL     1      -0.248  -0.777  24.343  0.00  0.00    +0.166 C 
BRANCH   3   2
ATOM      1  C   UNL     1       0.642  -0.120  23.439  0.00  0.00    +0.174 C 
ATOM      2  O   UNL     1       0.217  -0.790  23.662  0.00  0.00    -0.349 OA
ENDBRANCH   3   2
ENDBRANCH   4   3
ENDBRANCH   5   4
ENDBRANCH   6   5
ENDBRANCH  12   8
BRANCH  15  17
ATOM     17  C   UNL     1      -4.952   1.738  25.289  0.00  0.00    +0.138 C 
ATOM     18  C   UNL     1      -5.658   1.842  25.704  0.00  0.00    +0.027 C 
ATOM     19  C   UNL     1      -5.703   2.633  25.936  0.00  0.00    +0.019 C 
ATOM     20  C   UNL     1      -5.025   3.017  25.665  0.00  0.00    +0.073 C 
ATOM     21  N   UNL     1      -4.561   2.465  25.264  0.00  0.00    -0.263 NA
BRANCH  21  22
ATOM     22  C   UNL     1      -3.834   2.612  24.904  0.00  0.00    +0.102 C 
BRANCH  22  23
ATOM     23  C   UNL     1      -3.385   3.264  25.133  0.00  0.00    +0.021 A 
ATOM     24  C   UNL     1      -3.186   3.370  25.927  0.00  0.00    -0.001 A 
ATOM     25  C   UNL     1      -2.737   4.022  26.157  0.00  0.00    -0.000 A 
ATOM     26  C   UNL     1      -2.485   4.569  25.593  0.00  0.00    +0.002 A 
ATOM     27  C   UNL     1      -2.683   4.464  24.799  0.00  0.00    +0.029 A 
ATOM     28  C   UNL     1      -3.133   3.811  24.570  0.00  0.00    +0.137 A 
ATOM     29  F   UNL     1      -3.331   3.706  23.775  0.00  0.00    -0.204 F 
ENDBRANCH  22  23
ENDBRANCH  21  22
ENDBRANCH  15  17
TORSDOF 8
ENDMDL
MODEL 6
REMARK VINA RESULT:     -10.2      2.006      5.215
REMARK  Name = 
REMARK  8 active torsions:
REMARK  status: ('A' for Active; 'I' for Inactive)
REMARK    1  A    between atoms: O_2  and  C_3
REMARK    2  A    between atoms: C_3  and  C_4
REMARK    3  A    between atoms: C_4  and  N_5
REMARK    4  A    between atoms: N_5  and  C_6
REMARK    5  A    between atoms: C_8  and  C_12
REMARK    6  A    between atoms: C_15  and  C_17
REMARK    7  A    between atoms: N_21  and  C_22
REMARK    8  A    between atoms: C_22  and  C_23
REMARK                            x       y       z     vdW  Elec       q    Type
REMARK                         _______ _______ _______ _____ _____    ______ ____
ROOT
ATOM     12  C   UNL     1      -1.177   1.392  24.028  0.00  0.00    +0.203 A 
ATOM     13  N   UNL     1      -1.436   1.838  23.384  0.00  0.00    -0.056 NA
ATOM     14  O   UNL     1      -1.857   2.486  23.675  0.00  0.00    -0.336 OA
ATOM     15  C   UNL     1      -1.858   2.440  24.498  0.00  0.00    +0.251 A 
ATOM     16  N   UNL     1      -1.438   1.764  24.717  0.00  0.00    -0.190 NA
ENDROOT
BRANCH  12   8
ATOM      6  C   UNL     1       0.336  -0.059  23.421  0.00  0.00    +0.148 A 
ATOM      7  C   UNL     1      -0.106   0.636  23.459  0.00  0.00    +0.039 A 
ATOM      8  C   UNL     1      -0.735   0.696  23.990  0.00  0.00    +0.043 A 
ATOM      9  C   UNL     1      -0.922   0.062  24.482  0.00  0.00    +0.024 A 
ATOM     10  C   UNL     1      -0.480  -0.634  24.444  0.00  0.00    +0.100 A 
ATOM     11  N   UNL     1       0.148  -0.695  23.914  0.00  0.00    -0.228 NA
BRANCH   6   5
ATOM      5  N   UNL     1       0.965  -0.121  22.891  0.00  0.00    -0.218 NA
BRANCH   5   4
ATOM      4  C   UNL     1       1.720   0.123  23.117  0.00  0.00    +0.146 C 
BRANCH   4   3
ATOM      3  C   UNL     1       2.324   0.165  22.556  0.00  0.00    +0.166 C 
BRANCH   3   2
ATOM      1  C   UNL     1       3.669   0.643  22.484  0.00  0.00    +0.174 C 
ATOM      2  O   UNL     1       3.112   0.120  22.795  0.00  0.00    -0.349 OA
ENDBRANCH   3   2
ENDBRANCH   4   3
ENDBRANCH   5   4
ENDBRANCH   6   5
ENDBRANCH  12   8
BRANCH  15  17
ATOM     17  C   UNL     1      -2.215   2.975  25.013  0.00  0.00    +0.138 C 
ATOM     18  C   UNL     1      -1.829   3.554  25.457  0.00  0.00    +0.027 C 
ATOM     19  C   UNL     1      -2.397   3.963  25.893  0.00  0.00    +0.019 C 
ATOM     20  C   UNL     1      -3.135   3.637  25.720  0.00  0.00    +0.073 C 
ATOM     21  N   UNL     1      -3.023   3.027  25.176  0.00  0.00    -0.263 NA
BRANCH  21  22
ATOM     22  C   UNL     1      -3.614   2.551  24.853  0.00  0.00    +0.102 C 
BRANCH  22  23
ATOM     23  C   UNL     1      -4.388   2.611  25.129  0.00  0.00    +0.021 A 
ATOM     24  C   UNL     1      -4.741   3.352  25.214  0.00  0.00    -0.001 A 
ATOM     25  C   UNL     1      -5.515   3.412  25.490  0.00  0.00    -0.000 A 
ATOM     26  C   UNL     1      -5.939   2.730  25.682  0.00  0.00    +0.002 A 
ATOM     27  C   UNL     1      -5.587   1.989  25.597  0.00  0.00    +0.029 A 
ATOM     28  C   UNL     1      -4.812   1.929  25.320  0.00  0.00    +0.137 A 
ATOM     29  F   UNL     1      -4.461   1.188  25.235  0.00  0.00    -0.204 F 
ENDBRANCH  22  23
ENDBRANCH  21  22
ENDBRANCH  15  17
TORSDOF 8
ENDMDL
MODEL 7
REMARK VINA RESULT:      -8.2     17.100     18.847
REMARK  Name = 
REMARK  8 active torsions:
REMARK  status: ('A' for Active; 'I' for Inactive)
REMARK    1  A    between atoms: O_2  and  C_3
REMARK    2  A    between atoms: C_3  and  C_4
REMARK    3  A    between atoms: C_4  and  N_5
REMARK    4  A    between atoms: N_5  and  C_6
REMARK    5  A    between atoms: C_8  and  C_12
REMARK    6  A    between atoms: C_15  and  C_17
REMARK    7  A    between atoms: N_21  and  C_22
REMARK    8  A    between atoms: C_22  and  C_23
REMARK                            x       y       z     vdW  Elec       q    Type
REMARK                         _______ _______ _______ _____ _____    ______ ____
ROOT
ATOM     12  C   UNL     1      12.802   7.877  20.915  0.00  0.00    +0.203 A 
ATOM     13  N   UNL     1      12.867   7.276  21.477  0.00  0.00    -0.056 NA
ATOM     14  O   UNL     1      13.656   7.234  21.716  0.00  0.00    -0.336 OA
ATOM     15  C   UNL     1      14.078   7.809  21.303  0.00  0.00    +0.251 A 
ATOM     16  N   UNL     1      13.551   8.207  20.808  0.00  0.00    -0.190 NA
ENDROOT
BRANCH  12   8
ATOM      6  C   UNL     1      11.454   8.618  19.368  0.00  0.00    +0.148 A 
ATOM      7  C   UNL     1      12.145   8.387  19.754  0.00  0.00    +0.039 A 
ATOM      8  C   UNL     1      12.111   8.108  20.530  0.00  0.00    +0.043 A 
ATOM      9  C   UNL     1      11.386   8.060  20.919  0.00  0.00    +0.024 A 
ATOM     10  C   UNL     1      10.694   8.291  20.533  0.00  0.00    +0.100 A 
ATOM     11  N   UNL     1      10.727   8.570  19.758  0.00  0.00    -0.228 NA
BRANCH   6   5
ATOM      5  N   UNL     1      11.487   8.897  18.592  0.00  0.00    -0.218 NA
BRANCH   5   4
ATOM      4  C   UNL     1      11.080   8.501  17.993  0.00  0.00    +0.146 C 
BRANCH   4   3
ATOM      3  C   UNL     1      11.259   8.655  17.202  0.00  0.00    +0.166 C 
BRANCH   3   2
ATOM      1  C   UNL     1      10.491   8.509  16.006  0.00  0.00    +0.174 C 
ATOM      2  O   UNL     1      10.946   8.176  16.608  0.00  0.00    -0.349 OA
ENDBRANCH   3   2
ENDBRANCH   4   3
ENDBRANCH   5   4
ENDBRANCH   6   5
ENDBRANCH  12   8
BRANCH  15  17
ATOM     17  C   UNL     1      14.886   7.961  21.372  0.00  0.00    +0.138 C 
ATOM     18  C   UNL     1      15.231   8.554  21.831  0.00  0.00    +0.027 C 
ATOM     19  C   UNL     1      16.049   8.506  21.737  0.00  0.00    +0.019 C 
ATOM     20  C   UNL     1      16.210   7.884  21.220  0.00  0.00    +0.073 C 
ATOM     21  N   UNL     1      15.491   7.547  20.994  0.00  0.00    -0.263 NA
BRANCH  21  22
ATOM     22  C   UNL     1      15.396   6.908  20.482  0.00  0.00    +0.102 C 
BRANCH  22  23
ATOM     23  C   UNL     1      16.049   6.588  20.094  0.00  0.00    +0.021 A 
ATOM     24  C   UNL     1      16.751   6.457  20.508  0.00  0.00    -0.001 A 
ATOM     25  C   UNL     1      17.405   6.137  20.121  0.00  0.00    -0.000 A 
ATOM     26  C   UNL     1      17.358   5.948  19.319  0.00  0.00    +0.002 A 
ATOM     27  C   UNL     1      16.657   6.078  18.905  0.00  0.00    +0.029 A 
ATOM     28  C   UNL     1      16.002   6.399  19.293  0.00  0.00    +0.137 A 
ATOM     29  F   UNL     1      15.301   6.529  18.878  0.00  0.00    -0.204 F 
ENDBRANCH  22  23
ENDBRANCH  21  22
ENDBRANCH  15  17
TORSDOF 8
ENDMDL
MODEL 8
REMARK VINA RESULT:      -7.5     17.575     19.400
REMARK  Name = 
REMARK  8 active torsions:
REMARK  status: ('A' for Active; 'I' for Inactive)
REMARK    1  A    between atoms: O_2  and  C_3
REMARK    2  A    between atoms: C_3  and  C_4
REMARK    3  A    between atoms: C_4  and  N_5
REMARK    4  A    between atoms: N_5  and  C_6
REMARK    5  A    between atoms: C_8  and  C_12
REMARK    6  A    between atoms: C_15  and  C_17
REMARK    7  A    between atoms: N_21  and  C_22
REMARK    8  A    between atoms: C_22  and  C_23
REMARK                            x       y       z     vdW  Elec       q    Type
REMARK                         _______ _______ _______ _____ _____    ______ ____
ROOT
ATOM     12  C   UNL     1      12.522   7.588  18.961  0.00  0.00    +0.203 A 
ATOM     13  N   UNL     1      12.365   6.812  19.197  0.00  0.00    -0.056 NA
ATOM     14  O   UNL     1      12.755   6.680  19.912  0.00  0.00    -0.336 OA
ATOM     15  C   UNL     1      13.153   7.372  20.118  0.00  0.00    +0.251 A 
ATOM     16  N   UNL     1      13.009   7.933  19.530  0.00  0.00    -0.190 NA
ENDROOT
BRANCH  12   8
ATOM      6  C   UNL     1      12.485   8.705  17.087  0.00  0.00    +0.148 A 
ATOM      7  C   UNL     1      12.766   8.341  17.772  0.00  0.00    +0.039 A 
ATOM      8  C   UNL     1      12.241   7.952  18.276  0.00  0.00    +0.043 A 
ATOM      9  C   UNL     1      11.437   7.928  18.097  0.00  0.00    +0.024 A 
ATOM     10  C   UNL     1      11.156   8.292  17.412  0.00  0.00    +0.100 A 
ATOM     11  N   UNL     1      11.680   8.681  16.907  0.00  0.00    -0.228 NA
BRANCH   6   5
ATOM      5  N   UNL     1      13.009   9.094  16.582  0.00  0.00    -0.218 NA
BRANCH   5   4
ATOM      4  C   UNL     1      13.396   8.675  15.985  0.00  0.00    +0.146 C 
BRANCH   4   3
ATOM      3  C   UNL     1      14.136   8.924  15.720  0.00  0.00    +0.166 C 
BRANCH   3   2
ATOM      1  C   UNL     1      15.032   9.003  14.610  0.00  0.00    +0.174 C 
ATOM      2  O   UNL     1      14.465   8.589  15.042  0.00  0.00    -0.349 OA
ENDBRANCH   3   2
ENDBRANCH   4   3
ENDBRANCH   5   4
ENDBRANCH   6   5
ENDBRANCH  12   8
BRANCH  15  17
ATOM     17  C   UNL     1      13.614   7.485  20.792  0.00  0.00    +0.138 C 
ATOM     18  C   UNL     1      13.365   7.837  21.496  0.00  0.00    +0.027 C 
ATOM     19  C   UNL     1      14.003   7.835  22.021  0.00  0.00    +0.019 C 
ATOM     20  C   UNL     1      14.644   7.482  21.642  0.00  0.00    +0.073 C 
ATOM     21  N   UNL     1      14.404   7.266  20.882  0.00  0.00    -0.263 NA
BRANCH  21  22
ATOM     22  C   UNL     1      14.872   6.895  20.313  0.00  0.00    +0.102 C 
BRANCH  22  23
ATOM     23  C   UNL     1      15.679   6.789  20.448  0.00  0.00    +0.021 A 
ATOM     24  C   UNL     1      15.939   6.467  21.162  0.00  0.00    -0.001 A 
ATOM     25  C   UNL     1      16.746   6.361  21.297  0.00  0.00    -0.000 A 
ATOM     26  C   UNL     1      17.292   6.576  20.718  0.00  0.00    +0.002 A 
ATOM     27  C   UNL     1      17.033   6.897  20.004  0.00  0.00    +0.029 A 
ATOM     28  C   UNL     1      16.225   7.004  19.869  0.00  0.00    +0.137 A 
ATOM     29  F   UNL     1      15.966   7.325  19.155  0.00  0.00    -0.204 F 
ENDBRANCH  22  23
ENDBRANCH  21  22
ENDBRANCH  15  17
TORSDOF 8
ENDMDL
MODEL 9
REMARK VINA RESULT:      -7.4     16.972     18.976
REMARK  Name = 
REMARK  8 active torsions:
REMARK  status: ('A' for Active; 'I' for Inactive)
REMARK    1  A    between atoms: O_2  and  C_3
REMARK    2  A    between atoms: C_3  and  C_4
REMARK    3  A    between atoms: C_4  and  N_5
REMARK    4  A    between atoms: N_5  and  C_6
REMARK    5  A    between atoms: C_8  and  C_12
REMARK    6  A    between atoms: C_15  and  C_17
REMARK    7  A    between atoms: N_21  and  C_22
REMARK    8  A    between atoms: C_22  and  C_23
REMARK                            x       y       z     vdW  Elec       q    Type
REMARK                         _______ _______ _______ _____ _____    ______ ____
ROOT
ATOM     12  C   UNL     1      13.651   7.168  20.718  0.00  0.00    +0.203 A 
ATOM     13  N   UNL     1      13.197   6.487  20.612  0.00  0.00    -0.056 NA
ATOM     14  O   UNL     1      12.450   6.717  20.346  0.00  0.00    -0.336 OA
ATOM     15  C   UNL     1      12.443   7.540  20.288  0.00  0.00    +0.251 A 
ATOM     16  N   UNL     1      13.186   7.818  20.518  0.00  0.00    -0.190 NA
ENDROOT
BRANCH  12   8
ATOM      6  C   UNL     1      15.790   6.761  20.863  0.00  0.00    +0.148 A 
ATOM      7  C   UNL     1      15.008   6.736  20.602  0.00  0.00    +0.039 A 
ATOM      8  C   UNL     1      14.433   7.193  20.979  0.00  0.00    +0.043 A 
ATOM      9  C   UNL     1      14.640   7.674  21.616  0.00  0.00    +0.024 A 
ATOM     10  C   UNL     1      15.422   7.699  21.876  0.00  0.00    +0.100 A 
ATOM     11  N   UNL     1      15.998   7.243  21.501  0.00  0.00    -0.228 NA
BRANCH   6   5
ATOM      5  N   UNL     1      16.366   6.304  20.488  0.00  0.00    -0.218 NA
BRANCH   5   4
ATOM      4  C   UNL     1      16.467   6.358  19.671  0.00  0.00    +0.146 C 
BRANCH   4   3
ATOM      3  C   UNL     1      17.035   5.892  19.294  0.00  0.00    +0.166 C 
BRANCH   3   2
ATOM      1  C   UNL     1      17.401   5.502  17.969  0.00  0.00    +0.174 C 
ATOM      2  O   UNL     1      16.852   5.513  18.585  0.00  0.00    -0.349 OA
ENDBRANCH   3   2
ENDBRANCH   4   3
ENDBRANCH   5   4
ENDBRANCH   6   5
ENDBRANCH  12   8
BRANCH  15  17
ATOM     17  C   UNL     1      11.807   8.004  20.042  0.00  0.00    +0.138 C 
ATOM     18  C   UNL     1      11.208   8.300  20.527  0.00  0.00    +0.027 C 
ATOM     19  C   UNL     1      10.688   8.732  20.054  0.00  0.00    +0.019 C 
ATOM     20  C   UNL     1      10.965   8.703  19.278  0.00  0.00    +0.073 C 
ATOM     21  N   UNL     1      11.657   8.253  19.270  0.00  0.00    -0.263 NA
BRANCH  21  22
ATOM     22  C   UNL     1      12.117   8.082  18.608  0.00  0.00    +0.102 C 
BRANCH  22  23
ATOM     23  C   UNL     1      11.897   8.370  17.867  0.00  0.00    +0.021 A 
ATOM     24  C   UNL     1      11.139   8.224  17.576  0.00  0.00    -0.001 A 
ATOM     25  C   UNL     1      10.919   8.513  16.835  0.00  0.00    -0.000 A 
ATOM     26  C   UNL     1      11.456   8.947  16.385  0.00  0.00    +0.002 A 
ATOM     27  C   UNL     1      12.215   9.093  16.676  0.00  0.00    +0.029 A 
ATOM     28  C   UNL     1      12.435   8.805  17.417  0.00  0.00    +0.137 A 
ATOM     29  F   UNL     1      13.193   8.951  17.708  0.00  0.00    -0.204 F 
ENDBRANCH  22  23
ENDBRANCH  21  22
ENDBRANCH  15  17
TORSDOF 8
ENDMDL
MODEL 10
REMARK VINA RESULT:      -7.2     16.517     18.312
REMARK  Name = 
REMARK  8 active torsions:
REMARK  status: ('A' for Active; 'I' for Inactive)
REMARK    1  A    between atoms: O_2  and  C_3
REMARK    2  A    between atoms: C_3  and  C_4
REMARK    3  A    between atoms: C_4  and  N_5
REMARK    4  A    between atoms: N_5  and  C_6
REMARK    5  A    between atoms: C_8  and  C_12
REMARK    6  A    between atoms: C_15  and  C_17
REMARK    7  A    between atoms: N_21  and  C_22
REMARK    8  A    between atoms: C_22  and  C_23
REMARK                            x       y       z     vdW  Elec       q    Type
REMARK                         _______ _______ _______ _____ _____    ______ ____
ROOT
ATOM     12  C   UNL     1      14.182   7.455  18.735  0.00  0.00    +0.203 A 
ATOM     13  N   UNL     1      14.391   6.711  19.025  0.00  0.00    -0.056 NA
ATOM     14  O   UNL     1      14.322   6.730  19.848  0.00  0.00    -0.336 OA
ATOM     15  C   UNL     1      14.070   7.485  20.065  0.00  0.00    +0.251 A 
ATOM     16  N   UNL     1      13.984   7.933  19.377  0.00  0.00    -0.190 NA
ENDROOT
BRANCH  12   8
ATOM      6  C   UNL     1      13.593   8.436  16.877  0.00  0.00    +0.148 A 
ATOM      7  C   UNL     1      13.602   8.211  17.670  0.00  0.00    +0.039 A 
ATOM      8  C   UNL     1      14.173   7.681  17.941  0.00  0.00    +0.043 A 
ATOM      9  C   UNL     1      14.735   7.376  17.420  0.00  0.00    +0.024 A 
ATOM     10  C   UNL     1      14.726   7.602  16.627  0.00  0.00    +0.100 A 
ATOM     11  N   UNL     1      14.155   8.132  16.354  0.00  0.00    -0.228 NA
BRANCH   6   5
ATOM      5  N   UNL     1      13.022   8.966  16.604  0.00  0.00    -0.218 NA
BRANCH   5   4
ATOM      4  C   UNL     1      12.365   8.688  16.190  0.00  0.00    +0.146 C 
BRANCH   4   3
ATOM      3  C   UNL     1      11.648   9.094  16.235  0.00  0.00    +0.166 C 
BRANCH   3   2
ATOM      1  C   UNL     1      10.290   8.721  15.992  0.00  0.00    +0.174 C 
ATOM      2  O   UNL     1      11.039   8.915  15.708  0.00  0.00    -0.349 OA
ENDBRANCH   3   2
ENDBRANCH   4   3
ENDBRANCH   5   4
ENDBRANCH   6   5
ENDBRANCH  12   8
BRANCH  15  17
ATOM     17  C   UNL     1      13.929   7.747  20.834  0.00  0.00    +0.138 C 
ATOM     18  C   UNL     1      14.460   8.163  21.310  0.00  0.00    +0.027 C 
ATOM     19  C   UNL     1      14.092   8.312  22.033  0.00  0.00    +0.019 C 
ATOM     20  C   UNL     1      13.334   7.988  22.005  0.00  0.00    +0.073 C 
ATOM     21  N   UNL     1      13.233   7.638  21.264  0.00  0.00    -0.263 NA
BRANCH  21  22
ATOM     22  C   UNL     1      12.556   7.249  21.000  0.00  0.00    +0.102 C 
BRANCH  22  23
ATOM     23  C   UNL     1      11.834   7.376  21.377  0.00  0.00    +0.021 A 
ATOM     24  C   UNL     1      11.587   8.144  21.550  0.00  0.00    -0.001 A 
ATOM     25  C   UNL     1      10.865   8.271  21.928  0.00  0.00    -0.000 A 
ATOM     26  C   UNL     1      10.389   7.630  22.132  0.00  0.00    +0.002 A 
ATOM     27  C   UNL     1      10.634   6.861  21.959  0.00  0.00    +0.029 A 
ATOM     28  C   UNL     1      11.357   6.735  21.581  0.00  0.00    +0.137 A 
ATOM     29  F   UNL     1      11.602   5.966  21.409  0.00  0.00    -0.204 F 
ENDBRANCH  22  23
ENDBRANCH  21  22
ENDBRANCH  15  17
TORSDOF 8
ENDMDL
