MODEL 1
REMARK VINA RESULT:      -9.5      0.000      0.000
REMARK  Name = 
REMARK  8 active torsions:
REMARK  status: ('A' for Active; 'I' for Inactive)
REMARK    1  A    between atoms: C_2  and  C_4
REMARK    2  A    between atoms: C_6  and  C_7
REMARK    3  A    between atoms: C_7  and  C_8
REMARK    4  A    between atoms: C_20  and  C_21
REMARK    5  A    between atoms: C_21  and  N_22
REMARK    6  A    between atoms: C_23  and  C_25
REMARK    7  A    between atoms: C_25  and  C_26
REMARK    8  A    between atoms: C_26  and  C_27
REMARK                            x       y       z     vdW  Elec       q    Type
REMARK                         _______ _______ _______ _____ _____    ______ ____
ROOT
ATOM      4  C   UNL     1      -1.574   1.527  24.596  0.00  0.00    +0.006 C 
ATOM      5  C   UNL     1      -2.218   2.039  24.539  0.00  0.00    +0.005 C 
ATOM      6  C   UNL     1      -2.538   2.220  23.801  0.00  0.00    +0.026 C 
ATOM     17  C   UNL     1      -2.213   1.890  23.119  0.00  0.00    -0.048 C 
ATOM     18  C   UNL     1      -2.533   2.071  22.379  0.00  0.00    +0.026 C 
ATOM     19  C   UNL     1      -1.569   1.378  23.174  0.00  0.00    -0.033 C 
ATOM     20  C   UNL     1      -1.249   1.196  23.913  0.00  0.00    +0.043 C 
ENDROOT
BRANCH   4   2
ATOM      1  C   UNL     1      -0.721   1.863  25.691  0.00  0.00    +0.000 C 
ATOM      2  C   UNL     1      -1.254   1.346  25.334  0.00  0.00    +0.000 C 
ATOM      3  C   UNL     1      -1.468   0.646  25.715  0.00  0.00    +0.000 C 
ENDBRANCH   4   2
BRANCH   6   7
ATOM      7  C   UNL     1      -3.183   2.733  23.744  0.00  0.00    +0.070 C 
BRANCH   7   8
ATOM      8  C   UNL     1      -3.836   2.630  24.236  0.00  0.00    +0.141 A 
ATOM      9  N   UNL     1      -4.408   2.039  24.166  0.00  0.00    -0.228 NA
ATOM     10  C   UNL     1      -4.959   2.144  24.772  0.00  0.00    +0.118 A 
ATOM     11  C   UNL     1      -4.727   2.799  25.216  0.00  0.00    +0.181 A 
ATOM     12  N   UNL     1      -4.034   3.099  24.885  0.00  0.00    -0.210 NA
ATOM     13  N   UNL     1      -5.178   3.037  25.864  0.00  0.00    -0.224 NA
ATOM     14  C   UNL     1      -5.860   2.621  26.069  0.00  0.00    +0.101 A 
ATOM     15  C   UNL     1      -6.092   1.965  25.624  0.00  0.00    +0.022 A 
ATOM     16  C   UNL     1      -5.641   1.727  24.975  0.00  0.00    +0.024 A 
ENDBRANCH   7   8
ENDBRANCH   6   7
BRANCH  20  21
ATOM     21  C   UNL     1      -0.605   0.684  23.969  0.00  0.00    +0.119 C 
BRANCH  21  22
ATOM     22  N   UNL     1      -0.024   0.690  23.383  0.00  0.00    -0.205 NA
ATOM     23  C   UNL     1       0.486   0.045  23.303  0.00  0.00    +0.242 C 
ATOM     24  O   UNL     1       0.414  -0.603  23.807  0.00  0.00    -0.273 OA
BRANCH  23  25
ATOM     25  C   UNL     1       1.067   0.051  22.717  0.00  0.00    +0.099 C 
BRANCH  25  26
ATOM     26  C   UNL     1       1.860  -0.058  22.922  0.00  0.00    +0.124 C 
BRANCH  26  27
ATOM     27  C   UNL     1       2.453   0.102  22.372  0.00  0.00    +0.365 C 
ATOM     28  O   UNL     1       3.145   0.484  22.612  0.00  0.00    -0.246 OA
ATOM     29  O   UNL     1       2.356  -0.121  21.584  0.00  0.00    -0.246 OA
ENDBRANCH  26  27
ENDBRANCH  25  26
ENDBRANCH  23  25
ENDBRANCH  21  22
ENDBRANCH  20  21
TORSDOF 8
ENDMDL
MODEL 2
REMARK VINA RESULT:      -9.3      3.188      4.709
REMARK  Name = 
REMARK  8 active torsions:
REMARK  status: ('A' for Active; 'I' for Inactive)
REMARK    1  A    between atoms: C_2  and  C_4
REMARK    2  A    between atoms: C_6  and  C_7
REMARK    3  A    between atoms: C_7  and  C_8
REMARK    4  A    between atoms: C_20  and  C_21
REMARK    5  A    between atoms: C_21  and  N_22
REMARK    6  A    between atoms: C_23  and  C_25
REMARK    7  A    between atoms: C_25  and  C_26
REMARK    8  A    between atoms: C_26  and  C_27
REMARK                            x       y       z     vdW  Elec       q    Type
REMARK                         _______ _______ _______ _____ _____    ______ ____
ROOT
ATOM      4  C   UNL     1      -4.318   1.612  24.633  0.00  0.00    +0.006 C 
ATOM      5  C   UNL     1      -4.249   0.915  24.197  0.00  0.00    +0.005 C 
ATOM      6  C   UNL     1      -3.576   0.780  23.739  0.00  0.00    +0.026 C 
ATOM     17  C   UNL     1      -2.973   1.341  23.717  0.00  0.00    -0.048 C 
ATOM     18  C   UNL     1      -2.299   1.206  23.259  0.00  0.00    +0.026 C 
ATOM     19  C   UNL     1      -3.041   2.039  24.152  0.00  0.00    -0.033 C 
ATOM     20  C   UNL     1      -3.715   2.174  24.610  0.00  0.00    +0.043 C 
ENDROOT
BRANCH   4   2
ATOM      1  C   UNL     1      -5.036   1.447  25.856  0.00  0.00    +0.000 C 
ATOM      2  C   UNL     1      -4.990   1.748  25.090  0.00  0.00    +0.000 C 
ATOM      3  C   UNL     1      -5.618   2.185  24.781  0.00  0.00    +0.000 C 
ENDBRANCH   4   2
BRANCH   6   7
ATOM      7  C   UNL     1      -3.507   0.082  23.304  0.00  0.00    +0.070 C 
BRANCH   7   8
ATOM      8  C   UNL     1      -3.480  -0.645  23.690  0.00  0.00    +0.141 A 
ATOM      9  N   UNL     1      -4.033  -1.254  23.618  0.00  0.00    -0.228 NA
ATOM     10  C   UNL     1      -3.790  -1.878  24.101  0.00  0.00    +0.118 A 
ATOM     11  C   UNL     1      -3.087  -1.655  24.470  0.00  0.00    +0.181 A 
ATOM     12  N   UNL     1      -2.896  -0.894  24.217  0.00  0.00    -0.210 NA
ATOM     13  N   UNL     1      -2.713  -2.175  24.990  0.00  0.00    -0.224 NA
ATOM     14  C   UNL     1      -3.041  -2.917  25.140  0.00  0.00    +0.101 A 
ATOM     15  C   UNL     1      -3.745  -3.139  24.770  0.00  0.00    +0.022 A 
ATOM     16  C   UNL     1      -4.119  -2.619  24.250  0.00  0.00    +0.024 A 
ENDBRANCH   7   8
ENDBRANCH   6   7
BRANCH  20  21
ATOM     21  C   UNL     1      -3.783   2.872  25.046  0.00  0.00    +0.119 C 
BRANCH  21  22
ATOM     22  N   UNL     1      -3.304   3.518  24.865  0.00  0.00    -0.205 NA
ATOM     23  C   UNL     1      -3.076   4.042  25.461  0.00  0.00    +0.242 C 
ATOM     24  O   UNL     1      -3.329   3.919  26.237  0.00  0.00    -0.273 OA
BRANCH  23  25
ATOM     25  C   UNL     1      -2.597   4.688  25.280  0.00  0.00    +0.099 C 
BRANCH  25  26
ATOM     26  C   UNL     1      -1.805   4.692  25.514  0.00  0.00    +0.124 C 
BRANCH  26  27
ATOM     27  C   UNL     1      -1.264   5.181  25.128  0.00  0.00    +0.365 C 
ATOM     28  O   UNL     1      -0.552   4.869  24.849  0.00  0.00    -0.246 OA
ATOM     29  O   UNL     1      -1.434   5.981  25.021  0.00  0.00    -0.246 OA
ENDBRANCH  26  27
ENDBRANCH  25  26
ENDBRANCH  23  25
ENDBRANCH  21  22
ENDBRANCH  20  21
TORSDOF 8
ENDMDL
MODEL 3
REMARK VINA RESULT:      -8.8      3.288      4.244
REMARK  Name = 
REMARK  8 active torsions:
REMARK  status: ('A' for Active; 'I' for Inactive)
REMARK    1  A    between atoms: C_2  and  C_4
REMARK    2  A    between atoms: C_6  and  C_7
REMARK    3  A    between atoms: C_7  and  C_8
REMARK    4  A    between atoms: C_20  and  C_21
REMARK    5  A    between atoms: C_21  and  N_22
REMARK    6  A    between atoms: C_23  and  C_25
REMARK    7  A    between atoms: C_25  and  C_26
REMARK    8  A    between atoms: C_26  and  C_27
REMARK                            x       y       z     vdW  Elec       q    Type
REMARK                         _______ _______ _______ _____ _____    ______ ____
ROOT
ATOM      4  C   UNL     1      -1.896   0.753  24.915  0.00  0.00    +0.006 C 
ATOM      5  C   UNL     1      -2.545   0.262  25.051  0.00  0.00    +0.005 C 
ATOM      6  C   UNL     1      -3.311   0.551  24.953  0.00  0.00    +0.026 C 
ATOM     17  C   UNL     1      -3.428   1.334  24.719  0.00  0.00    -0.048 C 
ATOM     18  C   UNL     1      -4.195   1.624  24.621  0.00  0.00    +0.026 C 
ATOM     19  C   UNL     1      -2.781   1.826  24.583  0.00  0.00    -0.033 C 
ATOM     20  C   UNL     1      -2.014   1.535  24.681  0.00  0.00    +0.043 C 
ENDROOT
BRANCH   4   2
ATOM      1  C   UNL     1      -0.720   0.157  24.368  0.00  0.00    +0.000 C 
ATOM      2  C   UNL     1      -1.131   0.463  25.014  0.00  0.00    +0.000 C 
ATOM      3  C   UNL     1      -0.776   0.479  25.758  0.00  0.00    +0.000 C 
ENDBRANCH   4   2
BRANCH   6   7
ATOM      7  C   UNL     1      -3.959   0.060  25.089  0.00  0.00    +0.070 C 
BRANCH   7   8
ATOM      8  C   UNL     1      -3.929  -0.734  24.868  0.00  0.00    +0.141 A 
ATOM      9  N   UNL     1      -4.157  -1.043  24.137  0.00  0.00    -0.228 NA
ATOM     10  C   UNL     1      -4.035  -1.859  24.156  0.00  0.00    +0.118 A 
ATOM     11  C   UNL     1      -3.732  -2.054  24.897  0.00  0.00    +0.181 A 
ATOM     12  N   UNL     1      -3.667  -1.359  25.337  0.00  0.00    -0.210 NA
ATOM     13  N   UNL     1      -3.555  -2.840  25.076  0.00  0.00    -0.224 NA
ATOM     14  C   UNL     1      -3.681  -3.430  24.514  0.00  0.00    +0.101 A 
ATOM     15  C   UNL     1      -3.984  -3.234  23.771  0.00  0.00    +0.022 A 
ATOM     16  C   UNL     1      -4.161  -2.448  23.592  0.00  0.00    +0.024 A 
ENDBRANCH   7   8
ENDBRANCH   6   7
BRANCH  20  21
ATOM     21  C   UNL     1      -1.367   2.028  24.545  0.00  0.00    +0.119 C 
BRANCH  21  22
ATOM     22  N   UNL     1      -1.471   2.845  24.514  0.00  0.00    -0.205 NA
ATOM     23  C   UNL     1      -0.823   3.339  24.381  0.00  0.00    +0.242 C 
ATOM     24  O   UNL     1      -0.071   3.014  24.279  0.00  0.00    -0.273 OA
BRANCH  23  25
ATOM     25  C   UNL     1      -0.927   4.157  24.350  0.00  0.00    +0.099 C 
BRANCH  25  26
ATOM     26  C   UNL     1      -0.878   4.605  25.041  0.00  0.00    +0.124 C 
BRANCH  26  27
ATOM     27  C   UNL     1      -1.179   5.373  25.057  0.00  0.00    +0.365 C 
ATOM     28  O   UNL     1      -1.902   5.524  25.427  0.00  0.00    -0.246 OA
ATOM     29  O   UNL     1      -0.760   5.988  24.703  0.00  0.00    -0.246 OA
ENDBRANCH  26  27
ENDBRANCH  25  26
ENDBRANCH  23  25
ENDBRANCH  21  22
ENDBRANCH  20  21
TORSDOF 8
ENDMDL
MODEL 4
REMARK VINA RESULT:      -8.4      3.010      4.497
REMARK  Name = 
REMARK  8 active torsions:
REMARK  status: ('A' for Active; 'I' for Inactive)
REMARK    1  A    between atoms: C_2  and  C_4
REMARK    2  A    between atoms: C_6  and  C_7
REMARK    3  A    between atoms: C_7  and  C_8
REMARK    4  A    between atoms: C_20  and  C_21
REMARK    5  A    between atoms: C_21  and  N_22
REMARK    6  A    between atoms: C_23  and  C_25
REMARK    7  A    between atoms: C_25  and  C_26
REMARK    8  A    between atoms: C_26  and  C_27
REMARK                            x       y       z     vdW  Elec       q    Type
REMARK                         _______ _______ _______ _____ _____    ______ ____
ROOT
ATOM      4  C   UNL     1      -3.236   1.688  24.773  0.00  0.00    +0.006 C 
ATOM      5  C   UNL     1      -2.673   2.172  25.133  0.00  0.00    +0.005 C 
ATOM      6  C   UNL     1      -1.951   1.856  25.375  0.00  0.00    +0.026 C 
ATOM     17  C   UNL     1      -1.791   1.055  25.258  0.00  0.00    -0.048 C 
ATOM     18  C   UNL     1      -1.068   0.739  25.501  0.00  0.00    +0.026 C 
ATOM     19  C   UNL     1      -2.353   0.570  24.899  0.00  0.00    -0.033 C 
ATOM     20  C   UNL     1      -3.076   0.887  24.656  0.00  0.00    +0.043 C 
ENDROOT
BRANCH   4   2
ATOM      1  C   UNL     1      -4.595   2.026  25.054  0.00  0.00    +0.000 C 
ATOM      2  C   UNL     1      -3.958   2.003  24.531  0.00  0.00    +0.000 C 
ATOM      3  C   UNL     1      -4.044   2.296  23.765  0.00  0.00    +0.000 C 
ENDBRANCH   4   2
BRANCH   6   7
ATOM      7  C   UNL     1      -1.388   2.340  25.735  0.00  0.00    +0.070 C 
BRANCH   7   8
ATOM      8  C   UNL     1      -1.299   3.123  25.490  0.00  0.00    +0.141 A 
ATOM      9  N   UNL     1      -0.768   3.395  24.920  0.00  0.00    -0.228 NA
ATOM     10  C   UNL     1      -0.866   4.212  24.850  0.00  0.00    +0.118 A 
ATOM     11  C   UNL     1      -1.457   4.443  25.376  0.00  0.00    +0.181 A 
ATOM     12  N   UNL     1      -1.725   3.771  25.772  0.00  0.00    -0.210 NA
ATOM     13  N   UNL     1      -1.676   5.237  25.427  0.00  0.00    -0.224 NA
ATOM     14  C   UNL     1      -1.303   5.799  24.951  0.00  0.00    +0.101 A 
ATOM     15  C   UNL     1      -0.711   5.567  24.425  0.00  0.00    +0.022 A 
ATOM     16  C   UNL     1      -0.493   4.773  24.374  0.00  0.00    +0.024 A 
ENDBRANCH   7   8
ENDBRANCH   6   7
BRANCH  20  21
ATOM     21  C   UNL     1      -3.638   0.402  24.297  0.00  0.00    +0.119 C 
BRANCH  21  22
ATOM     22  N   UNL     1      -3.458  -0.387  24.136  0.00  0.00    -0.205 NA
ATOM     23  C   UNL     1      -4.066  -0.931  24.010  0.00  0.00    +0.242 C 
ATOM     24  O   UNL     1      -4.853  -0.686  24.045  0.00  0.00    -0.273 OA
BRANCH  23  25
ATOM     25  C   UNL     1      -3.886  -1.720  23.850  0.00  0.00    +0.099 C 
BRANCH  25  26
ATOM     26  C   UNL     1      -4.126  -2.312  24.374  0.00  0.00    +0.124 C 
BRANCH  26  27
ATOM     27  C   UNL     1      -3.704  -3.019  24.416  0.00  0.00    +0.365 C 
ATOM     28  O   UNL     1      -3.619  -3.490  23.743  0.00  0.00    -0.246 OA
ATOM     29  O   UNL     1      -3.367  -3.257  25.131  0.00  0.00    -0.246 OA
ENDBRANCH  26  27
ENDBRANCH  25  26
ENDBRANCH  23  25
ENDBRANCH  21  22
ENDBRANCH  20  21
TORSDOF 8
ENDMDL
