MODEL 1
REMARK VINA RESULT:     -16.1      0.000      0.000
REMARK  Name = 
REMARK  2 active torsions:
REMARK  status: ('A' for Active; 'I' for Inactive)
REMARK    1  A    between atoms: C_2  and  C_3
REMARK    2  A    between atoms: C_18  and  C_19
REMARK                            x       y       z     vdW  Elec       q    Type
REMARK                         _______ _______ _______ _____ _____    ______ ____
ROOT
ATOM      1  O   UNL     1      -2.234   1.559  23.090  0.00  0.00    -0.275 OA
ATOM      2  C   UNL     1      -2.899   1.363  23.639  0.00  0.00    +0.225 C 
ATOM      9  N   UNL     1      -3.378   2.041  23.880  0.00  0.00    -0.279 N 
ATOM     10  C   UNL     1      -3.532   2.861  23.845  0.00  0.00    +0.095 C 
ATOM     11  C   UNL     1      -4.318   2.907  24.442  0.00  0.00    +0.043 C 
ATOM     12  C   UNL     1      -4.961   3.111  24.898  0.00  0.00    +0.011 C 
ATOM     13  C   UNL     1      -4.606   2.529  24.734  0.00  0.00    +0.058 C 
ATOM     14  C   UNL     1      -3.847   2.501  24.155  0.00  0.00    +0.099 C 
ATOM     15  C   UNL     1      -4.591   1.624  24.893  0.00  0.00    +0.041 A 
ATOM     16  C   UNL     1      -4.996   1.041  25.314  0.00  0.00    +0.013 A 
ATOM     17  C   UNL     1      -4.748   0.255  25.271  0.00  0.00    +0.006 A 
ATOM     18  C   UNL     1      -4.097   0.052  24.808  0.00  0.00    +0.059 A 
ATOM     25  C   UNL     1      -3.692   0.635  24.387  0.00  0.00    +0.261 A 
ATOM     26  O   UNL     1      -2.878   0.496  23.786  0.00  0.00    -0.267 OA
ATOM     27  N   UNL     1      -3.940   1.421  24.429  0.00  0.00    -0.299 N 
ATOM     28  C   UNL     1      -4.296   1.961  24.602  0.00  0.00    +0.110 C 
ENDROOT
BRANCH   2   3
ATOM      3  C   UNL     1      -3.286   0.628  24.075  0.00  0.00    +0.077 C 
ATOM      4  C   UNL     1      -2.870   0.370  24.739  0.00  0.00    +0.009 C 
ATOM      5  C   UNL     1      -3.015  -0.094  25.105  0.00  0.00    +0.000 C 
ATOM      6  C   UNL     1      -4.040  -0.925  25.055  0.00  0.00    +0.000 C 
ATOM      7  C   UNL     1      -4.324  -0.488  24.320  0.00  0.00    +0.000 C 
ATOM      8  C   UNL     1      -3.980   0.244  23.848  0.00  0.00    +0.009 C 
ENDBRANCH   2   3
BRANCH  18  19
ATOM     19  C   UNL     1      -3.850  -0.733  24.765  0.00  0.00    +0.043 A 
ATOM     20  C   UNL     1      -3.409  -1.060  25.381  0.00  0.00    +0.102 A 
ATOM     21  N   UNL     1      -3.162  -1.846  25.340  0.00  0.00    -0.222 NA
ATOM     22  C   UNL     1      -3.356  -2.305  24.683  0.00  0.00    +0.199 A 
ATOM     23  N   UNL     1      -3.797  -1.979  24.066  0.00  0.00    -0.222 NA
ATOM     24  C   UNL     1      -4.044  -1.192  24.108  0.00  0.00    +0.102 A 
ENDBRANCH  18  19
TORSDOF 2
ENDMDL
MODEL 2
REMARK VINA RESULT:     -15.6      0.878      3.391
REMARK  Name = 
REMARK  2 active torsions:
REMARK  status: ('A' for Active; 'I' for Inactive)
REMARK    1  A    between atoms: C_2  and  C_3
REMARK    2  A    between atoms: C_18  and  C_19
REMARK                            x       y       z     vdW  Elec       q    Type
REMARK                         _______ _______ _______ _____ _____    ______ ____
ROOT
ATOM      1  O   UNL     1      -1.370  -0.574  25.734  0.00  0.00    -0.275 OA
ATOM      2  C   UNL     1      -2.146  -0.649  25.316  0.00  0.00    +0.225 C 
ATOM      9  N   UNL     1      -2.363  -1.458  25.104  0.00  0.00    -0.279 N 
ATOM     10  C   UNL     1      -2.184  -2.274  25.101  0.00  0.00    +0.095 C 
ATOM     11  C   UNL     1      -2.986  -2.618  24.637  0.00  0.00    +0.043 C 
ATOM     12  C   UNL     1      -3.572  -3.053  24.276  0.00  0.00    +0.011 C 
ATOM     13  C   UNL     1      -3.443  -2.379  24.425  0.00  0.00    +0.058 C 
ATOM     14  C   UNL     1      -2.662  -2.062  24.874  0.00  0.00    +0.099 C 
ATOM     15  C   UNL     1      -3.804  -1.539  24.335  0.00  0.00    +0.041 A 
ATOM     16  C   UNL     1      -4.469  -1.157  24.031  0.00  0.00    +0.013 A 
ATOM     17  C   UNL     1      -4.537  -0.337  24.093  0.00  0.00    +0.006 A 
ATOM     18  C   UNL     1      -3.942   0.100  24.460  0.00  0.00    +0.059 A 
ATOM     25  C   UNL     1      -3.277  -0.282  24.764  0.00  0.00    +0.261 A 
ATOM     26  O   UNL     1      -2.485   0.159  25.234  0.00  0.00    -0.267 OA
ATOM     27  N   UNL     1      -3.208  -1.102  24.702  0.00  0.00    -0.299 N 
ATOM     28  C   UNL     1      -3.355  -1.736  24.548  0.00  0.00    +0.110 C 
ENDROOT
BRANCH   2   3
ATOM      3  C   UNL     1      -2.856  -0.119  25.005  0.00  0.00    +0.077 C 
ATOM      4  C   UNL     1      -2.693   0.292  24.309  0.00  0.00    +0.009 C 
ATOM      5  C   UNL     1      -3.067   0.666  24.009  0.00  0.00    +0.000 C 
ATOM      6  C   UNL     1      -4.307   1.025  24.282  0.00  0.00    +0.000 C 
ATOM      7  C   UNL     1      -4.270   0.500  25.014  0.00  0.00    +0.000 C 
ATOM      8  C   UNL     1      -3.594  -0.044  25.366  0.00  0.00    +0.009 C 
ENDBRANCH   2   3
BRANCH  18  19
ATOM     19  C   UNL     1      -4.011   0.920  24.521  0.00  0.00    +0.043 A 
ATOM     20  C   UNL     1      -3.765   1.402  23.899  0.00  0.00    +0.102 A 
ATOM     21  N   UNL     1      -3.834   2.222  23.960  0.00  0.00    -0.222 NA
ATOM     22  C   UNL     1      -4.149   2.559  24.643  0.00  0.00    +0.199 A 
ATOM     23  N   UNL     1      -4.395   2.078  25.266  0.00  0.00    -0.222 NA
ATOM     24  C   UNL     1      -4.326   1.257  25.205  0.00  0.00    +0.102 A 
ENDBRANCH  18  19
TORSDOF 2
ENDMDL
