MODEL 1
REMARK VINA RESULT:      -8.6      0.000      0.000
REMARK  Name = 
REMARK  5 active torsions:
REMARK  status: ('A' for Active; 'I' for Inactive)
REMARK    1  A    between atoms: S_2  and  N_5
REMARK    2  A    between atoms: N_5  and  C_6
REMARK    3  A    between atoms: C_6  and  C_7
REMARK    4  A    between atoms: C_9  and  C_10
REMARK    5  A    between atoms: C_10  and  C_11
REMARK                            x       y       z     vdW  Elec       q    Type
REMARK                         _______ _______ _______ _____ _____    ______ ____
ROOT
ATOM      7  C   UNL     1      -3.416   1.922  24.820  0.00  0.00    +0.167 C 
ATOM      8  O   UNL     1      -3.370   1.106  24.705  0.00  0.00    -0.351 OA
ATOM      9  C   UNL     1      -4.139   0.806  24.703  0.00  0.00    +0.157 C 
ATOM     18  C   UNL     1      -4.659   1.436  24.816  0.00  0.00    +0.212 C 
ATOM     19  O   UNL     1      -5.482   1.386  24.851  0.00  0.00    -0.218 OA
ATOM     20  C   UNL     1      -4.212   2.126  24.889  0.00  0.00    +0.213 C 
ATOM     21  O   UNL     1      -4.510   2.886  25.009  0.00  0.00    -0.218 OA
ENDROOT
BRANCH   7   6
ATOM      6  C   UNL     1      -2.777   2.443  24.859  0.00  0.00    +0.147 C 
BRANCH   6   5
ATOM      5  N   UNL     1      -2.010   2.163  24.746  0.00  0.00    -0.079 NA
BRANCH   5   2
ATOM      1  C   UNL     1      -0.732   3.203  24.830  0.00  0.00    +0.197 C 
ATOM      2  S   UNL     1      -1.371   2.683  24.788  0.00  0.00    +0.059 S 
ATOM      3  O   UNL     1      -1.343   2.582  25.606  0.00  0.00    -0.156 OA
ATOM      4  O   UNL     1      -1.399   2.784  23.970  0.00  0.00    -0.156 OA
ENDBRANCH   5   2
ENDBRANCH   6   5
ENDBRANCH   7   6
BRANCH   9  10
ATOM     10  C   UNL     1      -4.350   0.015  24.604  0.00  0.00    +0.117 C 
BRANCH  10  11
ATOM     11  C   UNL     1      -3.946  -0.575  25.015  0.00  0.00    +0.228 C 
ATOM     12  O   UNL     1      -3.596  -0.404  25.743  0.00  0.00    -0.275 OA
ATOM     13  N   UNL     1      -3.890  -1.335  24.700  0.00  0.00    -0.279 N 
ATOM     14  C   UNL     1      -3.506  -1.977  25.047  0.00  0.00    +0.093 C 
ATOM     15  C   UNL     1      -3.588  -2.625  24.543  0.00  0.00    +0.023 C 
ATOM     16  C   UNL     1      -4.023  -2.384  23.885  0.00  0.00    +0.023 C 
ATOM     17  C   UNL     1      -4.210  -1.586  23.982  0.00  0.00    +0.093 C 
ENDBRANCH  10  11
ENDBRANCH   9  10
TORSDOF 5
ENDMDL
MODEL 2
REMARK VINA RESULT:      -8.2      1.566      4.306
REMARK  Name = 
REMARK  5 active torsions:
REMARK  status: ('A' for Active; 'I' for Inactive)
REMARK    1  A    between atoms: S_2  and  N_5
REMARK    2  A    between atoms: N_5  and  C_6
REMARK    3  A    between atoms: C_6  and  C_7
REMARK    4  A    between atoms: C_9  and  C_10
REMARK    5  A    between atoms: C_10  and  C_11
REMARK                            x       y       z     vdW  Elec       q    Type
REMARK                         _______ _______ _______ _____ _____    ______ ____
ROOT
ATOM      7  C   UNL     1      -4.734   1.422  24.999  0.00  0.00    +0.167 C 
ATOM      8  O   UNL     1      -4.076   1.920  25.031  0.00  0.00    -0.351 OA
ATOM      9  C   UNL     1      -4.343   2.685  25.188  0.00  0.00    +0.157 C 
ATOM     18  C   UNL     1      -5.165   2.660  25.253  0.00  0.00    +0.212 C 
ATOM     19  O   UNL     1      -5.659   3.302  25.407  0.00  0.00    -0.218 OA
ATOM     20  C   UNL     1      -5.407   1.880  25.136  0.00  0.00    +0.213 C 
ATOM     21  O   UNL     1      -6.185   1.605  25.153  0.00  0.00    -0.218 OA
ENDROOT
BRANCH   7   6
ATOM      6  C   UNL     1      -4.721   0.610  24.855  0.00  0.00    +0.147 C 
BRANCH   6   5
ATOM      5  N   UNL     1      -4.001   0.210  24.815  0.00  0.00    -0.079 NA
BRANCH   5   2
ATOM      1  C   UNL     1      -3.972  -1.406  24.486  0.00  0.00    +0.197 C 
ATOM      2  S   UNL     1      -3.986  -0.598  24.650  0.00  0.00    +0.059 S 
ATOM      3  O   UNL     1      -3.985  -0.433  23.842  0.00  0.00    -0.156 OA
ATOM      4  O   UNL     1      -3.988  -0.763  25.459  0.00  0.00    -0.156 OA
ENDBRANCH   5   2
ENDBRANCH   6   5
ENDBRANCH   7   6
BRANCH   9  10
ATOM     10  C   UNL     1      -3.871   3.357  25.266  0.00  0.00    +0.117 C 
BRANCH  10  11
ATOM     11  C   UNL     1      -3.247   3.485  24.743  0.00  0.00    +0.228 C 
ATOM     12  O   UNL     1      -3.298   3.215  23.964  0.00  0.00    -0.275 OA
ATOM     13  N   UNL     1      -2.570   3.883  24.997  0.00  0.00    -0.279 N 
ATOM     14  C   UNL     1      -1.905   4.051  24.538  0.00  0.00    +0.093 C 
ATOM     15  C   UNL     1      -1.364   4.455  25.013  0.00  0.00    +0.023 C 
ATOM     16  C   UNL     1      -1.694   4.537  25.764  0.00  0.00    +0.023 C 
ATOM     17  C   UNL     1      -2.440   4.183  25.754  0.00  0.00    +0.093 C 
ENDBRANCH  10  11
ENDBRANCH   9  10
TORSDOF 5
ENDMDL
MODEL 3
REMARK VINA RESULT:      -8.0      1.427      2.431
REMARK  Name = 
REMARK  5 active torsions:
REMARK  status: ('A' for Active; 'I' for Inactive)
REMARK    1  A    between atoms: S_2  and  N_5
REMARK    2  A    between atoms: N_5  and  C_6
REMARK    3  A    between atoms: C_6  and  C_7
REMARK    4  A    between atoms: C_9  and  C_10
REMARK    5  A    between atoms: C_10  and  C_11
REMARK                            x       y       z     vdW  Elec       q    Type
REMARK                         _______ _______ _______ _____ _____    ______ ____
ROOT
ATOM      7  C   UNL     1      -3.274   1.831  24.753  0.00  0.00    +0.167 C 
ATOM      8  O   UNL     1      -3.492   1.037  24.813  0.00  0.00    -0.351 OA
ATOM      9  C   UNL     1      -2.834   0.577  24.623  0.00  0.00    +0.157 C 
ATOM     18  C   UNL     1      -2.209   1.086  24.446  0.00  0.00    +0.212 C 
ATOM     19  O   UNL     1      -1.447   0.860  24.227  0.00  0.00    -0.218 OA
ATOM     20  C   UNL     1      -2.482   1.861  24.526  0.00  0.00    +0.213 C 
ATOM     21  O   UNL     1      -2.038   2.546  24.401  0.00  0.00    -0.218 OA
ENDROOT
BRANCH   7   6
ATOM      6  C   UNL     1      -3.763   2.480  24.894  0.00  0.00    +0.147 C 
BRANCH   6   5
ATOM      5  N   UNL     1      -4.441   2.393  25.354  0.00  0.00    -0.079 NA
BRANCH   5   2
ATOM      1  C   UNL     1      -5.479   3.662  25.544  0.00  0.00    +0.197 C 
ATOM      2  S   UNL     1      -4.960   3.027  25.449  0.00  0.00    +0.059 S 
ATOM      3  O   UNL     1      -5.422   2.743  24.827  0.00  0.00    -0.156 OA
ATOM      4  O   UNL     1      -4.498   3.311  26.071  0.00  0.00    -0.156 OA
ENDBRANCH   5   2
ENDBRANCH   6   5
ENDBRANCH   7   6
BRANCH   9  10
ATOM     10  C   UNL     1      -2.806  -0.247  24.613  0.00  0.00    +0.117 C 
BRANCH  10  11
ATOM     11  C   UNL     1      -3.379  -0.675  24.203  0.00  0.00    +0.228 C 
ATOM     12  O   UNL     1      -3.854  -0.297  23.643  0.00  0.00    -0.275 OA
ATOM     13  N   UNL     1      -3.479  -1.480  24.352  0.00  0.00    -0.279 N 
ATOM     14  C   UNL     1      -4.028  -1.976  23.986  0.00  0.00    +0.093 C 
ATOM     15  C   UNL     1      -3.936  -2.733  24.302  0.00  0.00    +0.023 C 
ATOM     16  C   UNL     1      -3.331  -2.705  24.861  0.00  0.00    +0.023 C 
ATOM     17  C   UNL     1      -3.048  -1.930  24.893  0.00  0.00    +0.093 C 
ENDBRANCH  10  11
ENDBRANCH   9  10
TORSDOF 5
ENDMDL
MODEL 4
REMARK VINA RESULT:      -7.7      1.662      2.489
REMARK  Name = 
REMARK  5 active torsions:
REMARK  status: ('A' for Active; 'I' for Inactive)
REMARK    1  A    between atoms: S_2  and  N_5
REMARK    2  A    between atoms: N_5  and  C_6
REMARK    3  A    between atoms: C_6  and  C_7
REMARK    4  A    between atoms: C_9  and  C_10
REMARK    5  A    between atoms: C_10  and  C_11
REMARK                            x       y       z     vdW  Elec       q    Type
REMARK                         _______ _______ _______ _____ _____    ______ ____
ROOT
ATOM      7  C   UNL     1      -1.300   1.511  24.869  0.00  0.00    +0.167 C 
ATOM      8  O   UNL     1      -1.923   0.976  24.957  0.00  0.00    -0.351 OA
ATOM      9  C   UNL     1      -1.630   0.218  24.812  0.00  0.00    +0.157 C 
ATOM     18  C   UNL     1      -0.827   0.285  24.634  0.00  0.00    +0.212 C 
ATOM     19  O   UNL     1      -0.318  -0.338  24.453  0.00  0.00    -0.218 OA
ATOM     20  C   UNL     1      -0.624   1.084  24.670  0.00  0.00    +0.213 C 
ATOM     21  O   UNL     1       0.126   1.400  24.530  0.00  0.00    -0.218 OA
ENDROOT
BRANCH   7   6
ATOM      6  C   UNL     1      -1.347   2.329  24.964  0.00  0.00    +0.147 C 
BRANCH   6   5
ATOM      5  N   UNL     1      -2.013   2.666  25.314  0.00  0.00    -0.079 NA
BRANCH   5   2
ATOM      1  C   UNL     1      -2.124   4.305  25.468  0.00  0.00    +0.197 C 
ATOM      2  S   UNL     1      -2.069   3.485  25.391  0.00  0.00    +0.059 S 
ATOM      3  O   UNL     1      -2.417   3.532  24.645  0.00  0.00    -0.156 OA
ATOM      4  O   UNL     1      -1.721   3.439  26.138  0.00  0.00    -0.156 OA
ENDBRANCH   5   2
ENDBRANCH   6   5
ENDBRANCH   7   6
BRANCH   9  10
ATOM     10  C   UNL     1      -2.064  -0.482  24.839  0.00  0.00    +0.117 C 
BRANCH  10  11
ATOM     11  C   UNL     1      -2.765  -0.551  24.410  0.00  0.00    +0.228 C 
ATOM     12  O   UNL     1      -3.048   0.092  23.976  0.00  0.00    -0.275 OA
ATOM     13  N   UNL     1      -3.183  -1.262  24.413  0.00  0.00    -0.279 N 
ATOM     14  C   UNL     1      -3.888  -1.412  24.012  0.00  0.00    +0.093 C 
ATOM     15  C   UNL     1      -4.111  -2.191  24.169  0.00  0.00    +0.023 C 
ATOM     16  C   UNL     1      -3.543  -2.522  24.668  0.00  0.00    +0.023 C 
ATOM     17  C   UNL     1      -2.970  -1.948  24.819  0.00  0.00    +0.093 C 
ENDBRANCH  10  11
ENDBRANCH   9  10
TORSDOF 5
ENDMDL
MODEL 5
REMARK VINA RESULT:      -7.7      1.772      3.975
REMARK  Name = 
REMARK  5 active torsions:
REMARK  status: ('A' for Active; 'I' for Inactive)
REMARK    1  A    between atoms: S_2  and  N_5
REMARK    2  A    between atoms: N_5  and  C_6
REMARK    3  A    between atoms: C_6  and  C_7
REMARK    4  A    between atoms: C_9  and  C_10
REMARK    5  A    between atoms: C_10  and  C_11
REMARK                            x       y       z     vdW  Elec       q    Type
REMARK                         _______ _______ _______ _____ _____    ______ ____
ROOT
ATOM      7  C   UNL     1      -3.011   0.306  24.837  0.00  0.00    +0.167 C 
ATOM      8  O   UNL     1      -2.805   1.101  24.920  0.00  0.00    -0.351 OA
ATOM      9  C   UNL     1      -3.493   1.551  24.844  0.00  0.00    +0.157 C 
ATOM     18  C   UNL     1      -4.123   1.034  24.713  0.00  0.00    +0.212 C 
ATOM     19  O   UNL     1      -4.912   1.248  24.605  0.00  0.00    -0.218 OA
ATOM     20  C   UNL     1      -3.824   0.264  24.708  0.00  0.00    +0.213 C 
ATOM     21  O   UNL     1      -4.263  -0.425  24.596  0.00  0.00    -0.218 OA
ENDROOT
BRANCH   7   6
ATOM      6  C   UNL     1      -2.492  -0.335  24.874  0.00  0.00    +0.147 C 
BRANCH   6   5
ATOM      5  N   UNL     1      -1.708  -0.218  25.098  0.00  0.00    -0.079 NA
BRANCH   5   2
ATOM      1  C   UNL     1      -0.685  -1.506  25.224  0.00  0.00    +0.197 C 
ATOM      2  S   UNL     1      -1.196  -0.862  25.161  0.00  0.00    +0.059 S 
ATOM      3  O   UNL     1      -1.342  -0.899  25.972  0.00  0.00    -0.156 OA
ATOM      4  O   UNL     1      -1.051  -0.826  24.350  0.00  0.00    -0.156 OA
ENDBRANCH   5   2
ENDBRANCH   6   5
ENDBRANCH   7   6
BRANCH   9  10
ATOM     10  C   UNL     1      -3.542   2.373  24.890  0.00  0.00    +0.117 C 
BRANCH  10  11
ATOM     11  C   UNL     1      -2.929   2.840  24.598  0.00  0.00    +0.228 C 
ATOM     12  O   UNL     1      -2.566   2.645  23.882  0.00  0.00    -0.275 OA
ATOM     13  N   UNL     1      -2.676   3.502  25.020  0.00  0.00    -0.279 N 
ATOM     14  C   UNL     1      -2.072   4.018  24.798  0.00  0.00    +0.093 C 
ATOM     15  C   UNL     1      -2.007   4.599  25.380  0.00  0.00    +0.023 C 
ATOM     16  C   UNL     1      -2.570   4.442  25.962  0.00  0.00    +0.023 C 
ATOM     17  C   UNL     1      -2.984   3.764  25.740  0.00  0.00    +0.093 C 
ENDBRANCH  10  11
ENDBRANCH   9  10
TORSDOF 5
ENDMDL
MODEL 6
REMARK VINA RESULT:      -7.7      2.281      3.714
REMARK  Name = 
REMARK  5 active torsions:
REMARK  status: ('A' for Active; 'I' for Inactive)
REMARK    1  A    between atoms: S_2  and  N_5
REMARK    2  A    between atoms: N_5  and  C_6
REMARK    3  A    between atoms: C_6  and  C_7
REMARK    4  A    between atoms: C_9  and  C_10
REMARK    5  A    between atoms: C_10  and  C_11
REMARK                            x       y       z     vdW  Elec       q    Type
REMARK                         _______ _______ _______ _____ _____    ______ ____
ROOT
ATOM      7  C   UNL     1      -1.390   1.438  24.922  0.00  0.00    +0.167 C 
ATOM      8  O   UNL     1      -2.201   1.570  24.998  0.00  0.00    -0.351 OA
ATOM      9  C   UNL     1      -2.338   2.378  24.897  0.00  0.00    +0.157 C 
ATOM     18  C   UNL     1      -1.612   2.745  24.759  0.00  0.00    +0.212 C 
ATOM     19  O   UNL     1      -1.493   3.550  24.628  0.00  0.00    -0.218 OA
ATOM     20  C   UNL     1      -1.026   2.164  24.774  0.00  0.00    +0.213 C 
ATOM     21  O   UNL     1      -0.218   2.287  24.661  0.00  0.00    -0.218 OA
ENDROOT
BRANCH   7   6
ATOM      6  C   UNL     1      -1.009   0.709  24.984  0.00  0.00    +0.147 C 
BRANCH   6   5
ATOM      5  N   UNL     1      -1.450   0.024  25.114  0.00  0.00    -0.079 NA
BRANCH   5   2
ATOM      1  C   UNL     1      -0.687  -1.431  25.264  0.00  0.00    +0.197 C 
ATOM      2  S   UNL     1      -1.069  -0.703  25.189  0.00  0.00    +0.059 S 
ATOM      3  O   UNL     1      -1.087  -0.628  26.010  0.00  0.00    -0.156 OA
ATOM      4  O   UNL     1      -1.050  -0.779  24.367  0.00  0.00    -0.156 OA
ENDBRANCH   5   2
ENDBRANCH   6   5
ENDBRANCH   7   6
BRANCH   9  10
ATOM     10  C   UNL     1      -3.073   2.752  24.929  0.00  0.00    +0.117 C 
BRANCH  10  11
ATOM     11  C   UNL     1      -3.735   2.391  24.597  0.00  0.00    +0.228 C 
ATOM     12  O   UNL     1      -3.656   1.933  23.914  0.00  0.00    -0.275 OA
ATOM     13  N   UNL     1      -4.476   2.486  24.945  0.00  0.00    -0.279 N 
ATOM     14  C   UNL     1      -5.184   2.160  24.677  0.00  0.00    +0.093 C 
ATOM     15  C   UNL     1      -5.786   2.398  25.190  0.00  0.00    +0.023 C 
ATOM     16  C   UNL     1      -5.449   2.871  25.776  0.00  0.00    +0.023 C 
ATOM     17  C   UNL     1      -4.639   2.926  25.625  0.00  0.00    +0.093 C 
ENDBRANCH  10  11
ENDBRANCH   9  10
TORSDOF 5
ENDMDL
MODEL 7
REMARK VINA RESULT:      -7.6      2.022      4.455
REMARK  Name = 
REMARK  5 active torsions:
REMARK  status: ('A' for Active; 'I' for Inactive)
REMARK    1  A    between atoms: S_2  and  N_5
REMARK    2  A    between atoms: N_5  and  C_6
REMARK    3  A    between atoms: C_6  and  C_7
REMARK    4  A    between atoms: C_9  and  C_10
REMARK    5  A    between atoms: C_10  and  C_11
REMARK                            x       y       z     vdW  Elec       q    Type
REMARK                         _______ _______ _______ _____ _____    ______ ____
ROOT
ATOM      7  C   UNL     1      -1.962  -0.379  24.970  0.00  0.00    +0.167 C 
ATOM      8  O   UNL     1      -2.399   0.315  24.876  0.00  0.00    -0.351 OA
ATOM      9  C   UNL     1      -1.889   0.954  24.994  0.00  0.00    +0.157 C 
ATOM     18  C   UNL     1      -1.139   0.655  25.160  0.00  0.00    +0.212 C 
ATOM     19  O   UNL     1      -0.462   1.100  25.313  0.00  0.00    -0.218 OA
ATOM     20  C   UNL     1      -1.184  -0.169  25.145  0.00  0.00    +0.213 C 
ATOM     21  O   UNL     1      -0.560  -0.692  25.282  0.00  0.00    -0.218 OA
ENDROOT
BRANCH   7   6
ATOM      6  C   UNL     1      -2.253  -1.148  24.901  0.00  0.00    +0.147 C 
BRANCH   6   5
ATOM      5  N   UNL     1      -3.067  -1.279  24.870  0.00  0.00    -0.079 NA
BRANCH   5   2
ATOM      1  C   UNL     1      -3.648  -2.812  24.688  0.00  0.00    +0.197 C 
ATOM      2  S   UNL     1      -3.358  -2.046  24.779  0.00  0.00    +0.059 S 
ATOM      3  O   UNL     1      -3.488  -2.093  25.592  0.00  0.00    -0.156 OA
ATOM      4  O   UNL     1      -3.228  -1.998  23.965  0.00  0.00    -0.156 OA
ENDBRANCH   5   2
ENDBRANCH   6   5
ENDBRANCH   7   6
BRANCH   9  10
ATOM     10  C   UNL     1      -2.095   1.752  24.952  0.00  0.00    +0.117 C 
BRANCH  10  11
ATOM     11  C   UNL     1      -2.570   2.024  24.335  0.00  0.00    +0.228 C 
ATOM     12  O   UNL     1      -2.531   1.663  23.594  0.00  0.00    -0.275 OA
ATOM     13  N   UNL     1      -3.084   2.657  24.458  0.00  0.00    -0.279 N 
ATOM     14  C   UNL     1      -3.589   2.988  23.896  0.00  0.00    +0.093 C 
ATOM     15  C   UNL     1      -4.000   3.606  24.256  0.00  0.00    +0.023 C 
ATOM     16  C   UNL     1      -3.749   3.658  25.040  0.00  0.00    +0.023 C 
ATOM     17  C   UNL     1      -3.182   3.071  25.165  0.00  0.00    +0.093 C 
ENDBRANCH  10  11
ENDBRANCH   9  10
TORSDOF 5
ENDMDL
