REMARK  Name = 
REMARK  7 active torsions:
REMARK  status: ('A' for Active; 'I' for Inactive)
REMARK    1  A    between atoms: C_2  and  C_3
REMARK    2  A    between atoms: C_3  and  N_4
REMARK    3  A    between atoms: N_7  and  C_8
REMARK    4  A    between atoms: C_8  and  C_9
REMARK    5  A    between atoms: C_13  and  C_14
REMARK    6  A    between atoms: C_14  and  C_15
REMARK    7  A    between atoms: C_26  and  C_27
REMARK                            x       y       z     vdW  Elec       q    Type
REMARK                         _______ _______ _______ _____ _____    ______ ____
ROOT
ATOM      9  C   UNL     1       7.007  -6.720   0.000  0.00  0.00    +0.043 C 
ATOM     10  C   UNL     1       7.722  -6.307   0.000  0.00  0.00    -0.033 C 
ATOM     11  C   UNL     1       8.436  -6.720   0.000  0.00  0.00    -0.048 C 
ATOM     12  C   UNL     1       9.151  -6.307   0.000  0.00  0.00    +0.026 C 
ATOM     13  C   UNL     1       8.436  -7.545   0.000  0.00  0.00    +0.026 C 
ATOM     25  C   UNL     1       7.722  -7.957   0.000  0.00  0.00    +0.005 C 
ATOM     26  C   UNL     1       7.007  -7.545   0.000  0.00  0.00    +0.006 C 
ENDROOT
BRANCH  26  27
ATOM     27  C   UNL     1       6.293  -7.957   0.000  0.00  0.00    +0.000 C 
ATOM     28  C   UNL     1       5.578  -7.545   0.000  0.00  0.00    +0.000 C 
ATOM     29  C   UNL     1       6.293  -8.782   0.000  0.00  0.00    +0.000 C 
ENDBRANCH  26  27
BRANCH   9   8
ATOM      8  C   UNL     1       6.293  -6.307   0.000  0.00  0.00    +0.121 C 
BRANCH   8   7
ATOM      4  N   UNL     1       4.149  -6.720   0.000  0.00  0.00    -0.187 NA
ATOM      5  C   UNL     1       4.864  -6.307   0.000  0.00  0.00    +0.339 C 
ATOM      6  O   UNL     1       4.864  -5.482   0.000  0.00  0.00    -0.249 OA
ATOM      7  N   UNL     1       5.578  -6.720   0.000  0.00  0.00    -0.187 NA
BRANCH   4   3
ATOM      3  C   UNL     1       3.435  -6.307   0.000  0.00  0.00    +0.117 C 
BRANCH   3   2
ATOM      1  C   UNL     1       2.006  -6.307   0.000  0.00  0.00    +0.002 C 
ATOM      2  C   UNL     1       2.720  -6.720   0.000  0.00  0.00    +0.023 C 
ENDBRANCH   3   2
ENDBRANCH   4   3
ENDBRANCH   8   7
ENDBRANCH   9   8
BRANCH  13  14
ATOM     14  C   UNL     1       9.151  -7.957   0.000  0.00  0.00    +0.070 C 
BRANCH  14  15
ATOM     15  C   UNL     1       9.151  -8.782   0.000  0.00  0.00    +0.139 A 
ATOM     16  N   UNL     1       8.483  -9.267   0.000  0.00  0.00    -0.229 NA
ATOM     17  C   UNL     1       8.738 -10.052   0.000  0.00  0.00    +0.100 A 
ATOM     18  C   UNL     1       9.563 -10.052   0.000  0.00  0.00    +0.096 A 
ATOM     19  N   UNL     1       9.818  -9.267   0.000  0.00  0.00    -0.230 NA
ATOM     20  C   UNL     1       9.976 -10.766   0.000  0.00  0.00    -0.003 A 
ATOM     21  C   UNL     1      10.801 -10.766   0.000  0.00  0.00    +0.033 C 
ATOM     22  C   UNL     1       9.563 -11.480   0.000  0.00  0.00    -0.003 A 
ATOM     23  C   UNL     1       8.738 -11.480   0.000  0.00  0.00    +0.001 A 
ATOM     24  C   UNL     1       8.326 -10.766   0.000  0.00  0.00    +0.021 A 
ENDBRANCH  14  15
ENDBRANCH  13  14
TORSDOF 7
