MODEL 1
REMARK VINA RESULT:     -15.8      0.000      0.000
REMARK  Name = 
REMARK  4 active torsions:
REMARK  status: ('A' for Active; 'I' for Inactive)
REMARK    1  A    between atoms: O_2  and  C_3
REMARK    2  A    between atoms: C_6  and  C_9
REMARK    3  A    between atoms: C_19  and  C_21
REMARK    4  A    between atoms: C_21  and  C_22
REMARK                            x       y       z     vdW  Elec       q    Type
REMARK                         _______ _______ _______ _____ _____    ______ ____
ROOT
ATOM      9  C   UNL     1      -4.398   0.710  24.990  0.00  0.00    +0.056 A 
ATOM     10  C   UNL     1      -5.169   0.838  25.254  0.00  0.00    +0.006 A 
ATOM     11  C   UNL     1      -5.437   1.607  25.385  0.00  0.00    +0.013 A 
ATOM     12  C   UNL     1      -4.935   2.248  25.251  0.00  0.00    +0.041 A 
ATOM     13  C   UNL     1      -4.921   3.165  25.296  0.00  0.00    +0.058 C 
ATOM     14  C   UNL     1      -5.326   3.715  25.461  0.00  0.00    +0.011 C 
ATOM     15  C   UNL     1      -4.566   3.584  25.200  0.00  0.00    +0.043 C 
ATOM     16  C   UNL     1      -3.629   3.631  24.889  0.00  0.00    +0.095 C 
ATOM     17  N   UNL     1      -3.472   2.816  24.793  0.00  0.00    -0.279 N 
ATOM     18  C   UNL     1      -4.016   3.228  24.997  0.00  0.00    +0.099 C 
ATOM     19  C   UNL     1      -3.050   2.129  24.616  0.00  0.00    +0.230 C 
ATOM     20  O   UNL     1      -3.411   1.391  24.696  0.00  0.00    -0.275 OA
ATOM     28  C   UNL     1      -4.570   2.625  25.150  0.00  0.00    +0.110 C 
ATOM     29  N   UNL     1      -4.164   2.119  24.987  0.00  0.00    -0.299 N 
ATOM     30  C   UNL     1      -3.895   1.350  24.856  0.00  0.00    +0.261 A 
ATOM     31  O   UNL     1      -3.204   0.977  24.605  0.00  0.00    -0.267 OA
ENDROOT
BRANCH   9   6
ATOM      3  C   UNL     1      -3.594  -1.598  24.599  0.00  0.00    +0.139 A 
ATOM      4  C   UNL     1      -3.900  -1.157  23.973  0.00  0.00    +0.037 A 
ATOM      5  C   UNL     1      -4.168  -0.387  24.103  0.00  0.00    +0.003 A 
ATOM      6  C   UNL     1      -4.130  -0.059  24.859  0.00  0.00    +0.005 A 
ATOM      7  C   UNL     1      -3.824  -0.501  25.485  0.00  0.00    +0.003 A 
ATOM      8  C   UNL     1      -3.556  -1.270  25.355  0.00  0.00    +0.037 A 
BRANCH   3   2
ATOM      1  C   UNL     1      -2.521  -2.536  24.513  0.00  0.00    +0.252 C 
ATOM      2  O   UNL     1      -3.326  -2.368  24.469  0.00  0.00    -0.471 OA
ENDBRANCH   3   2
ENDBRANCH   9   6
BRANCH  19  21
ATOM     21  C   UNL     1      -2.269   2.180  24.357  0.00  0.00    +0.112 C 
BRANCH  21  22
ATOM     22  C   UNL     1      -1.656   2.242  24.907  0.00  0.00    -0.013 A 
ATOM     23  C   UNL     1      -1.311   1.559  25.218  0.00  0.00    -0.004 A 
ATOM     24  C   UNL     1      -0.698   1.621  25.767  0.00  0.00    -0.000 A 
ATOM     25  C   UNL     1      -0.430   2.365  26.005  0.00  0.00    -0.000 A 
ATOM     26  C   UNL     1      -0.776   3.046  25.694  0.00  0.00    -0.000 A 
ATOM     27  C   UNL     1      -1.388   2.985  25.145  0.00  0.00    -0.004 A 
ENDBRANCH  21  22
ENDBRANCH  19  21
TORSDOF 4
ENDMDL
MODEL 2
REMARK VINA RESULT:     -15.0      1.236      4.193
REMARK  Name = 
REMARK  4 active torsions:
REMARK  status: ('A' for Active; 'I' for Inactive)
REMARK    1  A    between atoms: O_2  and  C_3
REMARK    2  A    between atoms: C_6  and  C_9
REMARK    3  A    between atoms: C_19  and  C_21
REMARK    4  A    between atoms: C_21  and  C_22
REMARK                            x       y       z     vdW  Elec       q    Type
REMARK                         _______ _______ _______ _____ _____    ______ ____
ROOT
ATOM      9  C   UNL     1      -1.731   1.221  25.128  0.00  0.00    +0.056 A 
ATOM     10  C   UNL     1      -1.268   0.597  25.408  0.00  0.00    +0.006 A 
ATOM     11  C   UNL     1      -1.585  -0.163  25.456  0.00  0.00    +0.013 A 
ATOM     12  C   UNL     1      -2.365  -0.300  25.225  0.00  0.00    +0.041 A 
ATOM     13  C   UNL     1      -2.980  -0.979  25.158  0.00  0.00    +0.058 C 
ATOM     14  C   UNL     1      -3.055  -1.667  25.273  0.00  0.00    +0.011 C 
ATOM     15  C   UNL     1      -3.509  -1.050  24.997  0.00  0.00    +0.043 C 
ATOM     16  C   UNL     1      -4.206  -0.445  24.643  0.00  0.00    +0.095 C 
ATOM     17  N   UNL     1      -3.780   0.273  24.639  0.00  0.00    -0.279 N 
ATOM     18  C   UNL     1      -3.664  -0.407  24.815  0.00  0.00    +0.099 C 
ATOM     19  C   UNL     1      -3.626   1.076  24.528  0.00  0.00    +0.230 C 
ATOM     20  O   UNL     1      -2.882   1.384  24.713  0.00  0.00    -0.275 OA
ATOM     28  C   UNL     1      -2.873  -0.334  25.063  0.00  0.00    +0.110 C 
ATOM     29  N   UNL     1      -2.827   0.323  24.945  0.00  0.00    -0.299 N 
ATOM     30  C   UNL     1      -2.511   1.084  24.897  0.00  0.00    +0.261 A 
ATOM     31  O   UNL     1      -2.755   1.836  24.663  0.00  0.00    -0.267 OA
ENDROOT
BRANCH   9   6
ATOM      3  C   UNL     1      -0.779   3.500  24.985  0.00  0.00    +0.139 A 
ATOM      4  C   UNL     1      -0.783   3.013  24.319  0.00  0.00    +0.037 A 
ATOM      5  C   UNL     1      -1.101   2.253  24.366  0.00  0.00    +0.003 A 
ATOM      6  C   UNL     1      -1.413   1.980  25.080  0.00  0.00    +0.005 A 
ATOM      7  C   UNL     1      -1.408   2.467  25.745  0.00  0.00    +0.003 A 
ATOM      8  C   UNL     1      -1.091   3.227  25.698  0.00  0.00    +0.037 A 
BRANCH   3   2
ATOM      1  C   UNL     1      -0.960   4.916  24.938  0.00  0.00    +0.252 C 
ATOM      2  O   UNL     1      -0.461   4.261  24.937  0.00  0.00    -0.471 OA
ENDBRANCH   3   2
ENDBRANCH   9   6
BRANCH  19  21
ATOM     21  C   UNL     1      -4.215   1.572  24.232  0.00  0.00    +0.112 C 
BRANCH  21  22
ATOM     22  C   UNL     1      -4.720   1.968  24.751  0.00  0.00    -0.013 A 
ATOM     23  C   UNL     1      -5.381   1.581  25.058  0.00  0.00    -0.004 A 
ATOM     24  C   UNL     1      -5.886   1.977  25.577  0.00  0.00    -0.000 A 
ATOM     25  C   UNL     1      -5.730   2.759  25.788  0.00  0.00    -0.000 A 
ATOM     26  C   UNL     1      -5.069   3.145  25.481  0.00  0.00    -0.000 A 
ATOM     27  C   UNL     1      -4.564   2.750  24.962  0.00  0.00    -0.004 A 
ENDBRANCH  21  22
ENDBRANCH  19  21
TORSDOF 4
ENDMDL
MODEL 3
REMARK VINA RESULT:     -14.9      1.245      3.076
REMARK  Name = 
REMARK  4 active torsions:
REMARK  status: ('A' for Active; 'I' for Inactive)
REMARK    1  A    between atoms: O_2  and  C_3
REMARK    2  A    between atoms: C_6  and  C_9
REMARK    3  A    between atoms: C_19  and  C_21
REMARK    4  A    between atoms: C_21  and  C_22
REMARK                            x       y       z     vdW  Elec       q    Type
REMARK                         _______ _______ _______ _____ _____    ______ ____
ROOT
ATOM      9  C   UNL     1      -1.143   1.547  25.272  0.00  0.00    +0.056 A 
ATOM     10  C   UNL     1      -0.556   1.976  25.663  0.00  0.00    +0.006 A 
ATOM     11  C   UNL     1      -0.624   2.794  25.739  0.00  0.00    +0.013 A 
ATOM     12  C   UNL     1      -1.280   3.185  25.425  0.00  0.00    +0.041 A 
ATOM     13  C   UNL     1      -1.637   4.027  25.342  0.00  0.00    +0.058 C 
ATOM     14  C   UNL     1      -1.510   4.698  25.508  0.00  0.00    +0.011 C 
ATOM     15  C   UNL     1      -2.087   4.271  25.123  0.00  0.00    +0.043 C 
ATOM     16  C   UNL     1      -2.877   3.939  24.631  0.00  0.00    +0.095 C 
ATOM     17  N   UNL     1      -2.700   3.123  24.617  0.00  0.00    -0.279 N 
ATOM     18  C   UNL     1      -2.406   3.721  24.866  0.00  0.00    +0.099 C 
ATOM     19  C   UNL     1      -2.788   2.318  24.454  0.00  0.00    +0.230 C 
ATOM     20  O   UNL     1      -2.213   1.781  24.702  0.00  0.00    -0.275 OA
ATOM     28  C   UNL     1      -1.722   3.387  25.204  0.00  0.00    +0.110 C 
ATOM     29  N   UNL     1      -1.867   2.756  25.034  0.00  0.00    -0.299 N 
ATOM     30  C   UNL     1      -1.799   1.937  24.958  0.00  0.00    +0.261 A 
ATOM     31  O   UNL     1      -2.228   1.315  24.629  0.00  0.00    -0.267 OA
ENDROOT
BRANCH   9   6
ATOM      3  C   UNL     1      -0.937  -0.908  25.046  0.00  0.00    +0.139 A 
ATOM      4  C   UNL     1      -0.670  -0.415  24.441  0.00  0.00    +0.037 A 
ATOM      5  C   UNL     1      -0.739   0.405  24.517  0.00  0.00    +0.003 A 
ATOM      6  C   UNL     1      -1.074   0.729  25.196  0.00  0.00    +0.005 A 
ATOM      7  C   UNL     1      -1.341   0.235  25.801  0.00  0.00    +0.003 A 
ATOM      8  C   UNL     1      -1.273  -0.583  25.726  0.00  0.00    +0.037 A 
BRANCH   3   2
ATOM      1  C   UNL     1      -1.492  -2.165  24.657  0.00  0.00    +0.252 C 
ATOM      2  O   UNL     1      -0.868  -1.728  24.971  0.00  0.00    -0.471 OA
ENDBRANCH   3   2
ENDBRANCH   9   6
BRANCH  19  21
ATOM     21  C   UNL     1      -3.452   2.052  24.043  0.00  0.00    +0.112 C 
BRANCH  21  22
ATOM     22  C   UNL     1      -4.152   1.892  24.449  0.00  0.00    -0.013 A 
ATOM     23  C   UNL     1      -4.280   1.144  24.774  0.00  0.00    -0.004 A 
ATOM     24  C   UNL     1      -4.980   0.985  25.180  0.00  0.00    -0.000 A 
ATOM     25  C   UNL     1      -5.553   1.574  25.261  0.00  0.00    -0.000 A 
ATOM     26  C   UNL     1      -5.425   2.321  24.937  0.00  0.00    -0.000 A 
ATOM     27  C   UNL     1      -4.725   2.481  24.531  0.00  0.00    -0.004 A 
ENDBRANCH  21  22
ENDBRANCH  19  21
TORSDOF 4
ENDMDL
MODEL 4
REMARK VINA RESULT:     -14.9      1.619      3.911
REMARK  Name = 
REMARK  4 active torsions:
REMARK  status: ('A' for Active; 'I' for Inactive)
REMARK    1  A    between atoms: O_2  and  C_3
REMARK    2  A    between atoms: C_6  and  C_9
REMARK    3  A    between atoms: C_19  and  C_21
REMARK    4  A    between atoms: C_21  and  C_22
REMARK                            x       y       z     vdW  Elec       q    Type
REMARK                         _______ _______ _______ _____ _____    ______ ____
ROOT
ATOM      9  C   UNL     1      -3.840   0.202  24.373  0.00  0.00    +0.056 A 
ATOM     10  C   UNL     1      -4.503  -0.229  24.136  0.00  0.00    +0.006 A 
ATOM     11  C   UNL     1      -4.478  -1.054  24.130  0.00  0.00    +0.013 A 
ATOM     12  C   UNL     1      -3.791  -1.447  24.362  0.00  0.00    +0.041 A 
ATOM     13  C   UNL     1      -3.455  -2.296  24.464  0.00  0.00    +0.058 C 
ATOM     14  C   UNL     1      -3.632  -2.971  24.390  0.00  0.00    +0.011 C 
ATOM     15  C   UNL     1      -2.981  -2.542  24.624  0.00  0.00    +0.043 C 
ATOM     16  C   UNL     1      -2.104  -2.208  24.934  0.00  0.00    +0.095 C 
ATOM     17  N   UNL     1      -2.248  -1.385  24.898  0.00  0.00    -0.279 N 
ATOM     18  C   UNL     1      -2.602  -1.988  24.765  0.00  0.00    +0.099 C 
ATOM     19  C   UNL     1      -2.103  -0.575  24.963  0.00  0.00    +0.230 C 
ATOM     20  O   UNL     1      -2.694  -0.034  24.767  0.00  0.00    -0.275 OA
ATOM     28  C   UNL     1      -3.323  -1.651  24.520  0.00  0.00    +0.110 C 
ATOM     29  N   UNL     1      -3.129  -1.016  24.599  0.00  0.00    -0.299 N 
ATOM     30  C   UNL     1      -3.153  -0.191  24.605  0.00  0.00    +0.261 A 
ATOM     31  O   UNL     1      -2.651   0.436  24.790  0.00  0.00    -0.267 OA
ENDROOT
BRANCH   9   6
ATOM      3  C   UNL     1      -3.917   2.675  24.387  0.00  0.00    +0.139 A 
ATOM      4  C   UNL     1      -4.125   2.253  25.065  0.00  0.00    +0.037 A 
ATOM      5  C   UNL     1      -4.100   1.428  25.060  0.00  0.00    +0.003 A 
ATOM      6  C   UNL     1      -3.866   1.026  24.378  0.00  0.00    +0.005 A 
ATOM      7  C   UNL     1      -3.658   1.449  23.701  0.00  0.00    +0.003 A 
ATOM      8  C   UNL     1      -3.683   2.274  23.706  0.00  0.00    +0.037 A 
BRANCH   3   2
ATOM      1  C   UNL     1      -3.344   3.929  24.764  0.00  0.00    +0.252 C 
ATOM      2  O   UNL     1      -3.942   3.501  24.392  0.00  0.00    -0.471 OA
ENDBRANCH   3   2
ENDBRANCH   9   6
BRANCH  19  21
ATOM     21  C   UNL     1      -1.368  -0.307  25.222  0.00  0.00    +0.112 C 
BRANCH  21  22
ATOM     22  C   UNL     1      -0.782  -0.113  24.674  0.00  0.00    -0.013 A 
ATOM     23  C   UNL     1      -0.368  -0.710  24.284  0.00  0.00    -0.004 A 
ATOM     24  C   UNL     1       0.217  -0.515  23.736  0.00  0.00    -0.000 A 
ATOM     25  C   UNL     1       0.388   0.277  23.578  0.00  0.00    -0.000 A 
ATOM     26  C   UNL     1      -0.026   0.873  23.969  0.00  0.00    -0.000 A 
ATOM     27  C   UNL     1      -0.611   0.679  24.516  0.00  0.00    -0.004 A 
ENDBRANCH  21  22
ENDBRANCH  19  21
TORSDOF 4
ENDMDL
MODEL 5
REMARK VINA RESULT:     -14.8      1.118      3.356
REMARK  Name = 
REMARK  4 active torsions:
REMARK  status: ('A' for Active; 'I' for Inactive)
REMARK    1  A    between atoms: O_2  and  C_3
REMARK    2  A    between atoms: C_6  and  C_9
REMARK    3  A    between atoms: C_19  and  C_21
REMARK    4  A    between atoms: C_21  and  C_22
REMARK                            x       y       z     vdW  Elec       q    Type
REMARK                         _______ _______ _______ _____ _____    ______ ____
ROOT
ATOM      9  C   UNL     1      -2.525   2.817  25.127  0.00  0.00    +0.056 A 
ATOM     10  C   UNL     1      -2.774   3.485  25.543  0.00  0.00    +0.006 A 
ATOM     11  C   UNL     1      -3.577   3.608  25.685  0.00  0.00    +0.013 A 
ATOM     12  C   UNL     1      -4.132   3.062  25.412  0.00  0.00    +0.041 A 
ATOM     13  C   UNL     1      -5.038   2.910  25.402  0.00  0.00    +0.058 C 
ATOM     14  C   UNL     1      -5.645   3.187  25.619  0.00  0.00    +0.011 C 
ATOM     15  C   UNL     1      -5.396   2.529  25.209  0.00  0.00    +0.043 C 
ATOM     16  C   UNL     1      -5.296   1.686  24.703  0.00  0.00    +0.095 C 
ATOM     17  N   UNL     1      -4.465   1.670  24.621  0.00  0.00    -0.279 N 
ATOM     18  C   UNL     1      -4.957   2.093  24.913  0.00  0.00    +0.099 C 
ATOM     19  C   UNL     1      -3.718   1.399  24.395  0.00  0.00    +0.230 C 
ATOM     20  O   UNL     1      -3.044   1.833  24.592  0.00  0.00    -0.275 OA
ATOM     28  C   UNL     1      -4.448   2.679  25.214  0.00  0.00    +0.110 C 
ATOM     29  N   UNL     1      -3.883   2.394  24.996  0.00  0.00    -0.299 N 
ATOM     30  C   UNL     1      -3.080   2.272  24.854  0.00  0.00    +0.261 A 
ATOM     31  O   UNL     1      -2.602   1.712  24.482  0.00  0.00    -0.267 OA
ENDROOT
BRANCH   9   6
ATOM      3  C   UNL     1      -0.115   2.452  24.702  0.00  0.00    +0.139 A 
ATOM      4  C   UNL     1      -0.585   2.809  24.126  0.00  0.00    +0.037 A 
ATOM      5  C   UNL     1      -1.389   2.931  24.268  0.00  0.00    +0.003 A 
ATOM      6  C   UNL     1      -1.722   2.696  24.985  0.00  0.00    +0.005 A 
ATOM      7  C   UNL     1      -1.251   2.338  25.561  0.00  0.00    +0.003 A 
ATOM      8  C   UNL     1      -0.448   2.216  25.419  0.00  0.00    +0.037 A 
BRANCH   3   2
ATOM      1  C   UNL     1       0.935   1.683  24.112  0.00  0.00    +0.252 C 
ATOM      2  O   UNL     1       0.689   2.330  24.561  0.00  0.00    -0.471 OA
ENDBRANCH   3   2
ENDBRANCH   9   6
BRANCH  19  21
ATOM     21  C   UNL     1      -3.646   0.694  23.973  0.00  0.00    +0.112 C 
BRANCH  21  22
ATOM     22  C   UNL     1      -3.629  -0.027  24.374  0.00  0.00    -0.013 A 
ATOM     23  C   UNL     1      -2.950  -0.254  24.786  0.00  0.00    -0.004 A 
ATOM     24  C   UNL     1      -2.933  -0.975  25.187  0.00  0.00    -0.000 A 
ATOM     25  C   UNL     1      -3.595  -1.469  25.176  0.00  0.00    -0.000 A 
ATOM     26  C   UNL     1      -4.272  -1.241  24.765  0.00  0.00    -0.000 A 
ATOM     27  C   UNL     1      -4.290  -0.521  24.364  0.00  0.00    -0.004 A 
ENDBRANCH  21  22
ENDBRANCH  19  21
TORSDOF 4
ENDMDL
MODEL 6
REMARK VINA RESULT:     -14.8      1.631      4.517
REMARK  Name = 
REMARK  4 active torsions:
REMARK  status: ('A' for Active; 'I' for Inactive)
REMARK    1  A    between atoms: O_2  and  C_3
REMARK    2  A    between atoms: C_6  and  C_9
REMARK    3  A    between atoms: C_19  and  C_21
REMARK    4  A    between atoms: C_21  and  C_22
REMARK                            x       y       z     vdW  Elec       q    Type
REMARK                         _______ _______ _______ _____ _____    ______ ____
ROOT
ATOM      9  C   UNL     1      -2.170   1.597  24.336  0.00  0.00    +0.056 A 
ATOM     10  C   UNL     1      -1.519   1.937  23.959  0.00  0.00    +0.006 A 
ATOM     11  C   UNL     1      -0.844   1.485  23.812  0.00  0.00    +0.013 A 
ATOM     12  C   UNL     1      -0.821   0.693  24.042  0.00  0.00    +0.041 A 
ATOM     13  C   UNL     1      -0.264  -0.038  24.029  0.00  0.00    +0.058 C 
ATOM     14  C   UNL     1       0.375  -0.239  23.821  0.00  0.00    +0.011 C 
ATOM     15  C   UNL     1      -0.269  -0.571  24.193  0.00  0.00    +0.043 C 
ATOM     16  C   UNL     1      -0.934  -1.144  24.646  0.00  0.00    +0.095 C 
ATOM     17  N   UNL     1      -1.554  -0.592  24.739  0.00  0.00    -0.279 N 
ATOM     18  C   UNL     1      -0.896  -0.604  24.467  0.00  0.00    +0.099 C 
ATOM     19  C   UNL     1      -2.291  -0.291  24.958  0.00  0.00    +0.230 C 
ATOM     20  O   UNL     1      -2.480   0.496  24.799  0.00  0.00    -0.275 OA
ATOM     28  C   UNL     1      -0.858   0.187  24.211  0.00  0.00    +0.110 C 
ATOM     29  N   UNL     1      -1.472   0.354  24.419  0.00  0.00    -0.299 N 
ATOM     30  C   UNL     1      -2.146   0.806  24.565  0.00  0.00    +0.261 A 
ATOM     31  O   UNL     1      -2.889   0.704  24.908  0.00  0.00    -0.267 OA
ENDROOT
BRANCH   9   6
ATOM      3  C   UNL     1      -4.191   2.955  24.773  0.00  0.00    +0.139 A 
ATOM      4  C   UNL     1      -3.597   2.907  25.343  0.00  0.00    +0.037 A 
ATOM      5  C   UNL     1      -2.922   2.454  25.197  0.00  0.00    +0.003 A 
ATOM      6  C   UNL     1      -2.843   2.050  24.482  0.00  0.00    +0.005 A 
ATOM      7  C   UNL     1      -3.438   2.099  23.912  0.00  0.00    +0.003 A 
ATOM      8  C   UNL     1      -4.112   2.552  24.058  0.00  0.00    +0.037 A 
BRANCH   3   2
ATOM      1  C   UNL     1      -5.410   3.165  25.488  0.00  0.00    +0.252 C 
ATOM      2  O   UNL     1      -4.866   3.409  24.918  0.00  0.00    -0.471 OA
ENDBRANCH   3   2
ENDBRANCH   9   6
BRANCH  19  21
ATOM     21  C   UNL     1      -2.839  -0.779  25.336  0.00  0.00    +0.112 C 
BRANCH  21  22
ATOM     22  C   UNL     1      -3.293  -1.309  24.895  0.00  0.00    -0.013 A 
ATOM     23  C   UNL     1      -3.124  -2.116  24.920  0.00  0.00    -0.004 A 
ATOM     24  C   UNL     1      -3.578  -2.645  24.479  0.00  0.00    -0.000 A 
ATOM     25  C   UNL     1      -4.201  -2.368  24.013  0.00  0.00    -0.000 A 
ATOM     26  C   UNL     1      -4.369  -1.561  23.990  0.00  0.00    -0.000 A 
ATOM     27  C   UNL     1      -3.916  -1.031  24.430  0.00  0.00    -0.004 A 
ENDBRANCH  21  22
ENDBRANCH  19  21
TORSDOF 4
ENDMDL
MODEL 7
REMARK VINA RESULT:     -14.5      1.274      1.694
REMARK  Name = 
REMARK  4 active torsions:
REMARK  status: ('A' for Active; 'I' for Inactive)
REMARK    1  A    between atoms: O_2  and  C_3
REMARK    2  A    between atoms: C_6  and  C_9
REMARK    3  A    between atoms: C_19  and  C_21
REMARK    4  A    between atoms: C_21  and  C_22
REMARK                            x       y       z     vdW  Elec       q    Type
REMARK                         _______ _______ _______ _____ _____    ______ ____
ROOT
ATOM      9  C   UNL     1      -3.363   0.207  25.052  0.00  0.00    +0.056 A 
ATOM     10  C   UNL     1      -4.049  -0.172  25.310  0.00  0.00    +0.006 A 
ATOM     11  C   UNL     1      -4.766   0.235  25.318  0.00  0.00    +0.013 A 
ATOM     12  C   UNL     1      -4.798   1.020  25.068  0.00  0.00    +0.041 A 
ATOM     13  C   UNL     1      -5.395   1.711  24.960  0.00  0.00    +0.058 C 
ATOM     14  C   UNL     1      -6.074   1.870  25.041  0.00  0.00    +0.011 C 
ATOM     15  C   UNL     1      -5.394   2.241  24.787  0.00  0.00    +0.043 C 
ATOM     16  C   UNL     1      -4.695   2.853  24.450  0.00  0.00    +0.095 C 
ATOM     17  N   UNL     1      -4.034   2.343  24.487  0.00  0.00    -0.279 N 
ATOM     18  C   UNL     1      -4.731   2.314  24.633  0.00  0.00    +0.099 C 
ATOM     19  C   UNL     1      -3.251   2.092  24.415  0.00  0.00    +0.230 C 
ATOM     20  O   UNL     1      -3.044   1.321  24.626  0.00  0.00    -0.275 OA
ATOM     28  C   UNL     1      -4.764   1.525  24.897  0.00  0.00    +0.110 C 
ATOM     29  N   UNL     1      -4.112   1.399  24.810  0.00  0.00    -0.299 N 
ATOM     30  C   UNL     1      -3.395   0.993  24.802  0.00  0.00    +0.261 A 
ATOM     31  O   UNL     1      -2.609   1.140  24.600  0.00  0.00    -0.267 OA
ENDROOT
BRANCH   9   6
ATOM      3  C   UNL     1      -1.210  -1.013  25.030  0.00  0.00    +0.139 A 
ATOM      4  C   UNL     1      -1.675  -0.987  24.349  0.00  0.00    +0.037 A 
ATOM      5  C   UNL     1      -2.394  -0.579  24.356  0.00  0.00    +0.003 A 
ATOM      6  C   UNL     1      -2.646  -0.200  25.044  0.00  0.00    +0.005 A 
ATOM      7  C   UNL     1      -2.180  -0.227  25.725  0.00  0.00    +0.003 A 
ATOM      8  C   UNL     1      -1.462  -0.634  25.718  0.00  0.00    +0.037 A 
BRANCH   3   2
ATOM      1  C   UNL     1       0.081  -1.234  24.461  0.00  0.00    +0.252 C 
ATOM      2  O   UNL     1      -0.492  -1.421  25.023  0.00  0.00    -0.471 OA
ENDBRANCH   3   2
ENDBRANCH   9   6
BRANCH  19  21
ATOM     21  C   UNL     1      -2.676   2.611  24.133  0.00  0.00    +0.112 C 
BRANCH  21  22
ATOM     22  C   UNL     1      -2.278   3.110  24.656  0.00  0.00    -0.013 A 
ATOM     23  C   UNL     1      -2.609   3.836  24.868  0.00  0.00    -0.004 A 
ATOM     24  C   UNL     1      -2.211   4.333  25.391  0.00  0.00    -0.000 A 
ATOM     25  C   UNL     1      -1.481   4.106  25.703  0.00  0.00    -0.000 A 
ATOM     26  C   UNL     1      -1.150   3.381  25.491  0.00  0.00    -0.000 A 
ATOM     27  C   UNL     1      -1.548   2.883  24.968  0.00  0.00    -0.004 A 
ENDBRANCH  21  22
ENDBRANCH  19  21
TORSDOF 4
ENDMDL
