MODEL 1
REMARK VINA RESULT:     -17.1      0.000      0.000
REMARK  Name = 
REMARK  2 active torsions:
REMARK  status: ('A' for Active; 'I' for Inactive)
REMARK    1  A    between atoms: C_5  and  N_6
REMARK    2  A    between atoms: C_18  and  C_23
REMARK                            x       y       z     vdW  Elec       q    Type
REMARK                         _______ _______ _______ _____ _____    ______ ____
ROOT
ATOM      6  N   UNL     1      -3.010   0.860  24.442  0.00  0.00    -0.162 NA
ATOM      7  C   UNL     1      -2.389   1.398  24.185  0.00  0.00    +0.327 C 
ATOM      8  O   UNL     1      -1.572   1.543  23.913  0.00  0.00    -0.250 OA
ATOM      9  N   UNL     1      -2.938   2.058  24.277  0.00  0.00    -0.262 N 
ATOM     10  C   UNL     1      -2.995   2.888  24.197  0.00  0.00    +0.097 C 
ATOM     11  C   UNL     1      -3.935   3.017  24.474  0.00  0.00    +0.043 C 
ATOM     12  C   UNL     1      -4.677   3.287  24.673  0.00  0.00    +0.011 C 
ATOM     13  C   UNL     1      -4.340   2.672  24.641  0.00  0.00    +0.058 C 
ATOM     14  C   UNL     1      -3.431   2.564  24.371  0.00  0.00    +0.101 C 
ATOM     15  C   UNL     1      -4.466   1.774  24.787  0.00  0.00    +0.041 A 
ATOM     16  C   UNL     1      -5.045   1.239  25.030  0.00  0.00    +0.013 A 
ATOM     17  C   UNL     1      -4.871   0.434  25.071  0.00  0.00    +0.006 A 
ATOM     18  C   UNL     1      -4.118   0.163  24.869  0.00  0.00    +0.058 A 
ATOM     19  C   UNL     1      -3.539   0.698  24.626  0.00  0.00    +0.261 A 
ATOM     20  O   UNL     1      -2.662   0.486  24.378  0.00  0.00    -0.267 OA
ATOM     21  N   UNL     1      -3.713   1.503  24.584  0.00  0.00    -0.299 N 
ATOM     22  C   UNL     1      -4.056   2.076  24.623  0.00  0.00    +0.110 C 
ENDROOT
BRANCH   6   5
ATOM      1  C   UNL     1      -1.728  -2.367  24.669  0.00  0.00    +0.031 C 
ATOM      2  C   UNL     1      -2.057  -1.613  24.601  0.00  0.00    -0.022 A 
ATOM      3  C   UNL     1      -2.791  -1.515  24.237  0.00  0.00    -0.003 A 
ATOM      4  C   UNL     1      -2.956  -0.630  24.270  0.00  0.00    +0.016 A 
ATOM      5  C   UNL     1      -2.715  -0.105  24.464  0.00  0.00    +0.075 A 
ATOM     29  C   UNL     1      -1.981  -0.204  24.828  0.00  0.00    +0.016 A 
ATOM     30  C   UNL     1      -1.652  -0.957  24.896  0.00  0.00    -0.003 A 
ENDBRANCH   6   5
BRANCH  18  23
ATOM     23  C   UNL     1      -3.945  -0.642  24.911  0.00  0.00    +0.024 A 
ATOM     24  C   UNL     1      -4.083  -1.128  24.259  0.00  0.00    +0.003 A 
ATOM     25  C   UNL     1      -3.909  -1.935  24.301  0.00  0.00    +0.021 A 
ATOM     26  C   UNL     1      -3.598  -2.253  24.996  0.00  0.00    +0.099 A 
ATOM     27  N   UNL     1      -3.460  -1.767  25.648  0.00  0.00    -0.242 NA
ATOM     28  C   UNL     1      -3.634  -0.961  25.605  0.00  0.00    +0.099 A 
ENDBRANCH  18  23
TORSDOF 2
ENDMDL
MODEL 2
REMARK VINA RESULT:     -16.6      0.995      3.504
REMARK  Name = 
REMARK  2 active torsions:
REMARK  status: ('A' for Active; 'I' for Inactive)
REMARK    1  A    between atoms: C_5  and  N_6
REMARK    2  A    between atoms: C_18  and  C_23
REMARK                            x       y       z     vdW  Elec       q    Type
REMARK                         _______ _______ _______ _____ _____    ______ ____
ROOT
ATOM      6  N   UNL     1      -2.285  -0.267  24.524  0.00  0.00    -0.162 NA
ATOM      7  C   UNL     1      -1.576  -0.733  24.669  0.00  0.00    +0.327 C 
ATOM      8  O   UNL     1      -0.717  -0.787  24.809  0.00  0.00    -0.250 OA
ATOM      9  N   UNL     1      -2.057  -1.450  24.643  0.00  0.00    -0.262 N 
ATOM     10  C   UNL     1      -2.009  -2.282  24.709  0.00  0.00    +0.097 C 
ATOM     11  C   UNL     1      -2.960  -2.514  24.575  0.00  0.00    +0.043 C 
ATOM     12  C   UNL     1      -3.689  -2.865  24.484  0.00  0.00    +0.011 C 
ATOM     13  C   UNL     1      -3.422  -2.216  24.481  0.00  0.00    +0.058 C 
ATOM     14  C   UNL     1      -2.499  -2.008  24.612  0.00  0.00    +0.101 C 
ATOM     15  C   UNL     1      -3.667  -1.336  24.380  0.00  0.00    +0.041 A 
ATOM     16  C   UNL     1      -4.332  -0.868  24.242  0.00  0.00    +0.013 A 
ATOM     17  C   UNL     1      -4.257  -0.048  24.196  0.00  0.00    +0.006 A 
ATOM     18  C   UNL     1      -3.516   0.304  24.289  0.00  0.00    +0.058 A 
ATOM     19  C   UNL     1      -2.851  -0.163  24.427  0.00  0.00    +0.261 A 
ATOM     20  O   UNL     1      -1.976   0.144  24.544  0.00  0.00    -0.267 OA
ATOM     21  N   UNL     1      -2.927  -0.984  24.473  0.00  0.00    -0.299 N 
ATOM     22  C   UNL     1      -3.206  -1.592  24.471  0.00  0.00    +0.110 C 
ENDROOT
BRANCH   6   5
ATOM      1  C   UNL     1      -1.502   3.121  24.655  0.00  0.00    +0.031 C 
ATOM      2  C   UNL     1      -1.704   2.323  24.597  0.00  0.00    -0.022 A 
ATOM      3  C   UNL     1      -2.157   2.057  23.962  0.00  0.00    -0.003 A 
ATOM      4  C   UNL     1      -2.257   1.171  24.095  0.00  0.00    +0.016 A 
ATOM      5  C   UNL     1      -2.106   0.726  24.483  0.00  0.00    +0.075 A 
ATOM     29  C   UNL     1      -1.652   0.993  25.117  0.00  0.00    +0.016 A 
ATOM     30  C   UNL     1      -1.451   1.791  25.175  0.00  0.00    -0.003 A 
ENDBRANCH   6   5
BRANCH  18  23
ATOM     23  C   UNL     1      -3.442   1.124  24.243  0.00  0.00    +0.024 A 
ATOM     24  C   UNL     1      -3.294   1.486  23.516  0.00  0.00    +0.003 A 
ATOM     25  C   UNL     1      -3.219   2.307  23.471  0.00  0.00    +0.021 A 
ATOM     26  C   UNL     1      -3.293   2.765  24.153  0.00  0.00    +0.099 A 
ATOM     27  N   UNL     1      -3.442   2.404  24.880  0.00  0.00    -0.242 NA
ATOM     28  C   UNL     1      -3.516   1.584  24.925  0.00  0.00    +0.099 A 
ENDBRANCH  18  23
TORSDOF 2
ENDMDL
MODEL 3
REMARK VINA RESULT:     -16.4      0.950      1.917
REMARK  Name = 
REMARK  2 active torsions:
REMARK  status: ('A' for Active; 'I' for Inactive)
REMARK    1  A    between atoms: C_5  and  N_6
REMARK    2  A    between atoms: C_18  and  C_23
REMARK                            x       y       z     vdW  Elec       q    Type
REMARK                         _______ _______ _______ _____ _____    ______ ____
ROOT
ATOM      6  N   UNL     1      -3.983   0.901  24.865  0.00  0.00    -0.162 NA
ATOM      7  C   UNL     1      -4.820   1.101  24.833  0.00  0.00    +0.327 C 
ATOM      8  O   UNL     1      -5.659   0.863  24.817  0.00  0.00    -0.250 OA
ATOM      9  N   UNL     1      -4.606   1.938  24.807  0.00  0.00    -0.262 N 
ATOM     10  C   UNL     1      -4.937   2.704  24.769  0.00  0.00    +0.097 C 
ATOM     11  C   UNL     1      -4.109   3.242  24.772  0.00  0.00    +0.043 C 
ATOM     12  C   UNL     1      -3.532   3.818  24.767  0.00  0.00    +0.011 C 
ATOM     13  C   UNL     1      -3.565   3.117  24.793  0.00  0.00    +0.058 C 
ATOM     14  C   UNL     1      -4.375   2.611  24.788  0.00  0.00    +0.101 C 
ATOM     15  C   UNL     1      -3.030   2.372  24.837  0.00  0.00    +0.041 A 
ATOM     16  C   UNL     1      -2.235   2.155  24.868  0.00  0.00    +0.013 A 
ATOM     17  C   UNL     1      -2.026   1.358  24.904  0.00  0.00    +0.006 A 
ATOM     18  C   UNL     1      -2.612   0.777  24.909  0.00  0.00    +0.058 A 
ATOM     19  C   UNL     1      -3.407   0.994  24.878  0.00  0.00    +0.261 A 
ATOM     20  O   UNL     1      -4.138   0.410  24.879  0.00  0.00    -0.267 OA
ATOM     21  N   UNL     1      -3.616   1.791  24.842  0.00  0.00    -0.299 N 
ATOM     22  C   UNL     1      -3.557   2.457  24.818  0.00  0.00    +0.110 C 
ENDROOT
BRANCH   6   5
ATOM      1  C   UNL     1      -3.592  -2.555  24.755  0.00  0.00    +0.031 C 
ATOM      2  C   UNL     1      -3.666  -1.735  24.806  0.00  0.00    -0.022 A 
ATOM      3  C   UNL     1      -3.273  -1.322  25.402  0.00  0.00    -0.003 A 
ATOM      4  C   UNL     1      -3.489  -0.456  25.273  0.00  0.00    +0.016 A 
ATOM      5  C   UNL     1      -3.815  -0.094  24.907  0.00  0.00    +0.075 A 
ATOM     29  C   UNL     1      -4.207  -0.508  24.312  0.00  0.00    +0.016 A 
ATOM     30  C   UNL     1      -4.133  -1.328  24.261  0.00  0.00    -0.003 A 
ENDBRANCH   6   5
BRANCH  18  23
ATOM     23  C   UNL     1      -2.402  -0.019  24.946  0.00  0.00    +0.024 A 
ATOM     24  C   UNL     1      -2.314  -0.390  25.677  0.00  0.00    +0.003 A 
ATOM     25  C   UNL     1      -2.104  -1.188  25.713  0.00  0.00    +0.021 A 
ATOM     26  C   UNL     1      -1.983  -1.613  25.017  0.00  0.00    +0.099 A 
ATOM     27  N   UNL     1      -2.070  -1.242  24.285  0.00  0.00    -0.242 NA
ATOM     28  C   UNL     1      -2.280  -0.445  24.250  0.00  0.00    +0.099 A 
ENDBRANCH  18  23
TORSDOF 2
ENDMDL
MODEL 4
REMARK VINA RESULT:     -16.1      1.597      3.959
REMARK  Name = 
REMARK  2 active torsions:
REMARK  status: ('A' for Active; 'I' for Inactive)
REMARK    1  A    between atoms: C_5  and  N_6
REMARK    2  A    between atoms: C_18  and  C_23
REMARK                            x       y       z     vdW  Elec       q    Type
REMARK                         _______ _______ _______ _____ _____    ______ ____
ROOT
ATOM      6  N   UNL     1      -3.208   2.074  24.876  0.00  0.00    -0.162 NA
ATOM      7  C   UNL     1      -4.049   2.253  24.836  0.00  0.00    +0.327 C 
ATOM      8  O   UNL     1      -4.703   2.829  24.812  0.00  0.00    -0.250 OA
ATOM      9  N   UNL     1      -4.216   1.406  24.812  0.00  0.00    -0.262 N 
ATOM     10  C   UNL     1      -4.844   0.857  24.770  0.00  0.00    +0.097 C 
ATOM     11  C   UNL     1      -4.328   0.014  24.782  0.00  0.00    +0.043 C 
ATOM     12  C   UNL     1      -4.056  -0.754  24.783  0.00  0.00    +0.011 C 
ATOM     13  C   UNL     1      -3.784  -0.107  24.808  0.00  0.00    +0.058 C 
ATOM     14  C   UNL     1      -4.297   0.699  24.796  0.00  0.00    +0.101 C 
ATOM     15  C   UNL     1      -2.981   0.336  24.857  0.00  0.00    +0.041 A 
ATOM     16  C   UNL     1      -2.170   0.189  24.897  0.00  0.00    +0.013 A 
ATOM     17  C   UNL     1      -1.638   0.819  24.935  0.00  0.00    +0.006 A 
ATOM     18  C   UNL     1      -1.918   1.595  24.934  0.00  0.00    +0.058 A 
ATOM     19  C   UNL     1      -2.728   1.742  24.895  0.00  0.00    +0.261 A 
ATOM     20  O   UNL     1      -3.136   2.583  24.889  0.00  0.00    -0.267 OA
ATOM     21  N   UNL     1      -3.260   1.112  24.857  0.00  0.00    -0.299 N 
ATOM     22  C   UNL     1      -3.493   0.485  24.834  0.00  0.00    +0.110 C 
ENDROOT
BRANCH   6   5
ATOM      1  C   UNL     1      -1.407   5.027  25.257  0.00  0.00    +0.031 C 
ATOM      2  C   UNL     1      -1.814   4.317  25.145  0.00  0.00    -0.022 A 
ATOM      3  C   UNL     1      -1.545   3.772  24.588  0.00  0.00    -0.003 A 
ATOM      4  C   UNL     1      -2.126   3.084  24.630  0.00  0.00    +0.016 A 
ATOM      5  C   UNL     1      -2.628   2.899  24.921  0.00  0.00    +0.075 A 
ATOM     29  C   UNL     1      -2.896   3.446  25.477  0.00  0.00    +0.016 A 
ATOM     30  C   UNL     1      -2.490   4.154  25.590  0.00  0.00    -0.003 A 
ENDBRANCH   6   5
BRANCH  18  23
ATOM     23  C   UNL     1      -1.386   2.224  24.973  0.00  0.00    +0.024 A 
ATOM     24  C   UNL     1      -1.132   2.506  25.705  0.00  0.00    +0.003 A 
ATOM     25  C   UNL     1      -0.599   3.136  25.744  0.00  0.00    +0.021 A 
ATOM     26  C   UNL     1      -0.321   3.482  25.048  0.00  0.00    +0.099 A 
ATOM     27  N   UNL     1      -0.575   3.200  24.316  0.00  0.00    -0.242 NA
ATOM     28  C   UNL     1      -1.107   2.571  24.278  0.00  0.00    +0.099 A 
ENDBRANCH  18  23
TORSDOF 2
ENDMDL
MODEL 5
REMARK VINA RESULT:     -15.8      1.683      2.775
REMARK  Name = 
REMARK  2 active torsions:
REMARK  status: ('A' for Active; 'I' for Inactive)
REMARK    1  A    between atoms: C_5  and  N_6
REMARK    2  A    between atoms: C_18  and  C_23
REMARK                            x       y       z     vdW  Elec       q    Type
REMARK                         _______ _______ _______ _____ _____    ______ ____
ROOT
ATOM      6  N   UNL     1      -3.284   2.457  25.041  0.00  0.00    -0.162 NA
ATOM      7  C   UNL     1      -3.536   3.247  25.272  0.00  0.00    +0.327 C 
ATOM      8  O   UNL     1      -3.351   4.075  25.477  0.00  0.00    -0.250 OA
ATOM      9  N   UNL     1      -4.355   2.974  25.267  0.00  0.00    -0.262 N 
ATOM     10  C   UNL     1      -5.139   3.232  25.401  0.00  0.00    +0.097 C 
ATOM     11  C   UNL     1      -5.623   2.390  25.216  0.00  0.00    +0.043 C 
ATOM     12  C   UNL     1      -6.160   1.789  25.100  0.00  0.00    +0.011 C 
ATOM     13  C   UNL     1      -5.465   1.877  25.066  0.00  0.00    +0.058 C 
ATOM     14  C   UNL     1      -5.011   2.698  25.248  0.00  0.00    +0.101 C 
ATOM     15  C   UNL     1      -4.689   1.421  24.881  0.00  0.00    +0.041 A 
ATOM     16  C   UNL     1      -4.423   0.672  24.659  0.00  0.00    +0.013 A 
ATOM     17  C   UNL     1      -3.617   0.535  24.556  0.00  0.00    +0.006 A 
ATOM     18  C   UNL     1      -3.075   1.146  24.674  0.00  0.00    +0.058 A 
ATOM     19  C   UNL     1      -3.341   1.895  24.896  0.00  0.00    +0.261 A 
ATOM     20  O   UNL     1      -2.805   2.646  25.051  0.00  0.00    -0.267 OA
ATOM     21  N   UNL     1      -4.148   2.032  24.999  0.00  0.00    -0.299 N 
ATOM     22  C   UNL     1      -4.807   1.922  25.024  0.00  0.00    +0.110 C 
ENDROOT
BRANCH   6   5
ATOM      1  C   UNL     1       0.192   2.319  24.963  0.00  0.00    +0.031 C 
ATOM      2  C   UNL     1      -0.633   2.337  24.954  0.00  0.00    -0.022 A 
ATOM      3  C   UNL     1      -1.045   2.018  24.315  0.00  0.00    -0.003 A 
ATOM      4  C   UNL     1      -1.917   2.142  24.508  0.00  0.00    +0.016 A 
ATOM      5  C   UNL     1      -2.283   2.375  24.936  0.00  0.00    +0.075 A 
ATOM     29  C   UNL     1      -1.870   2.694  25.574  0.00  0.00    +0.016 A 
ATOM     30  C   UNL     1      -1.046   2.676  25.584  0.00  0.00    -0.003 A 
ENDBRANCH   6   5
BRANCH  18  23
ATOM     23  C   UNL     1      -2.269   1.008  24.570  0.00  0.00    +0.024 A 
ATOM     24  C   UNL     1      -1.816   0.720  25.196  0.00  0.00    +0.003 A 
ATOM     25  C   UNL     1      -1.008   0.582  25.092  0.00  0.00    +0.021 A 
ATOM     26  C   UNL     1      -0.656   0.732  24.362  0.00  0.00    +0.099 A 
ATOM     27  N   UNL     1      -1.109   1.020  23.736  0.00  0.00    -0.242 NA
ATOM     28  C   UNL     1      -1.916   1.158  23.840  0.00  0.00    +0.099 A 
ENDBRANCH  18  23
TORSDOF 2
ENDMDL
MODEL 6
REMARK VINA RESULT:     -15.8      1.354      3.739
REMARK  Name = 
REMARK  2 active torsions:
REMARK  status: ('A' for Active; 'I' for Inactive)
REMARK    1  A    between atoms: C_5  and  N_6
REMARK    2  A    between atoms: C_18  and  C_23
REMARK                            x       y       z     vdW  Elec       q    Type
REMARK                         _______ _______ _______ _____ _____    ______ ____
ROOT
ATOM      6  N   UNL     1      -2.851   0.036  24.467  0.00  0.00    -0.162 NA
ATOM      7  C   UNL     1      -3.681   0.144  24.264  0.00  0.00    +0.327 C 
ATOM      8  O   UNL     1      -4.357   0.662  24.075  0.00  0.00    -0.250 OA
ATOM      9  N   UNL     1      -3.785  -0.714  24.284  0.00  0.00    -0.262 N 
ATOM     10  C   UNL     1      -4.357  -1.314  24.179  0.00  0.00    +0.097 C 
ATOM     11  C   UNL     1      -3.797  -2.109  24.354  0.00  0.00    +0.043 C 
ATOM     12  C   UNL     1      -3.479  -2.850  24.469  0.00  0.00    +0.011 C 
ATOM     13  C   UNL     1      -3.260  -2.183  24.486  0.00  0.00    +0.058 C 
ATOM     14  C   UNL     1      -3.814  -1.425  24.314  0.00  0.00    +0.101 C 
ATOM     15  C   UNL     1      -2.510  -1.675  24.638  0.00  0.00    +0.041 A 
ATOM     16  C   UNL     1      -1.712  -1.752  24.832  0.00  0.00    +0.013 A 
ATOM     17  C   UNL     1      -1.239  -1.081  24.909  0.00  0.00    +0.006 A 
ATOM     18  C   UNL     1      -1.565  -0.331  24.792  0.00  0.00    +0.058 A 
ATOM     19  C   UNL     1      -2.362  -0.254  24.598  0.00  0.00    +0.261 A 
ATOM     20  O   UNL     1      -2.818   0.549  24.448  0.00  0.00    -0.267 OA
ATOM     21  N   UNL     1      -2.835  -0.925  24.521  0.00  0.00    -0.299 N 
ATOM     22  C   UNL     1      -3.018  -1.569  24.511  0.00  0.00    +0.110 C 
ENDROOT
BRANCH   6   5
ATOM      1  C   UNL     1      -1.230   3.115  24.439  0.00  0.00    +0.031 C 
ATOM      2  C   UNL     1      -1.602   2.379  24.474  0.00  0.00    -0.022 A 
ATOM      3  C   UNL     1      -1.485   1.888  25.126  0.00  0.00    -0.003 A 
ATOM      4  C   UNL     1      -1.974   1.150  24.959  0.00  0.00    +0.016 A 
ATOM      5  C   UNL     1      -2.345   0.907  24.541  0.00  0.00    +0.075 A 
ATOM     29  C   UNL     1      -2.461   1.398  23.890  0.00  0.00    +0.016 A 
ATOM     30  C   UNL     1      -2.090   2.134  23.855  0.00  0.00    -0.003 A 
ENDBRANCH   6   5
BRANCH  18  23
ATOM     23  C   UNL     1      -1.091   0.340  24.870  0.00  0.00    +0.024 A 
ATOM     24  C   UNL     1      -1.028   0.718  25.600  0.00  0.00    +0.003 A 
ATOM     25  C   UNL     1      -0.554   1.390  25.677  0.00  0.00    +0.021 A 
ATOM     26  C   UNL     1      -0.144   1.682  25.023  0.00  0.00    +0.099 A 
ATOM     27  N   UNL     1      -0.207   1.303  24.293  0.00  0.00    -0.242 NA
ATOM     28  C   UNL     1      -0.681   0.632  24.216  0.00  0.00    +0.099 A 
ENDBRANCH  18  23
TORSDOF 2
ENDMDL
