MODEL 1
REMARK VINA RESULT:     -15.9      0.000      0.000
REMARK  Name = 
REMARK  5 active torsions:
REMARK  status: ('A' for Active; 'I' for Inactive)
REMARK    1  A    between atoms: O_2  and  C_3
REMARK    2  A    between atoms: C_6  and  N_7
REMARK    3  A    between atoms: C_17  and  N_18
REMARK    4  A    between atoms: N_18  and  S_19
REMARK    5  A    between atoms: S_19  and  C_22
REMARK                            x       y       z     vdW  Elec       q    Type
REMARK                         _______ _______ _______ _____ _____    ______ ____
ROOT
ATOM      7  N   UNL     1      -2.838   2.572  24.891  0.00  0.00    -0.162 NA
ATOM      8  C   UNL     1      -3.281   3.255  25.028  0.00  0.00    +0.327 C 
ATOM      9  O   UNL     1      -2.907   3.990  25.061  0.00  0.00    -0.250 OA
ATOM     10  N   UNL     1      -4.098   3.203  25.131  0.00  0.00    -0.262 N 
ATOM     11  C   UNL     1      -4.884   3.453  25.264  0.00  0.00    +0.097 C 
ATOM     12  C   UNL     1      -5.345   2.580  25.226  0.00  0.00    +0.043 C 
ATOM     13  C   UNL     1      -5.864   1.952  25.225  0.00  0.00    +0.011 C 
ATOM     14  C   UNL     1      -5.174   2.055  25.144  0.00  0.00    +0.060 C 
ATOM     15  C   UNL     1      -4.744   2.907  25.183  0.00  0.00    +0.101 C 
ATOM     16  C   UNL     1      -4.391   1.601  24.988  0.00  0.00    +0.058 A 
ATOM     17  C   UNL     1      -4.107   0.836  24.864  0.00  0.00    +0.103 A 
ATOM     28  C   UNL     1      -3.301   0.710  24.743  0.00  0.00    +0.024 A 
ATOM     29  C   UNL     1      -2.778   1.348  24.745  0.00  0.00    +0.062 A 
ATOM     30  C   UNL     1      -3.062   2.113  24.869  0.00  0.00    +0.261 A 
ATOM     31  O   UNL     1      -2.269   2.326  24.788  0.00  0.00    -0.267 OA
ATOM     32  N   UNL     1      -3.868   2.239  24.991  0.00  0.00    -0.298 N 
ATOM     33  C   UNL     1      -4.521   2.114  25.064  0.00  0.00    +0.110 C 
ENDROOT
BRANCH   7   6
ATOM      3  C   UNL     1      -0.388   2.730  24.581  0.00  0.00    +0.139 A 
ATOM      4  C   UNL     1      -0.889   2.756  23.926  0.00  0.00    +0.038 A 
ATOM      5  C   UNL     1      -1.706   2.703  24.030  0.00  0.00    +0.020 A 
ATOM      6  C   UNL     1      -2.022   2.625  24.789  0.00  0.00    +0.075 A 
ATOM     34  C   UNL     1      -1.520   2.600  25.442  0.00  0.00    +0.020 A 
ATOM     35  C   UNL     1      -0.704   2.652  25.340  0.00  0.00    +0.038 A 
BRANCH   3   2
ATOM      1  C   UNL     1       0.855   2.127  24.215  0.00  0.00    +0.252 C 
ATOM      2  O   UNL     1       0.429   2.783  24.477  0.00  0.00    -0.471 OA
ENDBRANCH   3   2
ENDBRANCH   7   6
BRANCH  17  18
ATOM     18  N   UNL     1      -4.630   0.198  24.862  0.00  0.00    -0.095 NA
BRANCH  18  19
ATOM     19  S   UNL     1      -4.346  -0.568  24.749  0.00  0.00    +0.093 S 
ATOM     20  O   UNL     1      -4.237  -0.647  25.563  0.00  0.00    -0.148 OA
ATOM     21  O   UNL     1      -4.455  -0.489  23.936  0.00  0.00    -0.148 OA
BRANCH  19  22
ATOM     22  C   UNL     1      -4.061  -1.334  24.637  0.00  0.00    +0.127 A 
ATOM     23  C   UNL     1      -4.228  -1.738  23.936  0.00  0.00    +0.020 A 
ATOM     24  C   UNL     1      -3.944  -2.504  23.824  0.00  0.00    +0.001 A 
ATOM     25  C   UNL     1      -3.492  -2.866  24.411  0.00  0.00    +0.000 A 
ATOM     26  C   UNL     1      -3.325  -2.463  25.112  0.00  0.00    +0.001 A 
ATOM     27  C   UNL     1      -3.610  -1.697  25.225  0.00  0.00    +0.020 A 
ENDBRANCH  19  22
ENDBRANCH  18  19
ENDBRANCH  17  18
TORSDOF 5
ENDMDL
MODEL 2
REMARK VINA RESULT:     -14.4      1.915      3.664
REMARK  Name = 
REMARK  5 active torsions:
REMARK  status: ('A' for Active; 'I' for Inactive)
REMARK    1  A    between atoms: O_2  and  C_3
REMARK    2  A    between atoms: C_6  and  N_7
REMARK    3  A    between atoms: C_17  and  N_18
REMARK    4  A    between atoms: N_18  and  S_19
REMARK    5  A    between atoms: S_19  and  C_22
REMARK                            x       y       z     vdW  Elec       q    Type
REMARK                         _______ _______ _______ _____ _____    ______ ____
ROOT
ATOM      7  N   UNL     1      -0.954   1.975  24.962  0.00  0.00    -0.162 NA
ATOM      8  C   UNL     1      -0.314   2.494  25.012  0.00  0.00    +0.327 C 
ATOM      9  O   UNL     1       0.457   2.201  25.007  0.00  0.00    -0.250 OA
ATOM     10  N   UNL     1      -0.446   3.307  25.067  0.00  0.00    -0.262 N 
ATOM     11  C   UNL     1      -0.273   4.122  25.128  0.00  0.00    +0.097 C 
ATOM     12  C   UNL     1      -1.191   4.486  25.135  0.00  0.00    +0.043 C 
ATOM     13  C   UNL     1      -1.870   4.937  25.153  0.00  0.00    +0.011 C 
ATOM     14  C   UNL     1      -1.699   4.258  25.108  0.00  0.00    +0.060 C 
ATOM     15  C   UNL     1      -0.805   3.921  25.103  0.00  0.00    +0.101 C 
ATOM     16  C   UNL     1      -2.077   3.422  25.041  0.00  0.00    +0.058 A 
ATOM     17  C   UNL     1      -2.814   3.054  25.000  0.00  0.00    +0.103 A 
ATOM     28  C   UNL     1      -2.861   2.233  24.941  0.00  0.00    +0.024 A 
ATOM     29  C   UNL     1      -2.172   1.780  24.923  0.00  0.00    +0.062 A 
ATOM     30  C   UNL     1      -1.435   2.148  24.964  0.00  0.00    +0.261 A 
ATOM     31  O   UNL     1      -1.144   1.378  24.916  0.00  0.00    -0.267 OA
ATOM     32  N   UNL     1      -1.388   2.969  25.023  0.00  0.00    -0.298 N 
ATOM     33  C   UNL     1      -1.577   3.610  25.065  0.00  0.00    +0.110 C 
ENDROOT
BRANCH   7   6
ATOM      3  C   UNL     1      -0.556  -0.462  24.796  0.00  0.00    +0.139 A 
ATOM      4  C   UNL     1      -0.500   0.011  24.123  0.00  0.00    +0.038 A 
ATOM      5  C   UNL     1      -0.632   0.824  24.178  0.00  0.00    +0.020 A 
ATOM      6  C   UNL     1      -0.821   1.163  24.907  0.00  0.00    +0.075 A 
ATOM     34  C   UNL     1      -0.878   0.688  25.579  0.00  0.00    +0.020 A 
ATOM     35  C   UNL     1      -0.746  -0.124  25.524  0.00  0.00    +0.038 A 
BRANCH   3   2
ATOM      1  C   UNL     1      -1.058  -1.800  24.786  0.00  0.00    +0.252 C 
ATOM      2  O   UNL     1      -0.424  -1.275  24.740  0.00  0.00    -0.471 OA
ENDBRANCH   3   2
ENDBRANCH   7   6
BRANCH  17  18
ATOM     18  N   UNL     1      -3.503   3.508  25.018  0.00  0.00    -0.095 NA
BRANCH  18  19
ATOM     19  S   UNL     1      -4.234   3.142  25.126  0.00  0.00    +0.093 S 
ATOM     20  O   UNL     1      -4.305   3.043  24.311  0.00  0.00    -0.148 OA
ATOM     21  O   UNL     1      -4.163   3.241  25.942  0.00  0.00    -0.148 OA
BRANCH  19  22
ATOM     22  C   UNL     1      -4.966   2.776  25.234  0.00  0.00    +0.127 A 
ATOM     23  C   UNL     1      -5.280   2.298  24.640  0.00  0.00    +0.020 A 
ATOM     24  C   UNL     1      -6.011   1.932  24.748  0.00  0.00    +0.001 A 
ATOM     25  C   UNL     1      -6.429   2.045  25.450  0.00  0.00    +0.000 A 
ATOM     26  C   UNL     1      -6.115   2.523  26.045  0.00  0.00    +0.001 A 
ATOM     27  C   UNL     1      -5.383   2.889  25.937  0.00  0.00    +0.020 A 
ENDBRANCH  19  22
ENDBRANCH  18  19
ENDBRANCH  17  18
TORSDOF 5
ENDMDL
MODEL 3
REMARK VINA RESULT:     -14.4      1.411      4.250
REMARK  Name = 
REMARK  5 active torsions:
REMARK  status: ('A' for Active; 'I' for Inactive)
REMARK    1  A    between atoms: O_2  and  C_3
REMARK    2  A    between atoms: C_6  and  N_7
REMARK    3  A    between atoms: C_17  and  N_18
REMARK    4  A    between atoms: N_18  and  S_19
REMARK    5  A    between atoms: S_19  and  C_22
REMARK                            x       y       z     vdW  Elec       q    Type
REMARK                         _______ _______ _______ _____ _____    ______ ____
ROOT
ATOM      7  N   UNL     1      -4.453   0.943  24.953  0.00  0.00    -0.162 NA
ATOM      8  C   UNL     1      -5.276   0.941  25.026  0.00  0.00    +0.327 C 
ATOM      9  O   UNL     1      -5.697   0.239  24.927  0.00  0.00    -0.250 OA
ATOM     10  N   UNL     1      -5.676   1.641  25.199  0.00  0.00    -0.262 N 
ATOM     11  C   UNL     1      -6.317   2.154  25.357  0.00  0.00    +0.097 C 
ATOM     12  C   UNL     1      -5.825   3.002  25.478  0.00  0.00    +0.043 C 
ATOM     13  C   UNL     1      -5.573   3.766  25.605  0.00  0.00    +0.011 C 
ATOM     14  C   UNL     1      -5.286   3.143  25.458  0.00  0.00    +0.060 C 
ATOM     15  C   UNL     1      -5.776   2.332  25.343  0.00  0.00    +0.101 C 
ATOM     16  C   UNL     1      -4.473   2.743  25.306  0.00  0.00    +0.058 A 
ATOM     17  C   UNL     1      -3.668   2.921  25.269  0.00  0.00    +0.103 A 
ATOM     28  C   UNL     1      -3.122   2.325  25.103  0.00  0.00    +0.024 A 
ATOM     29  C   UNL     1      -3.380   1.552  24.975  0.00  0.00    +0.062 A 
ATOM     30  C   UNL     1      -4.184   1.374  25.013  0.00  0.00    +0.261 A 
ATOM     31  O   UNL     1      -3.934   0.607  24.841  0.00  0.00    -0.267 OA
ATOM     32  N   UNL     1      -4.731   1.970  25.178  0.00  0.00    -0.298 N 
ATOM     33  C   UNL     1      -4.980   2.575  25.319  0.00  0.00    +0.110 C 
ENDROOT
BRANCH   7   6
ATOM      3  C   UNL     1      -3.253  -1.159  24.437  0.00  0.00    +0.139 A 
ATOM      4  C   UNL     1      -3.406  -0.953  25.220  0.00  0.00    +0.038 A 
ATOM      5  C   UNL     1      -3.806  -0.252  25.393  0.00  0.00    +0.020 A 
ATOM      6  C   UNL     1      -4.054   0.243  24.780  0.00  0.00    +0.075 A 
ATOM     34  C   UNL     1      -3.901   0.037  23.997  0.00  0.00    +0.020 A 
ATOM     35  C   UNL     1      -3.501  -0.663  23.824  0.00  0.00    +0.038 A 
BRANCH   3   2
ATOM      1  C   UNL     1      -3.170  -2.584  24.498  0.00  0.00    +0.252 C 
ATOM      2  O   UNL     1      -2.853  -1.859  24.264  0.00  0.00    -0.471 OA
ENDBRANCH   3   2
ENDBRANCH   7   6
BRANCH  17  18
ATOM     18  N   UNL     1      -3.410   3.694  25.397  0.00  0.00    -0.095 NA
BRANCH  18  19
ATOM     19  S   UNL     1      -2.614   3.885  25.294  0.00  0.00    +0.093 S 
ATOM     20  O   UNL     1      -2.743   3.984  24.485  0.00  0.00    -0.148 OA
ATOM     21  O   UNL     1      -2.486   3.786  26.103  0.00  0.00    -0.148 OA
BRANCH  19  22
ATOM     22  C   UNL     1      -1.819   4.077  25.191  0.00  0.00    +0.127 A 
ATOM     23  C   UNL     1      -1.605   4.839  24.956  0.00  0.00    +0.020 A 
ATOM     24  C   UNL     1      -0.809   5.031  24.853  0.00  0.00    +0.001 A 
ATOM     25  C   UNL     1      -0.227   4.461  24.985  0.00  0.00    +0.000 A 
ATOM     26  C   UNL     1      -0.441   3.699  25.220  0.00  0.00    +0.001 A 
ATOM     27  C   UNL     1      -1.237   3.507  25.323  0.00  0.00    +0.020 A 
ENDBRANCH  19  22
ENDBRANCH  18  19
ENDBRANCH  17  18
TORSDOF 5
ENDMDL
