MODEL 1
REMARK VINA RESULT:     -12.5      0.000      0.000
REMARK  Name = 
REMARK  7 active torsions:
REMARK  status: ('A' for Active; 'I' for Inactive)
REMARK    1  A    between atoms: O_2  and  C_3
REMARK    2  A    between atoms: C_7  and  C_8
REMARK    3  A    between atoms: C_8  and  N_9
REMARK    4  A    between atoms: N_9  and  C_10
REMARK    5  A    between atoms: C_10  and  C_11
REMARK    6  A    between atoms: C_11  and  C_12
REMARK    7  A    between atoms: C_15  and  C_17
REMARK                            x       y       z     vdW  Elec       q    Type
REMARK                         _______ _______ _______ _____ _____    ______ ____
ROOT
ATOM     10  C   UNL     1      -4.345   2.873  25.100  0.00  0.00    +0.120 C 
ATOM     24  C   UNL     1      -4.481   3.489  25.630  0.00  0.00    +0.161 C 
ATOM     25  O   UNL     1      -5.292   3.436  25.484  0.00  0.00    -0.351 OA
ATOM     26  C   UNL     1      -5.155   2.819  24.952  0.00  0.00    +0.161 C 
ENDROOT
BRANCH  10   9
ATOM      9  N   UNL     1      -3.534   2.925  25.246  0.00  0.00    -0.211 NA
BRANCH   9   8
ATOM      8  C   UNL     1      -3.182   3.662  25.358  0.00  0.00    +0.115 C 
BRANCH   8   7
ATOM      3  C   UNL     1      -1.090   3.268  25.840  0.00  0.00    +0.138 A 
ATOM      4  C   UNL     1      -0.715   3.863  25.408  0.00  0.00    +0.037 A 
ATOM      5  C   UNL     1      -1.164   4.390  24.960  0.00  0.00    +0.003 A 
ATOM      6  C   UNL     1      -1.986   4.324  24.942  0.00  0.00    -0.003 A 
ATOM      7  C   UNL     1      -2.360   3.728  25.375  0.00  0.00    -0.002 A 
ATOM     27  C   UNL     1      -1.912   3.200  25.824  0.00  0.00    +0.034 A 
BRANCH   3   2
ATOM      1  C   UNL     1       0.050   2.418  25.977  0.00  0.00    +0.252 C 
ATOM      2  O   UNL     1      -0.642   2.740  26.289  0.00  0.00    -0.471 OA
ENDBRANCH   3   2
ENDBRANCH   8   7
ENDBRANCH   9   8
ENDBRANCH  10   9
BRANCH  10  11
ATOM     11  C   UNL     1      -4.208   2.256  24.568  0.00  0.00    +0.070 C 
BRANCH  11  12
ATOM     12  C   UNL     1      -4.355   1.477  24.795  0.00  0.00    +0.102 A 
ATOM     13  N   UNL     1      -4.911   1.230  25.351  0.00  0.00    -0.081 NA
ATOM     14  O   UNL     1      -4.872   0.408  25.405  0.00  0.00    -0.354 OA
ATOM     15  C   UNL     1      -4.290   0.145  24.881  0.00  0.00    +0.177 A 
ATOM     16  C   UNL     1      -3.972   0.806  24.504  0.00  0.00    +0.058 A 
BRANCH  15  17
ATOM     17  C   UNL     1      -4.068  -0.639  24.756  0.00  0.00    +0.037 A 
ATOM     18  C   UNL     1      -3.600  -1.028  25.314  0.00  0.00    +0.005 A 
ATOM     19  C   UNL     1      -3.377  -1.812  25.189  0.00  0.00    +0.030 A 
ATOM     20  C   UNL     1      -3.621  -2.207  24.506  0.00  0.00    +0.140 A 
ATOM     21  F   UNL     1      -3.398  -2.991  24.381  0.00  0.00    -0.204 F 
ATOM     22  C   UNL     1      -4.088  -1.817  23.949  0.00  0.00    +0.030 A 
ATOM     23  C   UNL     1      -4.311  -1.033  24.074  0.00  0.00    +0.005 A 
ENDBRANCH  15  17
ENDBRANCH  11  12
ENDBRANCH  10  11
TORSDOF 7
ENDMDL
MODEL 2
REMARK VINA RESULT:     -12.0      2.014      4.676
REMARK  Name = 
REMARK  7 active torsions:
REMARK  status: ('A' for Active; 'I' for Inactive)
REMARK    1  A    between atoms: O_2  and  C_3
REMARK    2  A    between atoms: C_7  and  C_8
REMARK    3  A    between atoms: C_8  and  N_9
REMARK    4  A    between atoms: N_9  and  C_10
REMARK    5  A    between atoms: C_10  and  C_11
REMARK    6  A    between atoms: C_11  and  C_12
REMARK    7  A    between atoms: C_15  and  C_17
REMARK                            x       y       z     vdW  Elec       q    Type
REMARK                         _______ _______ _______ _____ _____    ______ ____
ROOT
ATOM     10  C   UNL     1      -5.037   1.808  25.020  0.00  0.00    +0.120 C 
ATOM     24  C   UNL     1      -5.547   1.341  25.468  0.00  0.00    +0.161 C 
ATOM     25  O   UNL     1      -6.090   1.962  25.498  0.00  0.00    -0.351 OA
ATOM     26  C   UNL     1      -5.579   2.429  25.049  0.00  0.00    +0.161 C 
ENDROOT
BRANCH  10   9
ATOM      9  N   UNL     1      -4.494   1.187  24.989  0.00  0.00    -0.211 NA
BRANCH   9   8
ATOM      8  C   UNL     1      -4.760   0.407  24.964  0.00  0.00    +0.115 C 
BRANCH   8   7
ATOM      3  C   UNL     1      -3.078  -0.957  25.236  0.00  0.00    +0.138 A 
ATOM      4  C   UNL     1      -3.157  -1.438  24.570  0.00  0.00    +0.037 A 
ATOM      5  C   UNL     1      -3.770  -1.302  24.036  0.00  0.00    +0.003 A 
ATOM      6  C   UNL     1      -4.305  -0.688  24.167  0.00  0.00    -0.003 A 
ATOM      7  C   UNL     1      -4.225  -0.208  24.833  0.00  0.00    -0.002 A 
ATOM     27  C   UNL     1      -3.611  -0.342  25.369  0.00  0.00    +0.034 A 
BRANCH   3   2
ATOM      1  C   UNL     1      -1.682  -1.095  25.509  0.00  0.00    +0.252 C 
ATOM      2  O   UNL     1      -2.464  -1.092  25.771  0.00  0.00    -0.471 OA
ENDBRANCH   3   2
ENDBRANCH   8   7
ENDBRANCH   9   8
ENDBRANCH  10   9
BRANCH  10  11
ATOM     11  C   UNL     1      -4.526   2.276  24.570  0.00  0.00    +0.070 C 
BRANCH  11  12
ATOM     12  C   UNL     1      -4.034   2.822  24.943  0.00  0.00    +0.102 A 
ATOM     13  N   UNL     1      -4.176   3.188  25.668  0.00  0.00    -0.081 NA
ATOM     14  O   UNL     1      -3.543   3.692  25.829  0.00  0.00    -0.354 OA
ATOM     15  C   UNL     1      -3.008   3.638  25.202  0.00  0.00    +0.177 A 
ATOM     16  C   UNL     1      -3.312   3.101  24.655  0.00  0.00    +0.058 A 
BRANCH  15  17
ATOM     17  C   UNL     1      -2.296   4.048  25.135  0.00  0.00    +0.037 A 
ATOM     18  C   UNL     1      -1.589   3.633  25.040  0.00  0.00    +0.005 A 
ATOM     19  C   UNL     1      -0.877   4.044  24.973  0.00  0.00    +0.030 A 
ATOM     20  C   UNL     1      -0.871   4.869  25.000  0.00  0.00    +0.140 A 
ATOM     21  F   UNL     1      -0.159   5.279  24.933  0.00  0.00    -0.204 F 
ATOM     22  C   UNL     1      -1.578   5.283  25.095  0.00  0.00    +0.030 A 
ATOM     23  C   UNL     1      -2.290   4.872  25.162  0.00  0.00    +0.005 A 
ENDBRANCH  15  17
ENDBRANCH  11  12
ENDBRANCH  10  11
TORSDOF 7
ENDMDL
MODEL 3
REMARK VINA RESULT:     -11.2      1.503      3.023
REMARK  Name = 
REMARK  7 active torsions:
REMARK  status: ('A' for Active; 'I' for Inactive)
REMARK    1  A    between atoms: O_2  and  C_3
REMARK    2  A    between atoms: C_7  and  C_8
REMARK    3  A    between atoms: C_8  and  N_9
REMARK    4  A    between atoms: N_9  and  C_10
REMARK    5  A    between atoms: C_10  and  C_11
REMARK    6  A    between atoms: C_11  and  C_12
REMARK    7  A    between atoms: C_15  and  C_17
REMARK                            x       y       z     vdW  Elec       q    Type
REMARK                         _______ _______ _______ _____ _____    ______ ____
ROOT
ATOM     10  C   UNL     1      -1.039   2.021  25.414  0.00  0.00    +0.120 C 
ATOM     24  C   UNL     1      -0.970   2.649  25.944  0.00  0.00    +0.161 C 
ATOM     25  O   UNL     1      -0.177   2.458  26.068  0.00  0.00    -0.351 OA
ATOM     26  C   UNL     1      -0.246   1.829  25.537  0.00  0.00    +0.161 C 
ENDROOT
BRANCH  10   9
ATOM      9  N   UNL     1      -1.832   2.212  25.291  0.00  0.00    -0.211 NA
BRANCH   9   8
ATOM      8  C   UNL     1      -2.058   2.999  25.198  0.00  0.00    +0.115 C 
BRANCH   8   7
ATOM      3  C   UNL     1      -4.201   3.382  25.362  0.00  0.00    +0.138 A 
ATOM      4  C   UNL     1      -4.389   3.556  24.578  0.00  0.00    +0.037 A 
ATOM      5  C   UNL     1      -3.800   3.544  24.001  0.00  0.00    +0.003 A 
ATOM      6  C   UNL     1      -3.023   3.359  24.207  0.00  0.00    -0.003 A 
ATOM      7  C   UNL     1      -2.835   3.185  24.992  0.00  0.00    -0.002 A 
ATOM     27  C   UNL     1      -3.424   3.196  25.570  0.00  0.00    +0.034 A 
BRANCH   3   2
ATOM      1  C   UNL     1      -5.489   2.972  25.824  0.00  0.00    +0.252 C 
ATOM      2  O   UNL     1      -4.790   3.393  25.940  0.00  0.00    -0.471 OA
ENDBRANCH   3   2
ENDBRANCH   8   7
ENDBRANCH   9   8
ENDBRANCH  10   9
BRANCH  10  11
ATOM     11  C   UNL     1      -1.108   1.392  24.883  0.00  0.00    +0.070 C 
BRANCH  11  12
ATOM     12  C   UNL     1      -1.303   0.641  25.159  0.00  0.00    +0.102 A 
ATOM     13  N   UNL     1      -0.984   0.268  25.822  0.00  0.00    -0.081 NA
ATOM     14  O   UNL     1      -1.336  -0.474  25.893  0.00  0.00    -0.354 OA
ATOM     15  C   UNL     1      -1.874  -0.562  25.273  0.00  0.00    +0.177 A 
ATOM     16  C   UNL     1      -1.853   0.127  24.820  0.00  0.00    +0.058 A 
BRANCH  15  17
ATOM     17  C   UNL     1      -2.348  -1.222  25.131  0.00  0.00    +0.037 A 
ATOM     18  C   UNL     1      -2.056  -1.850  24.682  0.00  0.00    +0.005 A 
ATOM     19  C   UNL     1      -2.530  -2.510  24.540  0.00  0.00    +0.030 A 
ATOM     20  C   UNL     1      -3.296  -2.542  24.847  0.00  0.00    +0.140 A 
ATOM     21  F   UNL     1      -3.770  -3.202  24.705  0.00  0.00    -0.204 F 
ATOM     22  C   UNL     1      -3.587  -1.914  25.295  0.00  0.00    +0.030 A 
ATOM     23  C   UNL     1      -3.112  -1.254  25.437  0.00  0.00    +0.005 A 
ENDBRANCH  15  17
ENDBRANCH  11  12
ENDBRANCH  10  11
TORSDOF 7
ENDMDL
