MODEL 1
REMARK VINA RESULT:     -11.0      0.000      0.000
REMARK  Name = 
REMARK  4 active torsions:
REMARK  status: ('A' for Active; 'I' for Inactive)
REMARK    1  A    between atoms: O_2  and  C_3
REMARK    2  A    between atoms: C_3  and  C_4
REMARK    3  A    between atoms: C_4  and  N_5
REMARK    4  A    between atoms: C_15  and  C_17
REMARK                            x       y       z     vdW  Elec       q    Type
REMARK                         _______ _______ _______ _____ _____    ______ ____
ROOT
ATOM      5  N   UNL     1      -4.396   2.710  24.996  0.00  0.00    -0.272 N 
ATOM      6  C   UNL     1      -4.230   1.910  24.879  0.00  0.00    +0.124 C 
ATOM      7  C   UNL     1      -3.588   1.523  24.533  0.00  0.00    +0.116 C 
ATOM      8  N   UNL     1      -3.728   0.711  24.573  0.00  0.00    -0.272 N 
ATOM      9  C   UNL     1      -4.457   0.596  24.943  0.00  0.00    +0.125 C 
ATOM     10  C   UNL     1      -4.767   1.337  25.132  0.00  0.00    +0.155 C 
ATOM     11  O   UNL     1      -5.470   1.564  25.502  0.00  0.00    -0.343 OA
ATOM     12  C   UNL     1      -5.634   2.364  25.618  0.00  0.00    +0.227 C 
ATOM     13  C   UNL     1      -5.097   2.937  25.365  0.00  0.00    +0.256 C 
ATOM     14  O   UNL     1      -5.261   3.736  25.482  0.00  0.00    -0.272 OA
ATOM     15  C   UNL     1      -3.228   0.118  24.292  0.00  0.00    +0.249 C 
ATOM     16  O   UNL     1      -2.514   0.318  23.933  0.00  0.00    -0.270 OA
ENDROOT
BRANCH  15  17
ATOM     17  C   UNL     1      -3.444  -0.675  24.371  0.00  0.00    +0.054 A 
ATOM     18  C   UNL     1      -3.189  -1.108  25.025  0.00  0.00    +0.007 A 
ATOM     19  C   UNL     1      -3.404  -1.899  25.105  0.00  0.00    +0.030 A 
ATOM     20  C   UNL     1      -3.874  -2.260  24.530  0.00  0.00    +0.140 A 
ATOM     21  F   UNL     1      -4.090  -3.051  24.610  0.00  0.00    -0.204 F 
ATOM     22  C   UNL     1      -4.129  -1.827  23.876  0.00  0.00    +0.030 A 
ATOM     23  C   UNL     1      -3.914  -1.034  23.797  0.00  0.00    +0.007 A 
ENDBRANCH  15  17
BRANCH   5   4
ATOM      4  C   UNL     1      -3.858   3.283  24.743  0.00  0.00    +0.126 C 
BRANCH   4   3
ATOM      3  C   UNL     1      -3.343   3.633  25.284  0.00  0.00    +0.164 C 
BRANCH   3   2
ATOM      1  C   UNL     1      -2.157   4.389  25.534  0.00  0.00    +0.174 C 
ATOM      2  O   UNL     1      -2.753   4.146  25.019  0.00  0.00    -0.349 OA
ENDBRANCH   3   2
ENDBRANCH   4   3
ENDBRANCH   5   4
TORSDOF 4
ENDMDL
MODEL 2
REMARK VINA RESULT:     -10.5      1.320      2.307
REMARK  Name = 
REMARK  4 active torsions:
REMARK  status: ('A' for Active; 'I' for Inactive)
REMARK    1  A    between atoms: O_2  and  C_3
REMARK    2  A    between atoms: C_3  and  C_4
REMARK    3  A    between atoms: C_4  and  N_5
REMARK    4  A    between atoms: C_15  and  C_17
REMARK                            x       y       z     vdW  Elec       q    Type
REMARK                         _______ _______ _______ _____ _____    ______ ____
ROOT
ATOM      5  N   UNL     1      -2.210   2.223  24.325  0.00  0.00    -0.272 N 
ATOM      6  C   UNL     1      -2.546   1.472  24.386  0.00  0.00    +0.124 C 
ATOM      7  C   UNL     1      -3.294   1.219  24.627  0.00  0.00    +0.116 C 
ATOM      8  N   UNL     1      -3.315   0.396  24.573  0.00  0.00    -0.272 N 
ATOM      9  C   UNL     1      -2.579   0.140  24.300  0.00  0.00    +0.125 C 
ATOM     10  C   UNL     1      -2.104   0.805  24.184  0.00  0.00    +0.155 C 
ATOM     11  O   UNL     1      -1.326   0.889  23.921  0.00  0.00    -0.343 OA
ATOM     12  C   UNL     1      -0.991   1.641  23.860  0.00  0.00    +0.227 C 
ATOM     13  C   UNL     1      -1.433   2.307  24.063  0.00  0.00    +0.256 C 
ATOM     14  O   UNL     1      -1.098   3.058  24.002  0.00  0.00    -0.272 OA
ATOM     15  C   UNL     1      -3.957  -0.086  24.760  0.00  0.00    +0.249 C 
ATOM     16  O   UNL     1      -4.661   0.250  25.029  0.00  0.00    -0.270 OA
ENDROOT
BRANCH  15  17
ATOM     17  C   UNL     1      -3.895  -0.905  24.678  0.00  0.00    +0.054 A 
ATOM     18  C   UNL     1      -4.155  -1.271  23.986  0.00  0.00    +0.007 A 
ATOM     19  C   UNL     1      -4.093  -2.089  23.904  0.00  0.00    +0.030 A 
ATOM     20  C   UNL     1      -3.772  -2.542  24.513  0.00  0.00    +0.140 A 
ATOM     21  F   UNL     1      -3.710  -3.360  24.431  0.00  0.00    -0.204 F 
ATOM     22  C   UNL     1      -3.512  -2.177  25.206  0.00  0.00    +0.030 A 
ATOM     23  C   UNL     1      -3.574  -1.358  25.288  0.00  0.00    +0.007 A 
ENDBRANCH  15  17
BRANCH   5   4
ATOM      4  C   UNL     1      -2.652   2.890  24.528  0.00  0.00    +0.126 C 
BRANCH   4   3
ATOM      3  C   UNL     1      -2.519   3.270  25.247  0.00  0.00    +0.164 C 
BRANCH   3   2
ATOM      1  C   UNL     1      -2.935   4.207  26.243  0.00  0.00    +0.174 C 
ATOM      2  O   UNL     1      -3.021   3.878  25.492  0.00  0.00    -0.349 OA
ENDBRANCH   3   2
ENDBRANCH   4   3
ENDBRANCH   5   4
TORSDOF 4
ENDMDL
MODEL 3
REMARK VINA RESULT:      -9.4      2.711      4.902
REMARK  Name = 
REMARK  4 active torsions:
REMARK  status: ('A' for Active; 'I' for Inactive)
REMARK    1  A    between atoms: O_2  and  C_3
REMARK    2  A    between atoms: C_3  and  C_4
REMARK    3  A    between atoms: C_4  and  N_5
REMARK    4  A    between atoms: C_15  and  C_17
REMARK                            x       y       z     vdW  Elec       q    Type
REMARK                         _______ _______ _______ _____ _____    ______ ____
ROOT
ATOM      5  N   UNL     1      -2.815   0.236  24.691  0.00  0.00    -0.272 N 
ATOM      6  C   UNL     1      -2.513   0.993  24.820  0.00  0.00    +0.124 C 
ATOM      7  C   UNL     1      -1.904   1.270  25.304  0.00  0.00    +0.116 C 
ATOM      8  N   UNL     1      -1.851   2.087  25.205  0.00  0.00    -0.272 N 
ATOM      9  C   UNL     1      -2.427   2.315  24.659  0.00  0.00    +0.125 C 
ATOM     10  C   UNL     1      -2.836   1.639  24.421  0.00  0.00    +0.155 C 
ATOM     11  O   UNL     1      -3.460   1.527  23.893  0.00  0.00    -0.343 OA
ATOM     12  C   UNL     1      -3.761   0.770  23.765  0.00  0.00    +0.227 C 
ATOM     13  C   UNL     1      -3.438   0.124  24.164  0.00  0.00    +0.256 C 
ATOM     14  O   UNL     1      -3.740  -0.632  24.035  0.00  0.00    -0.272 OA
ATOM     15  C   UNL     1      -1.317   2.589  25.584  0.00  0.00    +0.249 C 
ATOM     16  O   UNL     1      -0.771   2.280  26.118  0.00  0.00    -0.270 OA
ENDROOT
BRANCH  15  17
ATOM     17  C   UNL     1      -1.330   3.399  25.427  0.00  0.00    +0.054 A 
ATOM     18  C   UNL     1      -0.750   3.735  24.946  0.00  0.00    +0.007 A 
ATOM     19  C   UNL     1      -0.763   4.544  24.789  0.00  0.00    +0.030 A 
ATOM     20  C   UNL     1      -1.355   5.018  25.113  0.00  0.00    +0.140 A 
ATOM     21  F   UNL     1      -1.367   5.828  24.957  0.00  0.00    -0.204 F 
ATOM     22  C   UNL     1      -1.935   4.683  25.594  0.00  0.00    +0.030 A 
ATOM     23  C   UNL     1      -1.922   3.872  25.751  0.00  0.00    +0.007 A 
ENDBRANCH  15  17
BRANCH   5   4
ATOM      4  C   UNL     1      -2.491  -0.411  25.091  0.00  0.00    +0.126 C 
BRANCH   4   3
ATOM      3  C   UNL     1      -2.017  -0.950  24.686  0.00  0.00    +0.164 C 
BRANCH   3   2
ATOM      1  C   UNL     1      -1.184  -2.111  24.692  0.00  0.00    +0.174 C 
ATOM      2  O   UNL     1      -1.623  -1.545  25.100  0.00  0.00    -0.349 OA
ENDBRANCH   3   2
ENDBRANCH   4   3
ENDBRANCH   5   4
TORSDOF 4
ENDMDL
MODEL 4
REMARK VINA RESULT:      -9.2      2.178      4.772
REMARK  Name = 
REMARK  4 active torsions:
REMARK  status: ('A' for Active; 'I' for Inactive)
REMARK    1  A    between atoms: O_2  and  C_3
REMARK    2  A    between atoms: C_3  and  C_4
REMARK    3  A    between atoms: C_4  and  N_5
REMARK    4  A    between atoms: C_15  and  C_17
REMARK                            x       y       z     vdW  Elec       q    Type
REMARK                         _______ _______ _______ _____ _____    ______ ____
ROOT
ATOM      5  N   UNL     1      -2.085  -0.799  25.189  0.00  0.00    -0.272 N 
ATOM      6  C   UNL     1      -2.467  -0.082  25.048  0.00  0.00    +0.124 C 
ATOM      7  C   UNL     1      -3.265   0.129  25.045  0.00  0.00    +0.116 C 
ATOM      8  N   UNL     1      -3.317   0.932  24.865  0.00  0.00    -0.272 N 
ATOM      9  C   UNL     1      -2.551   1.219  24.756  0.00  0.00    +0.125 C 
ATOM     10  C   UNL     1      -2.026   0.592  24.869  0.00  0.00    +0.155 C 
ATOM     11  O   UNL     1      -1.202   0.548  24.832  0.00  0.00    -0.343 OA
ATOM     12  C   UNL     1      -0.821  -0.170  24.974  0.00  0.00    +0.227 C 
ATOM     13  C   UNL     1      -1.263  -0.844  25.153  0.00  0.00    +0.256 C 
ATOM     14  O   UNL     1      -0.882  -1.561  25.294  0.00  0.00    -0.272 OA
ATOM     15  C   UNL     1      -4.012   1.372  24.805  0.00  0.00    +0.249 C 
ATOM     16  O   UNL     1      -4.742   1.009  24.929  0.00  0.00    -0.270 OA
ENDROOT
BRANCH  15  17
ATOM     17  C   UNL     1      -3.977   2.175  24.620  0.00  0.00    +0.054 A 
ATOM     18  C   UNL     1      -3.970   2.737  25.224  0.00  0.00    +0.007 A 
ATOM     19  C   UNL     1      -3.934   3.540  25.039  0.00  0.00    +0.030 A 
ATOM     20  C   UNL     1      -3.906   3.782  24.251  0.00  0.00    +0.140 A 
ATOM     21  F   UNL     1      -3.870   4.585  24.066  0.00  0.00    -0.204 F 
ATOM     22  C   UNL     1      -3.913   3.220  23.647  0.00  0.00    +0.030 A 
ATOM     23  C   UNL     1      -3.948   2.417  23.832  0.00  0.00    +0.007 A 
ENDBRANCH  15  17
BRANCH   5   4
ATOM      4  C   UNL     1      -2.528  -1.474  25.368  0.00  0.00    +0.126 C 
BRANCH   4   3
ATOM      3  C   UNL     1      -2.700  -2.022  24.777  0.00  0.00    +0.164 C 
BRANCH   3   2
ATOM      1  C   UNL     1      -3.575  -3.056  24.323  0.00  0.00    +0.174 C 
ATOM      2  O   UNL     1      -3.197  -2.660  24.939  0.00  0.00    -0.349 OA
ENDBRANCH   3   2
ENDBRANCH   4   3
ENDBRANCH   5   4
TORSDOF 4
ENDMDL
