REMARK  Name = 
REMARK  8 active torsions:
REMARK  status: ('A' for Active; 'I' for Inactive)
REMARK    1  A    between atoms: C_2  and  C_4
REMARK    2  A    between atoms: C_4  and  C_5
REMARK    3  A    between atoms: C_7  and  C_25
REMARK    4  A    between atoms: N_11  and  C_12
REMARK    5  A    between atoms: C_12  and  C_13
REMARK    6  A    between atoms: N_27  and  C_28
REMARK    7  A    between atoms: C_28  and  C_29
REMARK    8  A    between atoms: C_29  and  N_30
REMARK                            x       y       z     vdW  Elec       q    Type
REMARK                         _______ _______ _______ _____ _____    ______ ____
ROOT
ATOM      5  C   UNL     1       0.542  -0.402   0.000  0.00  0.00    +0.095 C 
ATOM      6  N   UNL     1       1.147  -0.963   0.000  0.00  0.00    -0.207 NA
ATOM      7  C   UNL     1       1.085  -1.786   0.000  0.00  0.00    +0.155 C 
ATOM      8  C   UNL     1       0.404  -2.251   0.000  0.00  0.00    +0.055 C 
ATOM      9  C   UNL     1      -0.385  -2.008   0.000  0.00  0.00    -0.002 A 
ATOM     10  C   UNL     1      -1.022  -2.532   0.000  0.00  0.00    +0.072 A 
ATOM     11  N   UNL     1      -1.717  -2.087   0.000  0.00  0.00    -0.319 N 
ATOM     19  C   UNL     1      -1.510  -1.289   0.000  0.00  0.00    +0.060 A 
ATOM     20  C   UNL     1      -0.686  -1.240   0.000  0.00  0.00    +0.011 A 
ATOM     21  C   UNL     1      -0.274  -0.525   0.000  0.00  0.00    -0.005 A 
ATOM     22  C   UNL     1      -0.772   0.187   0.000  0.00  0.00    -0.003 A 
ATOM     23  C   UNL     1      -1.595   0.137   0.000  0.00  0.00    +0.001 A 
ATOM     24  C   UNL     1      -1.964  -0.601   0.000  0.00  0.00    +0.017 A 
ENDROOT
BRANCH   7  25
ATOM     25  C   UNL     1       1.800  -2.199   0.000  0.00  0.00    +0.258 C 
ATOM     26  O   UNL     1       1.800  -3.024   0.000  0.00  0.00    -0.272 OA
ATOM     27  N   UNL     1       2.514  -1.786   0.000  0.00  0.00    -0.203 NA
BRANCH  27  28
ATOM     28  C   UNL     1       3.229  -2.199   0.000  0.00  0.00    +0.132 C 
BRANCH  28  29
ATOM     29  C   UNL     1       3.943  -1.786   0.000  0.00  0.00    +0.096 C 
BRANCH  29  30
ATOM     30  N   UNL     1       4.658  -2.199   0.000  0.00  0.00    -0.269 NA
ATOM     31  C   UNL     1       5.372  -1.786   0.000  0.00  0.00    +0.090 C 
ATOM     32  C   UNL     1       4.658  -3.024   0.000  0.00  0.00    +0.090 C 
ENDBRANCH  29  30
ENDBRANCH  28  29
ENDBRANCH  27  28
ENDBRANCH   7  25
BRANCH   5   4
ATOM      4  C   UNL     1       0.785   0.386   0.000  0.00  0.00    +0.022 C 
BRANCH   4   2
ATOM      1  C   UNL     1       0.467   1.779   0.000  0.00  0.00    +0.000 C 
ATOM      2  C   UNL     1       0.224   0.991   0.000  0.00  0.00    +0.002 C 
ATOM      3  C   UNL     1      -0.580   0.807   0.000  0.00  0.00    +0.000 C 
ENDBRANCH   4   2
ENDBRANCH   5   4
BRANCH  11  12
ATOM     12  C   UNL     1      -2.485  -2.389   0.000  0.00  0.00    +0.170 C 
BRANCH  12  13
ATOM     13  C   UNL     1      -3.130  -1.875   0.000  0.00  0.00    +0.144 A 
ATOM     14  N   UNL     1      -3.925  -2.094   0.000  0.00  0.00    -0.227 NA
ATOM     15  C   UNL     1      -4.380  -1.405   0.000  0.00  0.00    +0.119 A 
ATOM     16  C   UNL     1      -3.866  -0.760   0.000  0.00  0.00    +0.098 A 
ATOM     17  N   UNL     1      -3.093  -1.050   0.000  0.00  0.00    -0.310 N 
ATOM     18  C   UNL     1      -2.405  -0.596   0.000  0.00  0.00    +0.132 C 
ENDBRANCH  12  13
ENDBRANCH  11  12
TORSDOF 8
