MODEL 1
REMARK VINA RESULT:     -10.8      0.000      0.000
REMARK  Name = 
REMARK  7 active torsions:
REMARK  status: ('A' for Active; 'I' for Inactive)
REMARK    1  A    between atoms: O_2  and  C_3
REMARK    2  A    between atoms: C_6  and  S_9
REMARK    3  A    between atoms: S_9  and  N_12
REMARK    4  A    between atoms: N_12  and  C_13
REMARK    5  A    between atoms: C_13  and  C_14
REMARK    6  A    between atoms: C_21  and  C_22
REMARK    7  A    between atoms: C_22  and  N_23
REMARK                            x       y       z     vdW  Elec       q    Type
REMARK                         _______ _______ _______ _____ _____    ______ ____
ROOT
ATOM     14  C   UNL     1      -4.808   1.391  24.881  0.00  0.00    +0.077 C 
ATOM     15  C   UNL     1      -5.234   1.953  25.209  0.00  0.00    +0.018 C 
ATOM     16  C   UNL     1      -4.978   2.704  25.372  0.00  0.00    +0.005 C 
ATOM     17  C   UNL     1      -5.622   3.201  25.751  0.00  0.00    +0.017 C 
ATOM     18  C   UNL     1      -5.364   2.662  25.487  0.00  0.00    +0.072 C 
ATOM     19  N   UNL     1      -4.555   2.158  25.050  0.00  0.00    -0.272 NA
ATOM     20  C   UNL     1      -3.755   2.579  24.923  0.00  0.00    +0.073 C 
ATOM     21  C   UNL     1      -4.207   3.103  25.247  0.00  0.00    +0.032 C 
ENDROOT
BRANCH  14  13
ATOM     13  C   UNL     1      -4.696   0.627  24.591  0.00  0.00    +0.131 C 
BRANCH  13  12
ATOM     12  N   UNL     1      -4.630  -0.007  25.114  0.00  0.00    -0.076 NA
BRANCH  12   9
ATOM      9  S   UNL     1      -4.108  -0.625  24.950  0.00  0.00    +0.077 S 
ATOM     10  O   UNL     1      -3.896  -0.659  25.747  0.00  0.00    -0.152 OA
ATOM     11  O   UNL     1      -4.319  -0.591  24.154  0.00  0.00    -0.152 OA
BRANCH   9   6
ATOM      3  C   UNL     1      -2.541  -2.475  24.456  0.00  0.00    +0.139 A 
ATOM      4  C   UNL     1      -3.340  -2.552  24.271  0.00  0.00    +0.038 A 
ATOM      5  C   UNL     1      -3.863  -1.935  24.435  0.00  0.00    +0.023 A 
ATOM      6  C   UNL     1      -3.586  -1.242  24.786  0.00  0.00    +0.124 A 
ATOM      7  C   UNL     1      -2.785  -1.165  24.972  0.00  0.00    +0.023 A 
ATOM      8  C   UNL     1      -2.263  -1.782  24.807  0.00  0.00    +0.038 A 
BRANCH   3   2
ATOM      1  C   UNL     1      -1.214  -2.936  24.191  0.00  0.00    +0.252 C 
ATOM      2  O   UNL     1      -2.018  -3.092  24.292  0.00  0.00    -0.471 OA
ENDBRANCH   3   2
ENDBRANCH   9   6
ENDBRANCH  12   9
ENDBRANCH  13  12
ENDBRANCH  14  13
BRANCH  21  22
ATOM     22  C   UNL     1      -4.010   3.881  25.438  0.00  0.00    +0.073 C 
BRANCH  22  23
ATOM     23  N   UNL     1      -3.234   4.145  25.347  0.00  0.00    -0.273 NA
ATOM     24  C   UNL     1      -2.705   4.095  25.979  0.00  0.00    +0.072 C 
ATOM     25  C   UNL     1      -1.928   4.358  25.887  0.00  0.00    +0.017 C 
ATOM     26  C   UNL     1      -1.681   4.672  25.165  0.00  0.00    +0.003 C 
ATOM     27  C   UNL     1      -0.905   4.935  25.074  0.00  0.00    +0.000 C 
ATOM     28  C   UNL     1      -2.210   4.722  24.534  0.00  0.00    +0.017 C 
ATOM     29  C   UNL     1      -2.986   4.459  24.625  0.00  0.00    +0.072 C 
ENDBRANCH  22  23
ENDBRANCH  21  22
TORSDOF 7
ENDMDL
MODEL 2
REMARK VINA RESULT:      -9.5      1.881      2.977
REMARK  Name = 
REMARK  7 active torsions:
REMARK  status: ('A' for Active; 'I' for Inactive)
REMARK    1  A    between atoms: O_2  and  C_3
REMARK    2  A    between atoms: C_6  and  S_9
REMARK    3  A    between atoms: S_9  and  N_12
REMARK    4  A    between atoms: N_12  and  C_13
REMARK    5  A    between atoms: C_13  and  C_14
REMARK    6  A    between atoms: C_21  and  C_22
REMARK    7  A    between atoms: C_22  and  N_23
REMARK                            x       y       z     vdW  Elec       q    Type
REMARK                         _______ _______ _______ _____ _____    ______ ____
ROOT
ATOM     14  C   UNL     1      -0.670   1.080  25.195  0.00  0.00    +0.077 C 
ATOM     15  C   UNL     1      -0.323   1.673  25.561  0.00  0.00    +0.018 C 
ATOM     16  C   UNL     1      -0.632   2.415  25.653  0.00  0.00    +0.005 C 
ATOM     17  C   UNL     1      -0.075   2.955  26.103  0.00  0.00    +0.017 C 
ATOM     18  C   UNL     1      -0.267   2.396  25.826  0.00  0.00    +0.072 C 
ATOM     19  N   UNL     1      -0.978   1.839  25.293  0.00  0.00    -0.272 NA
ATOM     20  C   UNL     1      -1.766   2.217  25.030  0.00  0.00    +0.073 C 
ATOM     21  C   UNL     1      -1.392   2.772  25.396  0.00  0.00    +0.032 C 
ENDROOT
BRANCH  14  13
ATOM     13  C   UNL     1      -0.704   0.302  24.923  0.00  0.00    +0.131 C 
BRANCH  13  12
ATOM     12  N   UNL     1      -0.888  -0.310  25.445  0.00  0.00    -0.076 NA
BRANCH  12   9
ATOM      9  S   UNL     1      -1.437  -0.886  25.227  0.00  0.00    +0.077 S 
ATOM     10  O   UNL     1      -1.111  -0.911  24.470  0.00  0.00    -0.152 OA
ATOM     11  O   UNL     1      -1.763  -0.861  25.984  0.00  0.00    -0.152 OA
BRANCH   9   6
ATOM      3  C   UNL     1      -3.085  -2.614  24.575  0.00  0.00    +0.139 A 
ATOM      4  C   UNL     1      -2.287  -2.717  24.397  0.00  0.00    +0.038 A 
ATOM      5  C   UNL     1      -1.737  -2.142  24.614  0.00  0.00    +0.023 A 
ATOM      6  C   UNL     1      -1.986  -1.462  25.009  0.00  0.00    +0.124 A 
ATOM      7  C   UNL     1      -2.785  -1.358  25.188  0.00  0.00    +0.023 A 
ATOM      8  C   UNL     1      -3.334  -1.934  24.970  0.00  0.00    +0.038 A 
BRANCH   3   2
ATOM      1  C   UNL     1      -4.245  -3.001  23.836  0.00  0.00    +0.252 C 
ATOM      2  O   UNL     1      -3.635  -3.189  24.358  0.00  0.00    -0.471 OA
ENDBRANCH   3   2
ENDBRANCH   9   6
ENDBRANCH  12   9
ENDBRANCH  13  12
ENDBRANCH  14  13
BRANCH  21  22
ATOM     22  C   UNL     1      -1.648   3.546  25.525  0.00  0.00    +0.073 C 
BRANCH  22  23
ATOM     23  N   UNL     1      -2.451   3.727  25.480  0.00  0.00    -0.273 NA
ATOM     24  C   UNL     1      -2.899   3.790  26.171  0.00  0.00    +0.072 C 
ATOM     25  C   UNL     1      -3.702   3.971  26.126  0.00  0.00    +0.017 C 
ATOM     26  C   UNL     1      -4.059   4.088  25.392  0.00  0.00    +0.003 C 
ATOM     27  C   UNL     1      -4.863   4.269  25.347  0.00  0.00    +0.000 C 
ATOM     28  C   UNL     1      -3.613   4.025  24.701  0.00  0.00    +0.017 C 
ATOM     29  C   UNL     1      -2.809   3.844  24.746  0.00  0.00    +0.072 C 
ENDBRANCH  22  23
ENDBRANCH  21  22
TORSDOF 7
ENDMDL
MODEL 3
REMARK VINA RESULT:      -9.3      2.947      6.268
REMARK  Name = 
REMARK  7 active torsions:
REMARK  status: ('A' for Active; 'I' for Inactive)
REMARK    1  A    between atoms: O_2  and  C_3
REMARK    2  A    between atoms: C_6  and  S_9
REMARK    3  A    between atoms: S_9  and  N_12
REMARK    4  A    between atoms: N_12  and  C_13
REMARK    5  A    between atoms: C_13  and  C_14
REMARK    6  A    between atoms: C_21  and  C_22
REMARK    7  A    between atoms: C_22  and  N_23
REMARK                            x       y       z     vdW  Elec       q    Type
REMARK                         _______ _______ _______ _____ _____    ______ ____
ROOT
ATOM     14  C   UNL     1      -0.744   0.360  24.769  0.00  0.00    +0.077 C 
ATOM     15  C   UNL     1      -0.456  -0.328  24.991  0.00  0.00    +0.018 C 
ATOM     16  C   UNL     1      -0.886  -1.005  25.105  0.00  0.00    +0.005 C 
ATOM     17  C   UNL     1      -0.368  -1.691  25.360  0.00  0.00    +0.017 C 
ATOM     18  C   UNL     1      -0.495  -1.075  25.181  0.00  0.00    +0.072 C 
ATOM     19  N   UNL     1      -1.175  -0.334  24.887  0.00  0.00    -0.272 NA
ATOM     20  C   UNL     1      -2.065  -0.521  24.805  0.00  0.00    +0.073 C 
ATOM     21  C   UNL     1      -1.743  -1.177  25.024  0.00  0.00    +0.032 C 
ENDROOT
BRANCH  14  13
ATOM     13  C   UNL     1      -0.674   1.157  24.571  0.00  0.00    +0.131 C 
BRANCH  13  12
ATOM     12  N   UNL     1      -0.303   1.681  25.090  0.00  0.00    -0.076 NA
BRANCH  12   9
ATOM      9  S   UNL     1      -0.516   2.478  25.093  0.00  0.00    +0.077 S 
ATOM     10  O   UNL     1      -0.531   2.471  25.917  0.00  0.00    -0.152 OA
ATOM     11  O   UNL     1      -0.501   2.484  24.268  0.00  0.00    -0.152 OA
BRANCH   9   6
ATOM      3  C   UNL     1      -1.154   4.869  25.101  0.00  0.00    +0.139 A 
ATOM      4  C   UNL     1      -0.477   4.624  24.699  0.00  0.00    +0.038 A 
ATOM      5  C   UNL     1      -0.264   3.827  24.696  0.00  0.00    +0.023 A 
ATOM      6  C   UNL     1      -0.728   3.275  25.095  0.00  0.00    +0.124 A 
ATOM      7  C   UNL     1      -1.406   3.520  25.497  0.00  0.00    +0.023 A 
ATOM      8  C   UNL     1      -1.619   4.316  25.500  0.00  0.00    +0.038 A 
BRANCH   3   2
ATOM      1  C   UNL     1      -2.163   5.880  25.127  0.00  0.00    +0.252 C 
ATOM      2  O   UNL     1      -1.367   5.666  25.104  0.00  0.00    -0.471 OA
ENDBRANCH   3   2
ENDBRANCH   9   6
ENDBRANCH  12   9
ENDBRANCH  13  12
ENDBRANCH  14  13
BRANCH  21  22
ATOM     22  C   UNL     1      -2.121  -1.899  25.158  0.00  0.00    +0.073 C 
BRANCH  22  23
ATOM     23  N   UNL     1      -2.818  -2.078  24.756  0.00  0.00    -0.273 NA
ATOM     24  C   UNL     1      -2.851  -2.738  24.261  0.00  0.00    +0.072 C 
ATOM     25  C   UNL     1      -3.549  -2.918  23.859  0.00  0.00    +0.017 C 
ATOM     26  C   UNL     1      -4.214  -2.439  23.952  0.00  0.00    +0.003 C 
ATOM     27  C   UNL     1      -4.912  -2.619  23.551  0.00  0.00    +0.000 C 
ATOM     28  C   UNL     1      -4.182  -1.779  24.447  0.00  0.00    +0.017 C 
ATOM     29  C   UNL     1      -3.484  -1.600  24.849  0.00  0.00    +0.072 C 
ENDBRANCH  22  23
ENDBRANCH  21  22
TORSDOF 7
ENDMDL
MODEL 4
REMARK VINA RESULT:      -9.0      3.105      4.246
REMARK  Name = 
REMARK  7 active torsions:
REMARK  status: ('A' for Active; 'I' for Inactive)
REMARK    1  A    between atoms: O_2  and  C_3
REMARK    2  A    between atoms: C_6  and  S_9
REMARK    3  A    between atoms: S_9  and  N_12
REMARK    4  A    between atoms: N_12  and  C_13
REMARK    5  A    between atoms: C_13  and  C_14
REMARK    6  A    between atoms: C_21  and  C_22
REMARK    7  A    between atoms: C_22  and  N_23
REMARK                            x       y       z     vdW  Elec       q    Type
REMARK                         _______ _______ _______ _____ _____    ______ ____
ROOT
ATOM     14  C   UNL     1      -2.117   0.299  24.257  0.00  0.00    +0.077 C 
ATOM     15  C   UNL     1      -2.671  -0.197  24.487  0.00  0.00    +0.018 C 
ATOM     16  C   UNL     1      -3.441  -0.004  24.645  0.00  0.00    +0.005 C 
ATOM     17  C   UNL     1      -3.919  -0.720  24.896  0.00  0.00    +0.017 C 
ATOM     18  C   UNL     1      -3.383  -0.401  24.703  0.00  0.00    +0.072 C 
ATOM     19  N   UNL     1      -2.904   0.488  24.420  0.00  0.00    -0.272 NA
ATOM     20  C   UNL     1      -3.361   1.277  24.392  0.00  0.00    +0.073 C 
ATOM     21  C   UNL     1      -3.874   0.758  24.616  0.00  0.00    +0.032 C 
ENDROOT
BRANCH  14  13
ATOM     13  C   UNL     1      -1.348   0.489  24.029  0.00  0.00    +0.131 C 
BRANCH  13  12
ATOM     12  N   UNL     1      -0.725  -0.019  24.215  0.00  0.00    -0.076 NA
BRANCH  12   9
ATOM      9  S   UNL     1       0.001   0.060  23.830  0.00  0.00    +0.077 S 
ATOM     10  O   UNL     1      -0.046   0.880  23.907  0.00  0.00    -0.152 OA
ATOM     11  O   UNL     1       0.047  -0.760  23.753  0.00  0.00    -0.152 OA
BRANCH   9   6
ATOM      3  C   UNL     1       2.176   0.294  22.675  0.00  0.00    +0.139 A 
ATOM      4  C   UNL     1       1.635  -0.275  22.423  0.00  0.00    +0.038 A 
ATOM      5  C   UNL     1       0.909  -0.354  22.808  0.00  0.00    +0.023 A 
ATOM      6  C   UNL     1       0.726   0.138  23.445  0.00  0.00    +0.124 A 
ATOM      7  C   UNL     1       1.268   0.707  23.696  0.00  0.00    +0.023 A 
ATOM      8  C   UNL     1       1.992   0.785  23.311  0.00  0.00    +0.038 A 
BRANCH   3   2
ATOM      1  C   UNL     1       3.530   0.751  22.666  0.00  0.00    +0.252 C 
ATOM      2  O   UNL     1       2.902   0.372  22.290  0.00  0.00    -0.471 OA
ENDBRANCH   3   2
ENDBRANCH   9   6
ENDBRANCH  12   9
ENDBRANCH  13  12
ENDBRANCH  14  13
BRANCH  21  22
ATOM     22  C   UNL     1      -4.670   0.887  24.792  0.00  0.00    +0.073 C 
BRANCH  22  23
ATOM     23  N   UNL     1      -4.929   1.642  25.000  0.00  0.00    -0.273 NA
ATOM     24  C   UNL     1      -4.894   2.256  24.449  0.00  0.00    +0.072 C 
ATOM     25  C   UNL     1      -5.153   3.011  24.656  0.00  0.00    +0.017 C 
ATOM     26  C   UNL     1      -5.446   3.153  25.414  0.00  0.00    +0.003 C 
ATOM     27  C   UNL     1      -5.705   3.909  25.621  0.00  0.00    +0.000 C 
ATOM     28  C   UNL     1      -5.481   2.541  25.965  0.00  0.00    +0.017 C 
ATOM     29  C   UNL     1      -5.222   1.785  25.758  0.00  0.00    +0.072 C 
ENDBRANCH  22  23
ENDBRANCH  21  22
TORSDOF 7
ENDMDL
MODEL 5
REMARK VINA RESULT:      -9.0      2.120      5.366
REMARK  Name = 
REMARK  7 active torsions:
REMARK  status: ('A' for Active; 'I' for Inactive)
REMARK    1  A    between atoms: O_2  and  C_3
REMARK    2  A    between atoms: C_6  and  S_9
REMARK    3  A    between atoms: S_9  and  N_12
REMARK    4  A    between atoms: N_12  and  C_13
REMARK    5  A    between atoms: C_13  and  C_14
REMARK    6  A    between atoms: C_21  and  C_22
REMARK    7  A    between atoms: C_22  and  N_23
REMARK                            x       y       z     vdW  Elec       q    Type
REMARK                         _______ _______ _______ _____ _____    ______ ____
ROOT
ATOM     14  C   UNL     1      -4.496   2.334  24.797  0.00  0.00    +0.077 C 
ATOM     15  C   UNL     1      -5.146   1.980  25.036  0.00  0.00    +0.018 C 
ATOM     16  C   UNL     1      -5.260   1.179  25.074  0.00  0.00    +0.005 C 
ATOM     17  C   UNL     1      -6.079   0.972  25.375  0.00  0.00    +0.017 C 
ATOM     18  C   UNL     1      -5.593   1.371  25.198  0.00  0.00    +0.072 C 
ATOM     19  N   UNL     1      -4.619   1.519  24.839  0.00  0.00    -0.272 NA
ATOM     20  C   UNL     1      -4.082   0.809  24.638  0.00  0.00    +0.073 C 
ATOM     21  C   UNL     1      -4.738   0.501  24.878  0.00  0.00    +0.032 C 
ENDROOT
BRANCH  14  13
ATOM     13  C   UNL     1      -4.040   3.001  24.632  0.00  0.00    +0.131 C 
BRANCH  13  12
ATOM     12  N   UNL     1      -3.764   3.475  25.248  0.00  0.00    -0.076 NA
BRANCH  12   9
ATOM      9  S   UNL     1      -3.034   3.855  25.181  0.00  0.00    +0.077 S 
ATOM     10  O   UNL     1      -3.198   4.030  24.392  0.00  0.00    -0.152 OA
ATOM     11  O   UNL     1      -2.871   3.679  25.970  0.00  0.00    -0.152 OA
BRANCH   9   6
ATOM      3  C   UNL     1      -0.847   4.994  24.981  0.00  0.00    +0.139 A 
ATOM      4  C   UNL     1      -0.889   4.172  24.935  0.00  0.00    +0.038 A 
ATOM      5  C   UNL     1      -1.618   3.792  25.002  0.00  0.00    +0.023 A 
ATOM      6  C   UNL     1      -2.305   4.234  25.114  0.00  0.00    +0.124 A 
ATOM      7  C   UNL     1      -2.263   5.058  25.160  0.00  0.00    +0.023 A 
ATOM      8  C   UNL     1      -1.534   5.437  25.093  0.00  0.00    +0.038 A 
BRANCH   3   2
ATOM      1  C   UNL     1       0.211   5.510  24.170  0.00  0.00    +0.252 C 
ATOM      2  O   UNL     1      -0.118   5.375  24.914  0.00  0.00    -0.471 OA
ENDBRANCH   3   2
ENDBRANCH   9   6
ENDBRANCH  12   9
ENDBRANCH  13  12
ENDBRANCH  14  13
BRANCH  21  22
ATOM     22  C   UNL     1      -4.918  -0.302  24.941  0.00  0.00    +0.073 C 
BRANCH  22  23
ATOM     23  N   UNL     1      -4.327  -0.867  24.834  0.00  0.00    -0.273 NA
ATOM     24  C   UNL     1      -4.254  -1.255  24.109  0.00  0.00    +0.072 C 
ATOM     25  C   UNL     1      -3.662  -1.820  24.002  0.00  0.00    +0.017 C 
ATOM     26  C   UNL     1      -3.144  -1.997  24.619  0.00  0.00    +0.003 C 
ATOM     27  C   UNL     1      -2.552  -2.561  24.512  0.00  0.00    +0.000 C 
ATOM     28  C   UNL     1      -3.216  -1.609  25.344  0.00  0.00    +0.017 C 
ATOM     29  C   UNL     1      -3.808  -1.044  25.451  0.00  0.00    +0.072 C 
ENDBRANCH  22  23
ENDBRANCH  21  22
TORSDOF 7
ENDMDL
MODEL 6
REMARK VINA RESULT:      -7.6     14.507     16.753
REMARK  Name = 
REMARK  7 active torsions:
REMARK  status: ('A' for Active; 'I' for Inactive)
REMARK    1  A    between atoms: O_2  and  C_3
REMARK    2  A    between atoms: C_6  and  S_9
REMARK    3  A    between atoms: S_9  and  N_12
REMARK    4  A    between atoms: N_12  and  C_13
REMARK    5  A    between atoms: C_13  and  C_14
REMARK    6  A    between atoms: C_21  and  C_22
REMARK    7  A    between atoms: C_22  and  N_23
REMARK                            x       y       z     vdW  Elec       q    Type
REMARK                         _______ _______ _______ _____ _____    ______ ____
ROOT
ATOM     14  C   UNL     1      -3.416 -10.740  13.945  0.00  0.00    +0.077 C 
ATOM     15  C   UNL     1      -2.686 -10.781  13.680  0.00  0.00    +0.018 C 
ATOM     16  C   UNL     1      -2.458 -10.686  12.909  0.00  0.00    +0.005 C 
ATOM     17  C   UNL     1      -1.570 -10.772  12.810  0.00  0.00    +0.017 C 
ATOM     18  C   UNL     1      -2.134 -10.759  13.140  0.00  0.00    +0.072 C 
ATOM     19  N   UNL     1      -3.176 -10.644  13.161  0.00  0.00    -0.272 NA
ATOM     20  C   UNL     1      -3.643 -10.472  12.396  0.00  0.00    +0.073 C 
ATOM     21  C   UNL     1      -2.913 -10.521  12.177  0.00  0.00    +0.032 C 
ENDROOT
BRANCH  14  13
ATOM     13  C   UNL     1      -3.985 -10.768  14.541  0.00  0.00    +0.131 C 
BRANCH  13  12
ATOM     12  N   UNL     1      -3.942 -10.246  15.178  0.00  0.00    -0.076 NA
BRANCH  12   9
ATOM      9  S   UNL     1      -4.468 -10.322  15.810  0.00  0.00    +0.077 S 
ATOM     10  O   UNL     1      -3.916 -10.781  16.215  0.00  0.00    -0.152 OA
ATOM     11  O   UNL     1      -5.020  -9.863  15.404  0.00  0.00    -0.152 OA
BRANCH   9   6
ATOM      3  C   UNL     1      -6.047 -10.548  17.702  0.00  0.00    +0.139 A 
ATOM      4  C   UNL     1      -6.320 -10.299  16.965  0.00  0.00    +0.038 A 
ATOM      5  C   UNL     1      -5.794 -10.223  16.334  0.00  0.00    +0.023 A 
ATOM      6  C   UNL     1      -4.994 -10.397  16.440  0.00  0.00    +0.124 A 
ATOM      7  C   UNL     1      -4.721 -10.647  17.178  0.00  0.00    +0.023 A 
ATOM      8  C   UNL     1      -5.247 -10.723  17.808  0.00  0.00    +0.038 A 
BRANCH   3   2
ATOM      1  C   UNL     1      -7.385 -10.636  18.194  0.00  0.00    +0.252 C 
ATOM      2  O   UNL     1      -6.572 -10.624  18.333  0.00  0.00    -0.471 OA
ENDBRANCH   3   2
ENDBRANCH   9   6
ENDBRANCH  12   9
ENDBRANCH  13  12
ENDBRANCH  14  13
BRANCH  21  22
ATOM     22  C   UNL     1      -2.615 -10.435  11.412  0.00  0.00    +0.073 C 
BRANCH  22  23
ATOM     23  N   UNL     1      -3.095 -10.133  10.814  0.00  0.00    -0.273 NA
ATOM     24  C   UNL     1      -2.958  -9.375  10.519  0.00  0.00    +0.072 C 
ATOM     25  C   UNL     1      -3.439  -9.072   9.920  0.00  0.00    +0.017 C 
ATOM     26  C   UNL     1      -4.056  -9.528   9.617  0.00  0.00    +0.003 C 
ATOM     27  C   UNL     1      -4.537  -9.226   9.019  0.00  0.00    +0.000 C 
ATOM     28  C   UNL     1      -4.194 -10.286   9.912  0.00  0.00    +0.017 C 
ATOM     29  C   UNL     1      -3.713 -10.588  10.511  0.00  0.00    +0.072 C 
ENDBRANCH  22  23
ENDBRANCH  21  22
TORSDOF 7
ENDMDL
MODEL 7
REMARK VINA RESULT:      -7.4     14.492     16.384
REMARK  Name = 
REMARK  7 active torsions:
REMARK  status: ('A' for Active; 'I' for Inactive)
REMARK    1  A    between atoms: O_2  and  C_3
REMARK    2  A    between atoms: C_6  and  S_9
REMARK    3  A    between atoms: S_9  and  N_12
REMARK    4  A    between atoms: N_12  and  C_13
REMARK    5  A    between atoms: C_13  and  C_14
REMARK    6  A    between atoms: C_21  and  C_22
REMARK    7  A    between atoms: C_22  and  N_23
REMARK                            x       y       z     vdW  Elec       q    Type
REMARK                         _______ _______ _______ _____ _____    ______ ____
ROOT
ATOM     14  C   UNL     1      -4.821 -10.449  14.632  0.00  0.00    +0.077 C 
ATOM     15  C   UNL     1      -4.489 -10.562  15.327  0.00  0.00    +0.018 C 
ATOM     16  C   UNL     1      -4.855 -10.478  16.044  0.00  0.00    +0.005 C 
ATOM     17  C   UNL     1      -4.299 -10.654  16.725  0.00  0.00    +0.017 C 
ATOM     18  C   UNL     1      -4.470 -10.589  16.098  0.00  0.00    +0.072 C 
ATOM     19  N   UNL     1      -5.188 -10.366  15.367  0.00  0.00    -0.272 NA
ATOM     20  C   UNL     1      -6.038 -10.132  15.603  0.00  0.00    +0.073 C 
ATOM     21  C   UNL     1      -5.674 -10.253  16.263  0.00  0.00    +0.032 C 
ENDROOT
BRANCH  14  13
ATOM     13  C   UNL     1      -4.814 -10.428  13.808  0.00  0.00    +0.131 C 
BRANCH  13  12
ATOM     12  N   UNL     1      -4.152 -10.692  13.394  0.00  0.00    -0.076 NA
BRANCH  12   9
ATOM      9  S   UNL     1      -4.042 -10.471  12.607  0.00  0.00    +0.077 S 
ATOM     10  O   UNL     1      -4.782 -10.779  12.416  0.00  0.00    -0.152 OA
ATOM     11  O   UNL     1      -3.301 -10.162  12.798  0.00  0.00    -0.152 OA
BRANCH   9   6
ATOM      3  C   UNL     1      -3.709  -9.806  10.246  0.00  0.00    +0.139 A 
ATOM      4  C   UNL     1      -4.308  -9.457  10.693  0.00  0.00    +0.038 A 
ATOM      5  C   UNL     1      -4.419  -9.678  11.480  0.00  0.00    +0.023 A 
ATOM      6  C   UNL     1      -3.931 -10.249  11.820  0.00  0.00    +0.124 A 
ATOM      7  C   UNL     1      -3.332 -10.599  11.373  0.00  0.00    +0.023 A 
ATOM      8  C   UNL     1      -3.221 -10.377  10.587  0.00  0.00    +0.038 A 
BRANCH   3   2
ATOM      1  C   UNL     1      -4.210  -9.221   9.042  0.00  0.00    +0.252 C 
ATOM      2  O   UNL     1      -3.598  -9.584   9.459  0.00  0.00    -0.471 OA
ENDBRANCH   3   2
ENDBRANCH   9   6
ENDBRANCH  12   9
ENDBRANCH  13  12
ENDBRANCH  14  13
BRANCH  21  22
ATOM     22  C   UNL     1      -5.987 -10.186  17.024  0.00  0.00    +0.073 C 
BRANCH  22  23
ATOM     23  N   UNL     1      -6.797 -10.077  17.129  0.00  0.00    -0.273 NA
ATOM     24  C   UNL     1      -7.119  -9.318  17.093  0.00  0.00    +0.072 C 
ATOM     25  C   UNL     1      -7.930  -9.209  17.198  0.00  0.00    +0.017 C 
ATOM     26  C   UNL     1      -8.419  -9.858  17.337  0.00  0.00    +0.003 C 
ATOM     27  C   UNL     1      -9.231  -9.749  17.442  0.00  0.00    +0.000 C 
ATOM     28  C   UNL     1      -8.098 -10.617  17.372  0.00  0.00    +0.017 C 
ATOM     29  C   UNL     1      -7.287 -10.726  17.268  0.00  0.00    +0.072 C 
ENDBRANCH  22  23
ENDBRANCH  21  22
TORSDOF 7
ENDMDL
MODEL 8
REMARK VINA RESULT:      -7.2     13.880     16.231
REMARK  Name = 
REMARK  7 active torsions:
REMARK  status: ('A' for Active; 'I' for Inactive)
REMARK    1  A    between atoms: O_2  and  C_3
REMARK    2  A    between atoms: C_6  and  S_9
REMARK    3  A    between atoms: S_9  and  N_12
REMARK    4  A    between atoms: N_12  and  C_13
REMARK    5  A    between atoms: C_13  and  C_14
REMARK    6  A    between atoms: C_21  and  C_22
REMARK    7  A    between atoms: C_22  and  N_23
REMARK                            x       y       z     vdW  Elec       q    Type
REMARK                         _______ _______ _______ _____ _____    ______ ____
ROOT
ATOM     14  C   UNL     1      -6.437 -10.027  13.956  0.00  0.00    +0.077 C 
ATOM     15  C   UNL     1      -6.983  -9.842  13.433  0.00  0.00    +0.018 C 
ATOM     16  C   UNL     1      -6.855  -9.713  12.644  0.00  0.00    +0.005 C 
ATOM     17  C   UNL     1      -7.615  -9.512  12.212  0.00  0.00    +0.017 C 
ATOM     18  C   UNL     1      -7.248  -9.668  12.730  0.00  0.00    +0.072 C 
ATOM     19  N   UNL     1      -6.315  -9.893  13.151  0.00  0.00    -0.272 NA
ATOM     20  C   UNL     1      -5.562  -9.914  12.636  0.00  0.00    +0.073 C 
ATOM     21  C   UNL     1      -6.127  -9.734  12.155  0.00  0.00    +0.032 C 
ENDROOT
BRANCH  14  13
ATOM     13  C   UNL     1      -6.180 -10.211  14.718  0.00  0.00    +0.131 C 
BRANCH  13  12
ATOM     12  N   UNL     1      -6.514  -9.831  15.369  0.00  0.00    -0.076 NA
BRANCH  12   9
ATOM      9  S   UNL     1      -6.263 -10.022  16.132  0.00  0.00    +0.077 S 
ATOM     10  O   UNL     1      -6.616 -10.763  16.064  0.00  0.00    -0.152 OA
ATOM     11  O   UNL     1      -5.909  -9.280  16.199  0.00  0.00    -0.152 OA
BRANCH   9   6
ATOM      3  C   UNL     1      -5.506 -10.591  18.418  0.00  0.00    +0.139 A 
ATOM      4  C   UNL     1      -6.291 -10.379  18.285  0.00  0.00    +0.038 A 
ATOM      5  C   UNL     1      -6.544 -10.189  17.522  0.00  0.00    +0.023 A 
ATOM      6  C   UNL     1      -6.011 -10.211  16.894  0.00  0.00    +0.124 A 
ATOM      7  C   UNL     1      -5.224 -10.424  17.027  0.00  0.00    +0.023 A 
ATOM      8  C   UNL     1      -4.972 -10.614  17.789  0.00  0.00    +0.038 A 
BRANCH   3   2
ATOM      1  C   UNL     1      -5.791 -10.781  19.805  0.00  0.00    +0.252 C 
ATOM      2  O   UNL     1      -5.253 -10.781  19.180  0.00  0.00    -0.471 OA
ENDBRANCH   3   2
ENDBRANCH   9   6
ENDBRANCH  12   9
ENDBRANCH  13  12
ENDBRANCH  14  13
BRANCH  21  22
ATOM     22  C   UNL     1      -6.065  -9.590  11.344  0.00  0.00    +0.073 C 
BRANCH  22  23
ATOM     23  N   UNL     1      -5.323  -9.501  10.997  0.00  0.00    -0.273 NA
ATOM     24  C   UNL     1      -5.004  -8.747  10.894  0.00  0.00    +0.072 C 
ATOM     25  C   UNL     1      -4.261  -8.658  10.546  0.00  0.00    +0.017 C 
ATOM     26  C   UNL     1      -3.838  -9.322  10.301  0.00  0.00    +0.003 C 
ATOM     27  C   UNL     1      -3.095  -9.234   9.953  0.00  0.00    +0.000 C 
ATOM     28  C   UNL     1      -4.156 -10.077  10.404  0.00  0.00    +0.017 C 
ATOM     29  C   UNL     1      -4.899 -10.165  10.752  0.00  0.00    +0.072 C 
ENDBRANCH  22  23
ENDBRANCH  21  22
TORSDOF 7
ENDMDL
