MODEL 1
REMARK VINA RESULT:     -10.1      0.000      0.000
REMARK  Name = 
REMARK  5 active torsions:
REMARK  status: ('A' for Active; 'I' for Inactive)
REMARK    1  A    between atoms: CG_2  and  CB_4
REMARK    2  A    between atoms: CB_4  and  CA_5
REMARK    3  A    between atoms: C_11  and  N_17
REMARK    4  A    between atoms: C_20  and  C_21
REMARK    5  A    between atoms: C_24  and  C_25
REMARK                            x       y       z     vdW  Elec       q    Type
REMARK                         _______ _______ _______ _____ _____    ______ ____
ROOT
ATOM      5  CA  LEU A   1      -3.192   3.116  24.897  0.00  0.00    +0.171 C 
ATOM      6  N   LEU A   1      -2.557   2.806  24.470  0.00  0.00    -0.196 NA
ATOM      7  C   UNK A   2      -2.546   2.007  24.269  0.00  0.00    +0.260 C 
ATOM      8  O   UNK A   2      -1.911   1.698  23.842  0.00  0.00    -0.272 OA
ATOM      9  C   UNK A   2      -3.169   1.517  24.494  0.00  0.00    +0.155 C 
ATOM     10  C   UNK A   2      -3.159   0.716  24.293  0.00  0.00    +0.054 C 
ATOM     11  C   UNK A   2      -3.782   0.226  24.518  0.00  0.00    +0.111 C 
ATOM     12  C   UNK A   2      -4.417   0.536  24.946  0.00  0.00    +0.046 C 
ATOM     13  C   UNK A   2      -4.428   1.335  25.147  0.00  0.00    +0.096 C 
ATOM     14  N   UNK A   2      -3.805   1.826  24.921  0.00  0.00    -0.271 N 
ATOM     15  C   LEU A   1      -3.815   2.626  25.122  0.00  0.00    +0.246 C 
ATOM     16  O   LEU A   1      -4.450   2.935  25.549  0.00  0.00    -0.273 OA
ENDROOT
BRANCH  11  17
ATOM     17  N   UNK A   2      -3.771  -0.574  24.317  0.00  0.00    -0.229 N 
ATOM     18  N   UNK A   2      -4.088  -0.906  23.630  0.00  0.00    -0.064 NA
ATOM     19  N   UNK A   2      -3.955  -1.719  23.656  0.00  0.00    -0.124 NA
ATOM     20  C   UNK A   2      -3.557  -1.892  24.358  0.00  0.00    +0.183 A 
ATOM     24  C   UNK A   2      -3.444  -1.183  24.767  0.00  0.00    +0.160 A 
BRANCH  20  21
ATOM     21  C   UNK A   2      -3.315  -2.639  24.608  0.00  0.00    +0.305 C 
ATOM     22  N   UNK A   2      -2.588  -2.942  24.359  0.00  0.00    -0.082 NA
ATOM     23  O   UNK A   2      -3.798  -3.085  25.106  0.00  0.00    -0.265 OA
ENDBRANCH  20  21
BRANCH  24  25
ATOM     25  C   UNK A   2      -3.068  -1.100  25.497  0.00  0.00    +0.303 C 
ATOM     26  N   UNK A   2      -2.248  -1.019  25.532  0.00  0.00    -0.082 NA
ATOM     27  O   UNK A   2      -3.514  -1.098  26.192  0.00  0.00    -0.265 OA
ENDBRANCH  24  25
ENDBRANCH  11  17
BRANCH   5   4
ATOM      4  CB  LEU A   1      -3.203   3.916  25.098  0.00  0.00    +0.031 C 
BRANCH   4   2
ATOM      1  CD1 LEU A   1      -2.026   4.713  24.940  0.00  0.00    +0.000 C 
ATOM      2  CG  LEU A   1      -2.530   4.269  25.420  0.00  0.00    +0.002 C 
ATOM      3  CD2 LEU A   1      -2.360   4.178  26.223  0.00  0.00    +0.000 C 
ENDBRANCH   4   2
ENDBRANCH   5   4
TORSDOF 5
ENDMDL
MODEL 2
REMARK VINA RESULT:     -10.1      1.441      1.988
REMARK  Name = 
REMARK  5 active torsions:
REMARK  status: ('A' for Active; 'I' for Inactive)
REMARK    1  A    between atoms: CG_2  and  CB_4
REMARK    2  A    between atoms: CB_4  and  CA_5
REMARK    3  A    between atoms: C_11  and  N_17
REMARK    4  A    between atoms: C_20  and  C_21
REMARK    5  A    between atoms: C_24  and  C_25
REMARK                            x       y       z     vdW  Elec       q    Type
REMARK                         _______ _______ _______ _____ _____    ______ ____
ROOT
ATOM      5  CA  LEU A   1      -0.982   2.702  25.161  0.00  0.00    +0.171 C 
ATOM      6  N   LEU A   1      -1.392   2.624  24.449  0.00  0.00    -0.196 NA
ATOM      7  C   UNK A   2      -1.677   1.886  24.216  0.00  0.00    +0.260 C 
ATOM      8  O   UNK A   2      -2.087   1.808  23.504  0.00  0.00    -0.272 OA
ATOM      9  C   UNK A   2      -1.554   1.227  24.695  0.00  0.00    +0.155 C 
ATOM     10  C   UNK A   2      -1.839   0.488  24.463  0.00  0.00    +0.054 C 
ATOM     11  C   UNK A   2      -1.716  -0.172  24.942  0.00  0.00    +0.111 C 
ATOM     12  C   UNK A   2      -1.306  -0.093  25.655  0.00  0.00    +0.046 C 
ATOM     13  C   UNK A   2      -1.020   0.645  25.887  0.00  0.00    +0.096 C 
ATOM     14  N   UNK A   2      -1.144   1.305  25.408  0.00  0.00    -0.271 N 
ATOM     15  C   LEU A   1      -0.858   2.043  25.640  0.00  0.00    +0.246 C 
ATOM     16  O   LEU A   1      -0.449   2.121  26.352  0.00  0.00    -0.273 OA
ENDROOT
BRANCH  11  17
ATOM     17  N   UNK A   2      -2.001  -0.910  24.710  0.00  0.00    -0.229 N 
ATOM     18  N   UNK A   2      -1.606  -1.454  24.232  0.00  0.00    -0.064 NA
ATOM     19  N   UNK A   2      -2.092  -2.114  24.142  0.00  0.00    -0.124 NA
ATOM     20  C   UNK A   2      -2.788  -1.979  24.564  0.00  0.00    +0.183 A 
ATOM     24  C   UNK A   2      -2.731  -1.234  24.916  0.00  0.00    +0.160 A 
BRANCH  20  21
ATOM     21  C   UNK A   2      -3.427  -2.497  24.625  0.00  0.00    +0.305 C 
ATOM     22  N   UNK A   2      -4.004  -2.510  24.034  0.00  0.00    -0.082 NA
ATOM     23  O   UNK A   2      -3.491  -3.000  25.274  0.00  0.00    -0.265 OA
ENDBRANCH  20  21
BRANCH  24  25
ATOM     25  C   UNK A   2      -3.305  -0.877  25.389  0.00  0.00    +0.303 C 
ATOM     26  N   UNK A   2      -3.908  -0.434  25.042  0.00  0.00    -0.082 NA
ATOM     27  O   UNK A   2      -3.276  -0.964  26.209  0.00  0.00    -0.265 OA
ENDBRANCH  24  25
ENDBRANCH  11  17
BRANCH   5   4
ATOM      4  CB  LEU A   1      -0.696   3.441  25.393  0.00  0.00    +0.031 C 
BRANCH   4   2
ATOM      1  CD1 LEU A   1      -0.762   4.593  24.550  0.00  0.00    +0.000 C 
ATOM      2  CG  LEU A   1      -1.084   4.127  25.150  0.00  0.00    +0.002 C 
ATOM      3  CD2 LEU A   1      -1.795   4.349  25.508  0.00  0.00    +0.000 C 
ENDBRANCH   4   2
ENDBRANCH   5   4
TORSDOF 5
ENDMDL
MODEL 3
REMARK VINA RESULT:      -9.7      1.726      5.184
REMARK  Name = 
REMARK  5 active torsions:
REMARK  status: ('A' for Active; 'I' for Inactive)
REMARK    1  A    between atoms: CG_2  and  CB_4
REMARK    2  A    between atoms: CB_4  and  CA_5
REMARK    3  A    between atoms: C_11  and  N_17
REMARK    4  A    between atoms: C_20  and  C_21
REMARK    5  A    between atoms: C_24  and  C_25
REMARK                            x       y       z     vdW  Elec       q    Type
REMARK                         _______ _______ _______ _____ _____    ______ ____
ROOT
ATOM      5  CA  LEU A   1      -2.448  -1.394  24.611  0.00  0.00    +0.171 C 
ATOM      6  N   LEU A   1      -3.070  -0.942  24.912  0.00  0.00    -0.196 NA
ATOM      7  C   UNK A   2      -2.942  -0.158  25.133  0.00  0.00    +0.260 C 
ATOM      8  O   UNK A   2      -3.563   0.293  25.433  0.00  0.00    -0.272 OA
ATOM      9  C   UNK A   2      -2.192   0.175  25.053  0.00  0.00    +0.155 C 
ATOM     10  C   UNK A   2      -2.062   0.959  25.274  0.00  0.00    +0.054 C 
ATOM     11  C   UNK A   2      -1.312   1.292  25.194  0.00  0.00    +0.111 C 
ATOM     12  C   UNK A   2      -0.690   0.841  24.893  0.00  0.00    +0.046 C 
ATOM     13  C   UNK A   2      -0.819   0.057  24.673  0.00  0.00    +0.096 C 
ATOM     14  N   UNK A   2      -1.569  -0.277  24.752  0.00  0.00    -0.271 N 
ATOM     15  C   LEU A   1      -1.698  -1.061  24.531  0.00  0.00    +0.246 C 
ATOM     16  O   LEU A   1      -1.076  -1.512  24.230  0.00  0.00    -0.273 OA
ENDROOT
BRANCH  11  17
ATOM     17  N   UNK A   2      -1.183   2.077  25.415  0.00  0.00    -0.229 N 
ATOM     18  N   UNK A   2      -0.943   2.337  26.161  0.00  0.00    -0.064 NA
ATOM     19  N   UNK A   2      -0.882   3.159  26.136  0.00  0.00    -0.124 NA
ATOM     20  C   UNK A   2      -1.085   3.408  25.376  0.00  0.00    +0.183 A 
ATOM     24  C   UNK A   2      -1.271   2.738  24.930  0.00  0.00    +0.160 A 
BRANCH  20  21
ATOM     21  C   UNK A   2      -1.099   4.187  25.108  0.00  0.00    +0.305 C 
ATOM     22  N   UNK A   2      -1.754   4.665  25.265  0.00  0.00    -0.082 NA
ATOM     23  O   UNK A   2      -0.461   4.491  24.684  0.00  0.00    -0.265 OA
ENDBRANCH  20  21
BRANCH  24  25
ATOM     25  C   UNK A   2      -1.504   2.732  24.139  0.00  0.00    +0.303 C 
ATOM     26  N   UNK A   2      -2.295   2.855  23.941  0.00  0.00    -0.082 NA
ATOM     27  O   UNK A   2      -0.945   2.603  23.546  0.00  0.00    -0.265 OA
ENDBRANCH  24  25
ENDBRANCH  11  17
BRANCH   5   4
ATOM      4  CB  LEU A   1      -2.577  -2.178  24.390  0.00  0.00    +0.031 C 
BRANCH   4   2
ATOM      1  CD1 LEU A   1      -3.903  -2.485  23.950  0.00  0.00    +0.000 C 
ATOM      2  CG  LEU A   1      -3.312  -2.528  24.525  0.00  0.00    +0.002 C 
ATOM      3  CD2 LEU A   1      -3.457  -2.922  25.237  0.00  0.00    +0.000 C 
ENDBRANCH   4   2
ENDBRANCH   5   4
TORSDOF 5
ENDMDL
MODEL 4
REMARK VINA RESULT:      -9.5      1.495      4.842
REMARK  Name = 
REMARK  5 active torsions:
REMARK  status: ('A' for Active; 'I' for Inactive)
REMARK    1  A    between atoms: CG_2  and  CB_4
REMARK    2  A    between atoms: CB_4  and  CA_5
REMARK    3  A    between atoms: C_11  and  N_17
REMARK    4  A    between atoms: C_20  and  C_21
REMARK    5  A    between atoms: C_24  and  C_25
REMARK                            x       y       z     vdW  Elec       q    Type
REMARK                         _______ _______ _______ _____ _____    ______ ____
ROOT
ATOM      5  CA  LEU A   1      -3.497  -0.678  24.878  0.00  0.00    +0.171 C 
ATOM      6  N   LEU A   1      -2.676  -0.768  24.889  0.00  0.00    -0.196 NA
ATOM      7  C   UNK A   2      -2.188  -0.111  24.793  0.00  0.00    +0.260 C 
ATOM      8  O   UNK A   2      -1.368  -0.201  24.804  0.00  0.00    -0.272 OA
ATOM      9  C   UNK A   2      -2.519   0.636  24.684  0.00  0.00    +0.155 C 
ATOM     10  C   UNK A   2      -2.031   1.294  24.588  0.00  0.00    +0.054 C 
ATOM     11  C   UNK A   2      -2.362   2.041  24.479  0.00  0.00    +0.111 C 
ATOM     12  C   UNK A   2      -3.183   2.132  24.467  0.00  0.00    +0.046 C 
ATOM     13  C   UNK A   2      -3.671   1.474  24.564  0.00  0.00    +0.096 C 
ATOM     14  N   UNK A   2      -3.340   0.726  24.673  0.00  0.00    -0.271 N 
ATOM     15  C   LEU A   1      -3.828   0.069  24.769  0.00  0.00    +0.246 C 
ATOM     16  O   LEU A   1      -4.648   0.159  24.758  0.00  0.00    -0.273 OA
ENDROOT
BRANCH  11  17
ATOM     17  N   UNK A   2      -1.874   2.700  24.382  0.00  0.00    -0.229 N 
ATOM     18  N   UNK A   2      -1.479   2.912  23.689  0.00  0.00    -0.064 NA
ATOM     19  N   UNK A   2      -1.056   3.604  23.840  0.00  0.00    -0.124 NA
ATOM     20  C   UNK A   2      -1.189   3.820  24.625  0.00  0.00    +0.183 A 
ATOM     24  C   UNK A   2      -1.696   3.260  24.960  0.00  0.00    +0.160 A 
BRANCH  20  21
ATOM     21  C   UNK A   2      -0.874   4.479  25.008  0.00  0.00    +0.305 C 
ATOM     22  N   UNK A   2      -1.286   5.194  25.005  0.00  0.00    -0.082 NA
ATOM     23  O   UNK A   2      -0.147   4.424  25.394  0.00  0.00    -0.265 OA
ENDBRANCH  20  21
BRANCH  24  25
ATOM     25  C   UNK A   2      -1.974   3.262  25.737  0.00  0.00    +0.303 C 
ATOM     26  N   UNK A   2      -2.677   3.652  25.922  0.00  0.00    -0.082 NA
ATOM     27  O   UNK A   2      -1.548   2.875  26.328  0.00  0.00    -0.265 OA
ENDBRANCH  24  25
ENDBRANCH  11  17
BRANCH   5   4
ATOM      4  CB  LEU A   1      -3.986  -1.337  24.975  0.00  0.00    +0.031 C 
BRANCH   4   2
ATOM      1  CD1 LEU A   1      -3.355  -2.612  25.116  0.00  0.00    +0.000 C 
ATOM      2  CG  LEU A   1      -3.765  -2.064  24.654  0.00  0.00    +0.002 C 
ATOM      3  CD2 LEU A   1      -3.953  -2.244  23.871  0.00  0.00    +0.000 C 
ENDBRANCH   4   2
ENDBRANCH   5   4
TORSDOF 5
ENDMDL
