MODEL 1
REMARK VINA RESULT:      -9.6      0.000      0.000
REMARK  Name = 
REMARK  5 active torsions:
REMARK  status: ('A' for Active; 'I' for Inactive)
REMARK    1  A    between atoms: C_2  and  N_4
REMARK    2  A    between atoms: N_7  and  C_8
REMARK    3  A    between atoms: C_11  and  C_14
REMARK    4  A    between atoms: N_19  and  C_20
REMARK    5  A    between atoms: C_26  and  C_27
REMARK                            x       y       z     vdW  Elec       q    Type
REMARK                         _______ _______ _______ _____ _____    ______ ____
ROOT
ATOM     14  C   UNL     1      -3.635   2.221  24.477  0.00  0.00    +0.159 C 
ATOM     15  O   UNL     1      -4.229   2.785  24.385  0.00  0.00    -0.341 OA
ATOM     16  C   UNL     1      -4.050   3.587  24.464  0.00  0.00    +0.227 C 
ATOM     17  C   UNL     1      -3.279   3.823  24.635  0.00  0.00    +0.256 C 
ATOM     18  O   UNL     1      -3.101   4.626  24.714  0.00  0.00    -0.272 OA
ATOM     19  N   UNL     1      -2.685   3.259  24.727  0.00  0.00    -0.275 N 
ATOM     26  C   UNL     1      -2.863   2.457  24.648  0.00  0.00    +0.139 C 
ENDROOT
BRANCH  14  11
ATOM      8  C   UNL     1      -4.169  -0.185  24.241  0.00  0.00    +0.075 A 
ATOM      9  C   UNL     1      -3.745   0.204  23.649  0.00  0.00    +0.016 A 
ATOM     10  C   UNL     1      -3.567   1.005  23.728  0.00  0.00    -0.001 A 
ATOM     11  C   UNL     1      -3.813   1.418  24.398  0.00  0.00    +0.006 A 
ATOM     12  C   UNL     1      -4.236   1.030  24.990  0.00  0.00    -0.001 A 
ATOM     13  C   UNL     1      -4.414   0.228  24.911  0.00  0.00    +0.016 A 
BRANCH   8   7
ATOM      4  N   UNL     1      -3.970  -2.357  24.304  0.00  0.00    -0.189 NA
ATOM      5  C   UNL     1      -3.792  -1.556  24.382  0.00  0.00    +0.343 C 
ATOM      6  O   UNL     1      -3.059  -1.324  24.682  0.00  0.00    -0.249 OA
ATOM      7  N   UNL     1      -4.347  -0.986  24.162  0.00  0.00    -0.161 NA
BRANCH   4   2
ATOM      1  C   UNL     1      -3.331  -3.136  25.317  0.00  0.00    +0.023 C 
ATOM      2  C   UNL     1      -3.416  -2.928  24.524  0.00  0.00    +0.097 C 
ATOM      3  C   UNL     1      -2.946  -3.289  23.950  0.00  0.00    +0.023 C 
ENDBRANCH   4   2
ENDBRANCH   8   7
ENDBRANCH  14  11
BRANCH  19  20
ATOM     20  C   UNL     1      -1.913   3.495  24.898  0.00  0.00    +0.081 C 
ATOM     21  C   UNL     1      -1.353   3.543  24.294  0.00  0.00    +0.052 C 
ATOM     22  C   UNL     1      -0.582   3.779  24.465  0.00  0.00    +0.144 C 
ATOM     23  O   UNL     1      -0.369   3.968  25.239  0.00  0.00    -0.354 OA
ATOM     24  C   UNL     1      -0.930   3.920  25.843  0.00  0.00    +0.144 C 
ATOM     25  C   UNL     1      -1.702   3.684  25.672  0.00  0.00    +0.052 C 
ENDBRANCH  19  20
BRANCH  26  27
ATOM     27  C   UNL     1      -2.268   1.892  24.740  0.00  0.00    +0.205 C 
ATOM     28  O   UNL     1      -2.100   1.590  25.489  0.00  0.00    -0.218 OA
ENDBRANCH  26  27
TORSDOF 5
ENDMDL
MODEL 2
REMARK VINA RESULT:      -9.6      1.885      5.648
REMARK  Name = 
REMARK  5 active torsions:
REMARK  status: ('A' for Active; 'I' for Inactive)
REMARK    1  A    between atoms: C_2  and  N_4
REMARK    2  A    between atoms: N_7  and  C_8
REMARK    3  A    between atoms: C_11  and  C_14
REMARK    4  A    between atoms: N_19  and  C_20
REMARK    5  A    between atoms: C_26  and  C_27
REMARK                            x       y       z     vdW  Elec       q    Type
REMARK                         _______ _______ _______ _____ _____    ______ ____
ROOT
ATOM     14  C   UNL     1      -0.971  -0.173  24.838  0.00  0.00    +0.159 C 
ATOM     15  O   UNL     1      -0.359  -0.719  24.749  0.00  0.00    -0.341 OA
ATOM     16  C   UNL     1      -0.534  -1.518  24.640  0.00  0.00    +0.227 C 
ATOM     17  C   UNL     1      -1.320  -1.770  24.618  0.00  0.00    +0.256 C 
ATOM     18  O   UNL     1      -1.495  -2.569  24.509  0.00  0.00    -0.272 OA
ATOM     19  N   UNL     1      -1.931  -1.223  24.707  0.00  0.00    -0.275 N 
ATOM     26  C   UNL     1      -1.756  -0.424  24.816  0.00  0.00    +0.139 C 
ENDROOT
BRANCH  14  11
ATOM      8  C   UNL     1      -0.447   2.225  25.167  0.00  0.00    +0.075 A 
ATOM      9  C   UNL     1      -0.681   1.761  25.808  0.00  0.00    +0.016 A 
ATOM     10  C   UNL     1      -0.856   0.963  25.699  0.00  0.00    -0.001 A 
ATOM     11  C   UNL     1      -0.796   0.627  24.948  0.00  0.00    +0.006 A 
ATOM     12  C   UNL     1      -0.562   1.089  24.306  0.00  0.00    -0.001 A 
ATOM     13  C   UNL     1      -0.387   1.888  24.416  0.00  0.00    +0.016 A 
BRANCH   8   7
ATOM      4  N   UNL     1      -0.674   4.394  25.240  0.00  0.00    -0.189 NA
ATOM      5  C   UNL     1      -0.849   3.595  25.130  0.00  0.00    +0.343 C 
ATOM      6  O   UNL     1      -1.600   3.369  24.875  0.00  0.00    -0.249 OA
ATOM      7  N   UNL     1      -0.273   3.023  25.276  0.00  0.00    -0.161 NA
BRANCH   4   2
ATOM      1  C   UNL     1      -1.967   4.943  25.499  0.00  0.00    +0.023 C 
ATOM      2  C   UNL     1      -1.250   4.966  25.094  0.00  0.00    +0.097 C 
ATOM      3  C   UNL     1      -1.107   5.563  24.542  0.00  0.00    +0.023 C 
ENDBRANCH   4   2
ENDBRANCH   8   7
ENDBRANCH  14  11
BRANCH  19  20
ATOM     20  C   UNL     1      -2.717  -1.475  24.685  0.00  0.00    +0.081 C 
ATOM     21  C   UNL     1      -3.112  -1.652  25.387  0.00  0.00    +0.052 C 
ATOM     22  C   UNL     1      -3.897  -1.903  25.366  0.00  0.00    +0.144 C 
ATOM     23  O   UNL     1      -4.287  -1.978  24.643  0.00  0.00    -0.354 OA
ATOM     24  C   UNL     1      -3.891  -1.800  23.941  0.00  0.00    +0.144 C 
ATOM     25  C   UNL     1      -3.106  -1.549  23.963  0.00  0.00    +0.052 C 
ENDBRANCH  19  20
BRANCH  26  27
ATOM     27  C   UNL     1      -2.368   0.123  24.905  0.00  0.00    +0.205 C 
ATOM     28  O   UNL     1      -2.701   0.480  24.240  0.00  0.00    -0.218 OA
ENDBRANCH  26  27
TORSDOF 5
ENDMDL
MODEL 3
REMARK VINA RESULT:      -9.1      1.242      5.082
REMARK  Name = 
REMARK  5 active torsions:
REMARK  status: ('A' for Active; 'I' for Inactive)
REMARK    1  A    between atoms: C_2  and  N_4
REMARK    2  A    between atoms: N_7  and  C_8
REMARK    3  A    between atoms: C_11  and  C_14
REMARK    4  A    between atoms: N_19  and  C_20
REMARK    5  A    between atoms: C_26  and  C_27
REMARK                            x       y       z     vdW  Elec       q    Type
REMARK                         _______ _______ _______ _____ _____    ______ ____
ROOT
ATOM     14  C   UNL     1      -3.786  -0.155  24.160  0.00  0.00    +0.159 C 
ATOM     15  O   UNL     1      -4.490  -0.495  23.898  0.00  0.00    -0.341 OA
ATOM     16  C   UNL     1      -4.560  -1.316  23.854  0.00  0.00    +0.227 C 
ATOM     17  C   UNL     1      -3.925  -1.796  24.071  0.00  0.00    +0.256 C 
ATOM     18  O   UNL     1      -3.995  -2.618  24.027  0.00  0.00    -0.272 OA
ATOM     19  N   UNL     1      -3.221  -1.456  24.333  0.00  0.00    -0.275 N 
ATOM     26  C   UNL     1      -3.152  -0.636  24.378  0.00  0.00    +0.139 C 
ENDROOT
BRANCH  14  11
ATOM      8  C   UNL     1      -3.577   2.308  24.294  0.00  0.00    +0.075 A 
ATOM      9  C   UNL     1      -3.201   1.894  23.688  0.00  0.00    +0.016 A 
ATOM     10  C   UNL     1      -3.271   1.074  23.643  0.00  0.00    -0.001 A 
ATOM     11  C   UNL     1      -3.716   0.666  24.205  0.00  0.00    +0.006 A 
ATOM     12  C   UNL     1      -4.092   1.079  24.812  0.00  0.00    -0.001 A 
ATOM     13  C   UNL     1      -4.022   1.901  24.857  0.00  0.00    +0.016 A 
BRANCH   8   7
ATOM      4  N   UNL     1      -2.856   4.289  24.860  0.00  0.00    -0.189 NA
ATOM      5  C   UNL     1      -2.925   3.468  24.815  0.00  0.00    +0.343 C 
ATOM      6  O   UNL     1      -2.412   2.987  25.246  0.00  0.00    -0.249 OA
ATOM      7  N   UNL     1      -3.507   3.128  24.339  0.00  0.00    -0.161 NA
BRANCH   4   2
ATOM      1  C   UNL     1      -2.394   4.701  26.148  0.00  0.00    +0.023 C 
ATOM      2  C   UNL     1      -2.273   4.629  25.336  0.00  0.00    +0.097 C 
ATOM      3  C   UNL     1      -1.570   4.896  24.998  0.00  0.00    +0.023 C 
ENDBRANCH   4   2
ENDBRANCH   8   7
ENDBRANCH  14  11
BRANCH  19  20
ATOM     20  C   UNL     1      -2.587  -1.937  24.551  0.00  0.00    +0.081 C 
ATOM     21  C   UNL     1      -2.574  -2.291  25.295  0.00  0.00    +0.052 C 
ATOM     22  C   UNL     1      -1.940  -2.771  25.513  0.00  0.00    +0.144 C 
ATOM     23  O   UNL     1      -1.318  -2.898  24.986  0.00  0.00    -0.354 OA
ATOM     24  C   UNL     1      -1.331  -2.544  24.241  0.00  0.00    +0.144 C 
ATOM     25  C   UNL     1      -1.965  -2.063  24.024  0.00  0.00    +0.052 C 
ENDBRANCH  19  20
BRANCH  26  27
ATOM     27  C   UNL     1      -2.447  -0.295  24.640  0.00  0.00    +0.205 C 
ATOM     28  O   UNL     1      -2.328  -0.162  25.446  0.00  0.00    -0.218 OA
ENDBRANCH  26  27
TORSDOF 5
ENDMDL
MODEL 4
REMARK VINA RESULT:      -9.0      1.561      2.430
REMARK  Name = 
REMARK  5 active torsions:
REMARK  status: ('A' for Active; 'I' for Inactive)
REMARK    1  A    between atoms: C_2  and  N_4
REMARK    2  A    between atoms: N_7  and  C_8
REMARK    3  A    between atoms: C_11  and  C_14
REMARK    4  A    between atoms: N_19  and  C_20
REMARK    5  A    between atoms: C_26  and  C_27
REMARK                            x       y       z     vdW  Elec       q    Type
REMARK                         _______ _______ _______ _____ _____    ______ ____
ROOT
ATOM     14  C   UNL     1      -0.754   1.516  25.300  0.00  0.00    +0.159 C 
ATOM     15  O   UNL     1       0.035   1.702  25.456  0.00  0.00    -0.341 OA
ATOM     16  C   UNL     1       0.246   2.479  25.633  0.00  0.00    +0.227 C 
ATOM     17  C   UNL     1      -0.330   3.069  25.655  0.00  0.00    +0.256 C 
ATOM     18  O   UNL     1      -0.118   3.847  25.833  0.00  0.00    -0.272 OA
ATOM     19  N   UNL     1      -1.118   2.883  25.500  0.00  0.00    -0.275 N 
ATOM     26  C   UNL     1      -1.330   2.106  25.322  0.00  0.00    +0.139 C 
ENDROOT
BRANCH  14  11
ATOM      8  C   UNL     1      -1.390  -0.817  24.768  0.00  0.00    +0.075 A 
ATOM      9  C   UNL     1      -1.171  -0.300  24.163  0.00  0.00    +0.016 A 
ATOM     10  C   UNL     1      -0.959   0.477  24.340  0.00  0.00    -0.001 A 
ATOM     11  C   UNL     1      -0.966   0.738  25.123  0.00  0.00    +0.006 A 
ATOM     12  C   UNL     1      -1.185   0.222  25.728  0.00  0.00    -0.001 A 
ATOM     13  C   UNL     1      -1.397  -0.556  25.550  0.00  0.00    +0.016 A 
BRANCH   8   7
ATOM      4  N   UNL     1      -2.608  -2.594  24.420  0.00  0.00    -0.189 NA
ATOM      5  C   UNL     1      -2.396  -1.817  24.597  0.00  0.00    +0.343 C 
ATOM      6  O   UNL     1      -2.979  -1.262  24.781  0.00  0.00    -0.249 OA
ATOM      7  N   UNL     1      -1.602  -1.594  24.591  0.00  0.00    -0.161 NA
BRANCH   4   2
ATOM      1  C   UNL     1      -3.885  -2.645  23.781  0.00  0.00    +0.023 C 
ATOM      2  C   UNL     1      -3.403  -2.817  24.427  0.00  0.00    +0.097 C 
ATOM      3  C   UNL     1      -3.714  -3.213  25.080  0.00  0.00    +0.023 C 
ENDBRANCH   4   2
ENDBRANCH   8   7
ENDBRANCH  14  11
BRANCH  19  20
ATOM     20  C   UNL     1      -1.694   3.473  25.521  0.00  0.00    +0.081 C 
ATOM     21  C   UNL     1      -1.773   3.995  24.888  0.00  0.00    +0.052 C 
ATOM     22  C   UNL     1      -2.349   4.586  24.910  0.00  0.00    +0.144 C 
ATOM     23  O   UNL     1      -2.846   4.654  25.565  0.00  0.00    -0.354 OA
ATOM     24  C   UNL     1      -2.766   4.131  26.198  0.00  0.00    +0.144 C 
ATOM     25  C   UNL     1      -2.190   3.541  26.176  0.00  0.00    +0.052 C 
ENDBRANCH  19  20
BRANCH  26  27
ATOM     27  C   UNL     1      -2.119   1.919  25.166  0.00  0.00    +0.205 C 
ATOM     28  O   UNL     1      -2.408   1.966  24.395  0.00  0.00    -0.218 OA
ENDBRANCH  26  27
TORSDOF 5
ENDMDL
MODEL 5
REMARK VINA RESULT:      -8.5      2.483      3.810
REMARK  Name = 
REMARK  5 active torsions:
REMARK  status: ('A' for Active; 'I' for Inactive)
REMARK    1  A    between atoms: C_2  and  N_4
REMARK    2  A    between atoms: N_7  and  C_8
REMARK    3  A    between atoms: C_11  and  C_14
REMARK    4  A    between atoms: N_19  and  C_20
REMARK    5  A    between atoms: C_26  and  C_27
REMARK                            x       y       z     vdW  Elec       q    Type
REMARK                         _______ _______ _______ _____ _____    ______ ____
ROOT
ATOM     14  C   UNL     1      -3.132   3.123  24.969  0.00  0.00    +0.159 C 
ATOM     15  O   UNL     1      -3.198   3.942  25.050  0.00  0.00    -0.341 OA
ATOM     16  C   UNL     1      -3.932   4.280  25.216  0.00  0.00    +0.227 C 
ATOM     17  C   UNL     1      -4.598   3.801  25.301  0.00  0.00    +0.256 C 
ATOM     18  O   UNL     1      -5.332   4.140  25.468  0.00  0.00    -0.272 OA
ATOM     19  N   UNL     1      -4.532   2.983  25.220  0.00  0.00    -0.275 N 
ATOM     26  C   UNL     1      -3.798   2.644  25.054  0.00  0.00    +0.139 C 
ENDROOT
BRANCH  14  11
ATOM      8  C   UNL     1      -0.931   2.106  24.470  0.00  0.00    +0.075 A 
ATOM      9  C   UNL     1      -1.219   2.109  25.243  0.00  0.00    +0.016 A 
ATOM     10  C   UNL     1      -1.952   2.447  25.409  0.00  0.00    -0.001 A 
ATOM     11  C   UNL     1      -2.398   2.784  24.803  0.00  0.00    +0.006 A 
ATOM     12  C   UNL     1      -2.111   2.782  24.029  0.00  0.00    -0.001 A 
ATOM     13  C   UNL     1      -1.376   2.443  23.863  0.00  0.00    +0.016 A 
BRANCH   8   7
ATOM      4  N   UNL     1       0.576   0.681  23.791  0.00  0.00    -0.189 NA
ATOM      5  C   UNL     1      -0.157   1.020  23.957  0.00  0.00    +0.343 C 
ATOM      6  O   UNL     1      -0.850   0.610  23.778  0.00  0.00    -0.249 OA
ATOM      7  N   UNL     1      -0.198   1.768  24.303  0.00  0.00    -0.161 NA
BRANCH   4   2
ATOM      1  C   UNL     1       0.320  -0.724  23.845  0.00  0.00    +0.023 C 
ATOM      2  C   UNL     1       0.617  -0.067  23.445  0.00  0.00    +0.097 C 
ATOM      3  C   UNL     1       0.955  -0.158  22.698  0.00  0.00    +0.023 C 
ENDBRANCH   4   2
ENDBRANCH   8   7
ENDBRANCH  14  11
BRANCH  19  20
ATOM     20  C   UNL     1      -5.198   2.504  25.306  0.00  0.00    +0.081 C 
ATOM     21  C   UNL     1      -5.647   2.301  24.645  0.00  0.00    +0.052 C 
ATOM     22  C   UNL     1      -6.313   1.822  24.730  0.00  0.00    +0.144 C 
ATOM     23  O   UNL     1      -6.530   1.545  25.476  0.00  0.00    -0.354 OA
ATOM     24  C   UNL     1      -6.080   1.749  26.137  0.00  0.00    +0.144 C 
ATOM     25  C   UNL     1      -5.414   2.228  26.052  0.00  0.00    +0.052 C 
ENDBRANCH  19  20
BRANCH  26  27
ATOM     27  C   UNL     1      -3.731   1.825  24.973  0.00  0.00    +0.205 C 
ATOM     28  O   UNL     1      -3.848   1.474  24.236  0.00  0.00    -0.218 OA
ENDBRANCH  26  27
TORSDOF 5
ENDMDL
