MODEL 1
REMARK VINA RESULT:     -14.7      0.000      0.000
REMARK  Name = 
REMARK  5 active torsions:
REMARK  status: ('A' for Active; 'I' for Inactive)
REMARK    1  A    between atoms: O_2  and  C_3
REMARK    2  A    between atoms: C_6  and  C_7
REMARK    3  A    between atoms: C_7  and  C_8
REMARK    4  A    between atoms: N_10  and  C_11
REMARK    5  A    between atoms: C_21  and  C_23
REMARK                            x       y       z     vdW  Elec       q    Type
REMARK                         _______ _______ _______ _____ _____    ______ ____
ROOT
ATOM     11  C   UNL     1      -3.945   1.722  24.200  0.00  0.00    +0.129 A 
ATOM     12  C   UNL     1      -4.727   1.464  24.250  0.00  0.00    +0.023 A 
ATOM     13  C   UNL     1      -5.280   1.903  24.676  0.00  0.00    +0.014 A 
ATOM     14  C   UNL     1      -5.051   2.601  25.051  0.00  0.00    +0.041 A 
ATOM     15  C   UNL     1      -5.395   3.278  25.569  0.00  0.00    +0.058 C 
ATOM     16  C   UNL     1      -5.992   3.494  25.867  0.00  0.00    +0.011 C 
ATOM     17  C   UNL     1      -5.220   3.746  25.815  0.00  0.00    +0.043 C 
ATOM     18  C   UNL     1      -4.348   4.209  25.869  0.00  0.00    +0.096 C 
ATOM     19  N   UNL     1      -3.883   3.686  25.414  0.00  0.00    -0.276 N 
ATOM     20  C   UNL     1      -4.560   3.737  25.630  0.00  0.00    +0.099 C 
ATOM     21  C   UNL     1      -3.216   3.376  25.039  0.00  0.00    +0.249 C 
ATOM     22  O   UNL     1      -3.272   2.672  24.612  0.00  0.00    -0.270 OA
ATOM     30  C   UNL     1      -4.852   3.043  25.275  0.00  0.00    +0.110 C 
ATOM     31  N   UNL     1      -4.270   2.859  25.001  0.00  0.00    -0.298 N 
ATOM     32  C   UNL     1      -3.716   2.420  24.575  0.00  0.00    +0.276 A 
ATOM     33  O   UNL     1      -2.915   2.463  24.385  0.00  0.00    -0.266 OA
ENDROOT
BRANCH  21  23
ATOM     23  C   UNL     1      -2.494   3.771  25.090  0.00  0.00    +0.054 A 
ATOM     24  C   UNL     1      -1.915   3.506  25.614  0.00  0.00    +0.007 A 
ATOM     25  C   UNL     1      -1.192   3.901  25.666  0.00  0.00    +0.030 A 
ATOM     26  C   UNL     1      -1.049   4.562  25.193  0.00  0.00    +0.140 A 
ATOM     27  F   UNL     1      -0.326   4.957  25.244  0.00  0.00    -0.204 F 
ATOM     28  C   UNL     1      -1.628   4.828  24.669  0.00  0.00    +0.030 A 
ATOM     29  C   UNL     1      -2.351   4.432  24.618  0.00  0.00    +0.007 A 
ENDBRANCH  21  23
BRANCH  11  10
ATOM      8  C   UNL     1      -3.377   0.461  23.842  0.00  0.00    +0.250 C 
ATOM      9  O   UNL     1      -2.823   0.021  23.416  0.00  0.00    -0.273 OA
ATOM     10  N   UNL     1      -3.392   1.283  23.774  0.00  0.00    -0.174 NA
BRANCH   8   7
ATOM      7  C   UNL     1      -3.915   0.078  24.337  0.00  0.00    +0.113 C 
BRANCH   7   6
ATOM      3  C   UNL     1      -3.623  -2.324  24.858  0.00  0.00    +0.139 A 
ATOM      4  C   UNL     1      -3.340  -1.752  25.380  0.00  0.00    +0.037 A 
ATOM      5  C   UNL     1      -3.437  -0.951  25.207  0.00  0.00    -0.001 A 
ATOM      6  C   UNL     1      -3.818  -0.723  24.511  0.00  0.00    -0.013 A 
ATOM     34  C   UNL     1      -4.100  -1.296  23.988  0.00  0.00    -0.001 A 
ATOM     35  C   UNL     1      -4.003  -2.096  24.162  0.00  0.00    +0.037 A 
BRANCH   3   2
ATOM      1  C   UNL     1      -3.186  -3.629  24.474  0.00  0.00    +0.252 C 
ATOM      2  O   UNL     1      -3.526  -3.124  25.031  0.00  0.00    -0.471 OA
ENDBRANCH   3   2
ENDBRANCH   7   6
ENDBRANCH   8   7
ENDBRANCH  11  10
TORSDOF 5
ENDMDL
MODEL 2
REMARK VINA RESULT:     -14.3      2.057      4.451
REMARK  Name = 
REMARK  5 active torsions:
REMARK  status: ('A' for Active; 'I' for Inactive)
REMARK    1  A    between atoms: O_2  and  C_3
REMARK    2  A    between atoms: C_6  and  C_7
REMARK    3  A    between atoms: C_7  and  C_8
REMARK    4  A    between atoms: N_10  and  C_11
REMARK    5  A    between atoms: C_21  and  C_23
REMARK                            x       y       z     vdW  Elec       q    Type
REMARK                         _______ _______ _______ _____ _____    ______ ____
ROOT
ATOM     11  C   UNL     1      -3.127   1.873  23.888  0.00  0.00    +0.129 A 
ATOM     12  C   UNL     1      -3.381   2.656  23.943  0.00  0.00    +0.023 A 
ATOM     13  C   UNL     1      -4.112   2.831  24.282  0.00  0.00    +0.014 A 
ATOM     14  C   UNL     1      -4.590   2.221  24.566  0.00  0.00    +0.041 A 
ATOM     15  C   UNL     1      -5.403   2.082  24.971  0.00  0.00    +0.058 C 
ATOM     16  C   UNL     1      -5.964   2.428  25.213  0.00  0.00    +0.011 C 
ATOM     17  C   UNL     1      -5.711   1.656  25.157  0.00  0.00    +0.043 C 
ATOM     18  C   UNL     1      -5.584   0.676  25.180  0.00  0.00    +0.096 C 
ATOM     19  N   UNL     1      -4.831   0.624  24.821  0.00  0.00    -0.276 N 
ATOM     20  C   UNL     1      -5.295   1.134  25.001  0.00  0.00    +0.099 C 
ATOM     21  C   UNL     1      -4.145   0.280  24.519  0.00  0.00    +0.249 C 
ATOM     22  O   UNL     1      -3.554   0.755  24.192  0.00  0.00    -0.270 OA
ATOM     30  C   UNL     1      -4.860   1.791  24.734  0.00  0.00    +0.110 C 
ATOM     31  N   UNL     1      -4.337   1.438  24.511  0.00  0.00    -0.298 N 
ATOM     32  C   UNL     1      -3.605   1.264  24.172  0.00  0.00    +0.276 A 
ATOM     33  O   UNL     1      -3.149   0.597  24.009  0.00  0.00    -0.266 OA
ENDROOT
BRANCH  21  23
ATOM     23  C   UNL     1      -4.049  -0.539  24.543  0.00  0.00    +0.054 A 
ATOM     24  C   UNL     1      -4.300  -1.003  23.910  0.00  0.00    +0.007 A 
ATOM     25  C   UNL     1      -4.204  -1.823  23.934  0.00  0.00    +0.030 A 
ATOM     26  C   UNL     1      -3.857  -2.177  24.593  0.00  0.00    +0.140 A 
ATOM     27  F   UNL     1      -3.761  -2.996  24.618  0.00  0.00    -0.204 F 
ATOM     28  C   UNL     1      -3.606  -1.713  25.227  0.00  0.00    +0.030 A 
ATOM     29  C   UNL     1      -3.702  -0.894  25.203  0.00  0.00    +0.007 A 
ENDBRANCH  21  23
BRANCH  11  10
ATOM      8  C   UNL     1      -1.705   2.006  23.879  0.00  0.00    +0.250 C 
ATOM      9  O   UNL     1      -0.972   1.832  23.540  0.00  0.00    -0.273 OA
ATOM     10  N   UNL     1      -2.396   1.700  23.549  0.00  0.00    -0.174 NA
BRANCH   8   7
ATOM      7  C   UNL     1      -1.745   2.486  24.549  0.00  0.00    +0.113 C 
BRANCH   7   6
ATOM      3  C   UNL     1       0.191   2.631  26.084  0.00  0.00    +0.139 A 
ATOM      4  C   UNL     1      -0.253   1.937  26.045  0.00  0.00    +0.037 A 
ATOM      5  C   UNL     1      -0.898   1.889  25.534  0.00  0.00    -0.001 A 
ATOM      6  C   UNL     1      -1.099   2.535  25.061  0.00  0.00    -0.013 A 
ATOM     34  C   UNL     1      -0.655   3.229  25.100  0.00  0.00    -0.001 A 
ATOM     35  C   UNL     1      -0.010   3.277  25.612  0.00  0.00    +0.037 A 
BRANCH   3   2
ATOM      1  C   UNL     1       0.722   2.617  27.411  0.00  0.00    +0.252 C 
ATOM      2  O   UNL     1       0.836   2.679  26.596  0.00  0.00    -0.471 OA
ENDBRANCH   3   2
ENDBRANCH   7   6
ENDBRANCH   8   7
ENDBRANCH  11  10
TORSDOF 5
ENDMDL
MODEL 3
REMARK VINA RESULT:     -12.6      2.750      4.621
REMARK  Name = 
REMARK  5 active torsions:
REMARK  status: ('A' for Active; 'I' for Inactive)
REMARK    1  A    between atoms: O_2  and  C_3
REMARK    2  A    between atoms: C_6  and  C_7
REMARK    3  A    between atoms: C_7  and  C_8
REMARK    4  A    between atoms: N_10  and  C_11
REMARK    5  A    between atoms: C_21  and  C_23
REMARK                            x       y       z     vdW  Elec       q    Type
REMARK                         _______ _______ _______ _____ _____    ______ ____
ROOT
ATOM     11  C   UNL     1      -2.039  -0.385  25.126  0.00  0.00    +0.129 A 
ATOM     12  C   UNL     1      -1.762  -1.154  25.009  0.00  0.00    +0.023 A 
ATOM     13  C   UNL     1      -2.263  -1.730  24.697  0.00  0.00    +0.014 A 
ATOM     14  C   UNL     1      -3.042  -1.538  24.503  0.00  0.00    +0.041 A 
ATOM     15  C   UNL     1      -3.806  -1.917  24.161  0.00  0.00    +0.058 C 
ATOM     16  C   UNL     1      -4.058  -2.525  23.919  0.00  0.00    +0.011 C 
ATOM     17  C   UNL     1      -4.328  -1.766  24.036  0.00  0.00    +0.043 C 
ATOM     18  C   UNL     1      -4.833  -0.919  24.102  0.00  0.00    +0.096 C 
ATOM     19  N   UNL     1      -4.238  -0.426  24.421  0.00  0.00    -0.276 N 
ATOM     20  C   UNL     1      -4.307  -1.106  24.219  0.00  0.00    +0.099 C 
ATOM     21  C   UNL     1      -3.881   0.257  24.716  0.00  0.00    +0.249 C 
ATOM     22  O   UNL     1      -3.092   0.237  24.960  0.00  0.00    -0.270 OA
ATOM     30  C   UNL     1      -3.534  -1.362  24.394  0.00  0.00    +0.110 C 
ATOM     31  N   UNL     1      -3.319  -0.770  24.620  0.00  0.00    -0.298 N 
ATOM     32  C   UNL     1      -2.817  -0.193  24.932  0.00  0.00    +0.276 A 
ATOM     33  O   UNL     1      -2.853   0.606  25.134  0.00  0.00    -0.266 OA
ENDROOT
BRANCH  21  23
ATOM     23  C   UNL     1      -4.311   0.958  24.767  0.00  0.00    +0.054 A 
ATOM     24  C   UNL     1      -4.861   1.062  25.373  0.00  0.00    +0.007 A 
ATOM     25  C   UNL     1      -5.292   1.764  25.424  0.00  0.00    +0.030 A 
ATOM     26  C   UNL     1      -5.172   2.362  24.868  0.00  0.00    +0.140 A 
ATOM     27  F   UNL     1      -5.604   3.064  24.919  0.00  0.00    -0.204 F 
ATOM     28  C   UNL     1      -4.623   2.259  24.263  0.00  0.00    +0.030 A 
ATOM     29  C   UNL     1      -4.192   1.557  24.212  0.00  0.00    +0.007 A 
ENDBRANCH  21  23
BRANCH  11  10
ATOM      8  C   UNL     1      -0.813   0.346  25.077  0.00  0.00    +0.250 C 
ATOM      9  O   UNL     1      -0.311   0.922  25.389  0.00  0.00    -0.273 OA
ATOM     10  N   UNL     1      -1.538   0.190  25.438  0.00  0.00    -0.174 NA
BRANCH   8   7
ATOM      7  C   UNL     1      -0.589  -0.075  24.403  0.00  0.00    +0.113 C 
BRANCH   7   6
ATOM      3  C   UNL     1       1.477   0.544  23.188  0.00  0.00    +0.139 A 
ATOM      4  C   UNL     1       1.256  -0.248  23.248  0.00  0.00    +0.037 A 
ATOM      5  C   UNL     1       0.567  -0.454  23.653  0.00  0.00    -0.001 A 
ATOM      6  C   UNL     1       0.100   0.132  23.997  0.00  0.00    -0.013 A 
ATOM     34  C   UNL     1       0.321   0.925  23.937  0.00  0.00    -0.001 A 
ATOM     35  C   UNL     1       1.009   1.131  23.532  0.00  0.00    +0.037 A 
BRANCH   3   2
ATOM      1  C   UNL     1       2.647   0.162  22.463  0.00  0.00    +0.252 C 
ATOM      2  O   UNL     1       2.165   0.750  22.783  0.00  0.00    -0.471 OA
ENDBRANCH   3   2
ENDBRANCH   7   6
ENDBRANCH   8   7
ENDBRANCH  11  10
TORSDOF 5
ENDMDL
MODEL 4
REMARK VINA RESULT:     -12.5      2.728      4.038
REMARK  Name = 
REMARK  5 active torsions:
REMARK  status: ('A' for Active; 'I' for Inactive)
REMARK    1  A    between atoms: O_2  and  C_3
REMARK    2  A    between atoms: C_6  and  C_7
REMARK    3  A    between atoms: C_7  and  C_8
REMARK    4  A    between atoms: N_10  and  C_11
REMARK    5  A    between atoms: C_21  and  C_23
REMARK                            x       y       z     vdW  Elec       q    Type
REMARK                         _______ _______ _______ _____ _____    ______ ____
ROOT
ATOM     11  C   UNL     1      -1.240   2.179  25.375  0.00  0.00    +0.129 A 
ATOM     12  C   UNL     1      -0.545   2.615  25.458  0.00  0.00    +0.023 A 
ATOM     13  C   UNL     1      -0.568   3.439  25.426  0.00  0.00    +0.014 A 
ATOM     14  C   UNL     1      -1.287   3.826  25.311  0.00  0.00    +0.041 A 
ATOM     15  C   UNL     1      -1.637   4.673  25.232  0.00  0.00    +0.058 C 
ATOM     16  C   UNL     1      -1.448   5.349  25.235  0.00  0.00    +0.011 C 
ATOM     17  C   UNL     1      -2.133   4.915  25.153  0.00  0.00    +0.043 C 
ATOM     18  C   UNL     1      -3.053   4.573  25.035  0.00  0.00    +0.096 C 
ATOM     19  N   UNL     1      -2.905   3.753  25.085  0.00  0.00    -0.276 N 
ATOM     20  C   UNL     1      -2.531   4.358  25.117  0.00  0.00    +0.099 C 
ATOM     21  C   UNL     1      -3.059   2.942  25.092  0.00  0.00    +0.249 C 
ATOM     22  O   UNL     1      -2.440   2.405  25.198  0.00  0.00    -0.270 OA
ATOM     30  C   UNL     1      -1.777   4.027  25.235  0.00  0.00    +0.110 C 
ATOM     31  N   UNL     1      -1.982   3.390  25.228  0.00  0.00    -0.298 N 
ATOM     32  C   UNL     1      -1.959   2.566  25.260  0.00  0.00    +0.276 A 
ATOM     33  O   UNL     1      -2.488   1.935  25.207  0.00  0.00    -0.266 OA
ENDROOT
BRANCH  21  23
ATOM     23  C   UNL     1      -3.830   2.668  24.992  0.00  0.00    +0.054 A 
ATOM     24  C   UNL     1      -4.346   2.644  25.635  0.00  0.00    +0.007 A 
ATOM     25  C   UNL     1      -5.118   2.370  25.535  0.00  0.00    +0.030 A 
ATOM     26  C   UNL     1      -5.374   2.120  24.792  0.00  0.00    +0.140 A 
ATOM     27  F   UNL     1      -6.146   1.845  24.692  0.00  0.00    -0.204 F 
ATOM     28  C   UNL     1      -4.859   2.143  24.149  0.00  0.00    +0.030 A 
ATOM     29  C   UNL     1      -4.086   2.417  24.248  0.00  0.00    +0.007 A 
ENDBRANCH  21  23
BRANCH  11  10
ATOM      8  C   UNL     1      -0.657   0.941  24.964  0.00  0.00    +0.250 C 
ATOM      9  O   UNL     1      -0.633   0.116  24.996  0.00  0.00    -0.273 OA
ATOM     10  N   UNL     1      -1.216   1.355  25.407  0.00  0.00    -0.174 NA
BRANCH   8   7
ATOM      7  C   UNL     1      -0.122   1.351  24.488  0.00  0.00    +0.113 C 
BRANCH   7   6
ATOM      3  C   UNL     1       1.329   0.113  22.909  0.00  0.00    +0.139 A 
ATOM      4  C   UNL     1       1.643   0.723  23.367  0.00  0.00    +0.037 A 
ATOM      5  C   UNL     1       1.160   1.136  23.893  0.00  0.00    -0.001 A 
ATOM      6  C   UNL     1       0.361   0.938  23.961  0.00  0.00    -0.013 A 
ATOM     34  C   UNL     1       0.047   0.327  23.504  0.00  0.00    -0.001 A 
ATOM     35  C   UNL     1       0.530  -0.085  22.978  0.00  0.00    +0.037 A 
BRANCH   3   2
ATOM      1  C   UNL     1       2.600  -0.075  22.286  0.00  0.00    +0.252 C 
ATOM      2  O   UNL     1       1.812  -0.299  22.384  0.00  0.00    -0.471 OA
ENDBRANCH   3   2
ENDBRANCH   7   6
ENDBRANCH   8   7
ENDBRANCH  11  10
TORSDOF 5
ENDMDL
MODEL 5
REMARK VINA RESULT:     -12.3      2.002      4.562
REMARK  Name = 
REMARK  5 active torsions:
REMARK  status: ('A' for Active; 'I' for Inactive)
REMARK    1  A    between atoms: O_2  and  C_3
REMARK    2  A    between atoms: C_6  and  C_7
REMARK    3  A    between atoms: C_7  and  C_8
REMARK    4  A    between atoms: N_10  and  C_11
REMARK    5  A    between atoms: C_21  and  C_23
REMARK                            x       y       z     vdW  Elec       q    Type
REMARK                         _______ _______ _______ _____ _____    ______ ____
ROOT
ATOM     11  C   UNL     1      -3.198   0.524  23.833  0.00  0.00    +0.129 A 
ATOM     12  C   UNL     1      -3.836   0.037  24.025  0.00  0.00    +0.023 A 
ATOM     13  C   UNL     1      -3.707  -0.679  24.414  0.00  0.00    +0.014 A 
ATOM     14  C   UNL     1      -2.939  -0.907  24.612  0.00  0.00    +0.041 A 
ATOM     15  C   UNL     1      -2.481  -1.593  25.018  0.00  0.00    +0.058 C 
ATOM     16  C   UNL     1      -2.582  -2.211  25.334  0.00  0.00    +0.011 C 
ATOM     17  C   UNL     1      -1.955  -1.728  25.143  0.00  0.00    +0.043 C 
ATOM     18  C   UNL     1      -1.081  -1.290  25.000  0.00  0.00    +0.096 C 
ATOM     19  N   UNL     1      -1.334  -0.596  24.610  0.00  0.00    -0.276 N 
ATOM     20  C   UNL     1      -1.629  -1.182  24.888  0.00  0.00    +0.099 C 
ATOM     21  C   UNL     1      -1.284   0.135  24.230  0.00  0.00    +0.249 C 
ATOM     22  O   UNL     1      -1.971   0.509  23.964  0.00  0.00    -0.270 OA
ATOM     30  C   UNL     1      -2.425  -1.008  24.716  0.00  0.00    +0.110 C 
ATOM     31  N   UNL     1      -2.301  -0.420  24.420  0.00  0.00    -0.298 N 
ATOM     32  C   UNL     1      -2.431   0.295  24.031  0.00  0.00    +0.276 A 
ATOM     33  O   UNL     1      -1.984   0.926  23.744  0.00  0.00    -0.266 OA
ENDROOT
BRANCH  21  23
ATOM     23  C   UNL     1      -0.550   0.492  24.116  0.00  0.00    +0.054 A 
ATOM     24  C   UNL     1      -0.061   0.243  23.501  0.00  0.00    +0.007 A 
ATOM     25  C   UNL     1       0.675   0.600  23.387  0.00  0.00    +0.030 A 
ATOM     26  C   UNL     1       0.921   1.206  23.890  0.00  0.00    +0.140 A 
ATOM     27  F   UNL     1       1.656   1.563  23.776  0.00  0.00    -0.204 F 
ATOM     28  C   UNL     1       0.432   1.455  24.505  0.00  0.00    +0.030 A 
ATOM     29  C   UNL     1      -0.303   1.098  24.619  0.00  0.00    +0.007 A 
ENDBRANCH  21  23
BRANCH  11  10
ATOM      8  C   UNL     1      -3.845   1.796  23.766  0.00  0.00    +0.250 C 
ATOM      9  O   UNL     1      -3.975   2.512  23.375  0.00  0.00    -0.273 OA
ATOM     10  N   UNL     1      -3.328   1.239  23.444  0.00  0.00    -0.174 NA
BRANCH   8   7
ATOM      7  C   UNL     1      -4.231   1.638  24.477  0.00  0.00    +0.113 C 
BRANCH   7   6
ATOM      3  C   UNL     1      -5.478   3.436  25.634  0.00  0.00    +0.139 A 
ATOM      4  C   UNL     1      -5.885   2.806  25.292  0.00  0.00    +0.037 A 
ATOM      5  C   UNL     1      -5.470   2.207  24.907  0.00  0.00    -0.001 A 
ATOM      6  C   UNL     1      -4.647   2.238  24.863  0.00  0.00    -0.013 A 
ATOM     34  C   UNL     1      -4.239   2.868  25.205  0.00  0.00    -0.001 A 
ATOM     35  C   UNL     1      -4.654   3.467  25.590  0.00  0.00    +0.037 A 
BRANCH   3   2
ATOM      1  C   UNL     1      -6.041   4.749  25.632  0.00  0.00    +0.252 C 
ATOM      2  O   UNL     1      -5.893   4.036  26.019  0.00  0.00    -0.471 OA
ENDBRANCH   3   2
ENDBRANCH   7   6
ENDBRANCH   8   7
ENDBRANCH  11  10
TORSDOF 5
ENDMDL
MODEL 6
REMARK VINA RESULT:     -12.3      1.392      2.686
REMARK  Name = 
REMARK  5 active torsions:
REMARK  status: ('A' for Active; 'I' for Inactive)
REMARK    1  A    between atoms: O_2  and  C_3
REMARK    2  A    between atoms: C_6  and  C_7
REMARK    3  A    between atoms: C_7  and  C_8
REMARK    4  A    between atoms: N_10  and  C_11
REMARK    5  A    between atoms: C_21  and  C_23
REMARK                            x       y       z     vdW  Elec       q    Type
REMARK                         _______ _______ _______ _____ _____    ______ ____
ROOT
ATOM     11  C   UNL     1      -2.510   1.636  24.033  0.00  0.00    +0.129 A 
ATOM     12  C   UNL     1      -1.708   1.444  24.005  0.00  0.00    +0.023 A 
ATOM     13  C   UNL     1      -1.162   1.887  24.438  0.00  0.00    +0.014 A 
ATOM     14  C   UNL     1      -1.419   2.521  24.899  0.00  0.00    +0.041 A 
ATOM     15  C   UNL     1      -1.095   3.171  25.462  0.00  0.00    +0.058 C 
ATOM     16  C   UNL     1      -0.497   3.409  25.742  0.00  0.00    +0.011 C 
ATOM     17  C   UNL     1      -1.289   3.595  25.767  0.00  0.00    +0.043 C 
ATOM     18  C   UNL     1      -2.189   3.972  25.925  0.00  0.00    +0.096 C 
ATOM     19  N   UNL     1      -2.642   3.456  25.448  0.00  0.00    -0.276 N 
ATOM     20  C   UNL     1      -1.958   3.546  25.625  0.00  0.00    +0.099 C 
ATOM     21  C   UNL     1      -3.307   3.128  25.086  0.00  0.00    +0.249 C 
ATOM     22  O   UNL     1      -3.225   2.477  24.585  0.00  0.00    -0.270 OA
ATOM     30  C   UNL     1      -1.637   2.920  25.180  0.00  0.00    +0.110 C 
ATOM     31  N   UNL     1      -2.221   2.713  24.927  0.00  0.00    -0.298 N 
ATOM     32  C   UNL     1      -2.766   2.271  24.494  0.00  0.00    +0.276 A 
ATOM     33  O   UNL     1      -3.580   2.261  24.361  0.00  0.00    -0.266 OA
ENDROOT
BRANCH  21  23
ATOM     23  C   UNL     1      -4.053   3.450  25.225  0.00  0.00    +0.054 A 
ATOM     24  C   UNL     1      -4.307   4.106  24.794  0.00  0.00    +0.007 A 
ATOM     25  C   UNL     1      -5.054   4.428  24.934  0.00  0.00    +0.030 A 
ATOM     26  C   UNL     1      -5.547   4.094  25.504  0.00  0.00    +0.140 A 
ATOM     27  F   UNL     1      -6.294   4.417  25.643  0.00  0.00    -0.204 F 
ATOM     28  C   UNL     1      -5.294   3.439  25.935  0.00  0.00    +0.030 A 
ATOM     29  C   UNL     1      -4.547   3.116  25.796  0.00  0.00    +0.007 A 
ENDBRANCH  21  23
BRANCH  11  10
ATOM      8  C   UNL     1      -3.138   0.386  23.744  0.00  0.00    +0.250 C 
ATOM      9  O   UNL     1      -3.683  -0.057  23.310  0.00  0.00    -0.273 OA
ATOM     10  N   UNL     1      -3.054   1.194  23.600  0.00  0.00    -0.174 NA
BRANCH   8   7
ATOM      7  C   UNL     1      -2.676   0.020  24.322  0.00  0.00    +0.113 C 
BRANCH   7   6
ATOM      3  C   UNL     1      -3.186  -2.297  25.026  0.00  0.00    +0.139 A 
ATOM      4  C   UNL     1      -2.565  -2.152  24.502  0.00  0.00    +0.037 A 
ATOM      5  C   UNL     1      -2.396  -1.380  24.268  0.00  0.00    -0.001 A 
ATOM      6  C   UNL     1      -2.847  -0.752  24.557  0.00  0.00    -0.013 A 
ATOM     34  C   UNL     1      -3.467  -0.897  25.081  0.00  0.00    -0.001 A 
ATOM     35  C   UNL     1      -3.636  -1.670  25.316  0.00  0.00    +0.037 A 
BRANCH   3   2
ATOM      1  C   UNL     1      -3.606  -3.624  24.704  0.00  0.00    +0.252 C 
ATOM      2  O   UNL     1      -3.355  -3.069  25.261  0.00  0.00    -0.471 OA
ENDBRANCH   3   2
ENDBRANCH   7   6
ENDBRANCH   8   7
ENDBRANCH  11  10
TORSDOF 5
ENDMDL
MODEL 7
REMARK VINA RESULT:     -11.4      2.205      3.471
REMARK  Name = 
REMARK  5 active torsions:
REMARK  status: ('A' for Active; 'I' for Inactive)
REMARK    1  A    between atoms: O_2  and  C_3
REMARK    2  A    between atoms: C_6  and  C_7
REMARK    3  A    between atoms: C_7  and  C_8
REMARK    4  A    between atoms: N_10  and  C_11
REMARK    5  A    between atoms: C_21  and  C_23
REMARK                            x       y       z     vdW  Elec       q    Type
REMARK                         _______ _______ _______ _____ _____    ______ ____
ROOT
ATOM     11  C   UNL     1      -1.377   0.124  25.442  0.00  0.00    +0.129 A 
ATOM     12  C   UNL     1      -0.857  -0.438  25.135  0.00  0.00    +0.023 A 
ATOM     13  C   UNL     1      -0.235  -0.202  24.646  0.00  0.00    +0.014 A 
ATOM     14  C   UNL     1      -0.133   0.596  24.466  0.00  0.00    +0.041 A 
ATOM     15  C   UNL     1       0.417   1.155  23.987  0.00  0.00    +0.058 C 
ATOM     16  C   UNL     1       0.983   1.147  23.572  0.00  0.00    +0.011 C 
ATOM     17  C   UNL     1       0.468   1.699  23.877  0.00  0.00    +0.043 C 
ATOM     18  C   UNL     1      -0.040   2.504  24.143  0.00  0.00    +0.096 C 
ATOM     19  N   UNL     1      -0.625   2.148  24.621  0.00  0.00    -0.276 N 
ATOM     20  C   UNL     1      -0.063   1.942  24.235  0.00  0.00    +0.099 C 
ATOM     21  C   UNL     1      -1.285   2.087  25.114  0.00  0.00    +0.249 C 
ATOM     22  O   UNL     1      -1.527   1.348  25.390  0.00  0.00    -0.270 OA
ATOM     30  C   UNL     1      -0.112   1.123  24.380  0.00  0.00    +0.110 C 
ATOM     31  N   UNL     1      -0.653   1.158  24.773  0.00  0.00    -0.298 N 
ATOM     32  C   UNL     1      -1.275   0.922  25.261  0.00  0.00    +0.276 A 
ATOM     33  O   UNL     1      -1.898   1.272  25.673  0.00  0.00    -0.266 OA
ENDROOT
BRANCH  21  23
ATOM     23  C   UNL     1      -1.701   2.765  25.330  0.00  0.00    +0.054 A 
ATOM     24  C   UNL     1      -1.453   3.214  25.976  0.00  0.00    +0.007 A 
ATOM     25  C   UNL     1      -1.870   3.893  26.192  0.00  0.00    +0.030 A 
ATOM     26  C   UNL     1      -2.535   4.122  25.762  0.00  0.00    +0.140 A 
ATOM     27  F   UNL     1      -2.952   4.801  25.978  0.00  0.00    -0.204 F 
ATOM     28  C   UNL     1      -2.784   3.674  25.116  0.00  0.00    +0.030 A 
ATOM     29  C   UNL     1      -2.367   2.995  24.900  0.00  0.00    +0.007 A 
ENDBRANCH  21  23
BRANCH  11  10
ATOM      8  C   UNL     1      -2.507  -0.715  25.688  0.00  0.00    +0.250 C 
ATOM      9  O   UNL     1      -3.129  -0.951  26.177  0.00  0.00    -0.273 OA
ATOM     10  N   UNL     1      -1.998  -0.113  25.930  0.00  0.00    -0.174 NA
BRANCH   8   7
ATOM      7  C   UNL     1      -2.395  -1.080  24.957  0.00  0.00    +0.113 C 
BRANCH   7   6
ATOM      3  C   UNL     1      -4.229  -2.394  23.938  0.00  0.00    +0.139 A 
ATOM      4  C   UNL     1      -4.229  -1.571  23.879  0.00  0.00    +0.037 A 
ATOM      5  C   UNL     1      -3.618  -1.134  24.219  0.00  0.00    -0.001 A 
ATOM      6  C   UNL     1      -3.006  -1.519  24.617  0.00  0.00    -0.013 A 
ATOM     34  C   UNL     1      -3.006  -2.342  24.676  0.00  0.00    -0.001 A 
ATOM     35  C   UNL     1      -3.617  -2.779  24.337  0.00  0.00    +0.037 A 
BRANCH   3   2
ATOM      1  C   UNL     1      -4.673  -3.539  23.209  0.00  0.00    +0.252 C 
ATOM      2  O   UNL     1      -4.840  -2.832  23.599  0.00  0.00    -0.471 OA
ENDBRANCH   3   2
ENDBRANCH   7   6
ENDBRANCH   8   7
ENDBRANCH  11  10
TORSDOF 5
ENDMDL
MODEL 8
REMARK VINA RESULT:     -11.4      2.302      5.238
REMARK  Name = 
REMARK  5 active torsions:
REMARK  status: ('A' for Active; 'I' for Inactive)
REMARK    1  A    between atoms: O_2  and  C_3
REMARK    2  A    between atoms: C_6  and  C_7
REMARK    3  A    between atoms: C_7  and  C_8
REMARK    4  A    between atoms: N_10  and  C_11
REMARK    5  A    between atoms: C_21  and  C_23
REMARK                            x       y       z     vdW  Elec       q    Type
REMARK                         _______ _______ _______ _____ _____    ______ ____
ROOT
ATOM     11  C   UNL     1      -2.849   1.225  23.757  0.00  0.00    +0.129 A 
ATOM     12  C   UNL     1      -2.348   1.867  23.624  0.00  0.00    +0.023 A 
ATOM     13  C   UNL     1      -1.555   1.824  23.848  0.00  0.00    +0.014 A 
ATOM     14  C   UNL     1      -1.264   1.139  24.204  0.00  0.00    +0.041 A 
ATOM     15  C   UNL     1      -0.487   0.790  24.550  0.00  0.00    +0.058 C 
ATOM     16  C   UNL     1       0.187   0.949  24.660  0.00  0.00    +0.011 C 
ATOM     17  C   UNL     1      -0.311   0.318  24.789  0.00  0.00    +0.043 C 
ATOM     18  C   UNL     1      -0.747  -0.536  25.026  0.00  0.00    +0.096 C 
ATOM     19  N   UNL     1      -1.522  -0.377  24.759  0.00  0.00    -0.276 N 
ATOM     20  C   UNL     1      -0.894  -0.042  24.785  0.00  0.00    +0.099 C 
ATOM     21  C   UNL     1      -2.323  -0.501  24.602  0.00  0.00    +0.249 C 
ATOM     22  O   UNL     1      -2.769   0.093  24.242  0.00  0.00    -0.270 OA
ATOM     30  C   UNL     1      -1.127   0.675  24.431  0.00  0.00    +0.110 C 
ATOM     31  N   UNL     1      -1.765   0.498  24.337  0.00  0.00    -0.298 N 
ATOM     32  C   UNL     1      -2.558   0.541  24.113  0.00  0.00    +0.276 A 
ATOM     33  O   UNL     1      -3.228   0.061  24.136  0.00  0.00    -0.266 OA
ENDROOT
BRANCH  21  23
ATOM     23  C   UNL     1      -2.676  -1.218  24.804  0.00  0.00    +0.054 A 
ATOM     24  C   UNL     1      -3.071  -1.295  25.524  0.00  0.00    +0.007 A 
ATOM     25  C   UNL     1      -3.425  -2.013  25.726  0.00  0.00    +0.030 A 
ATOM     26  C   UNL     1      -3.383  -2.653  25.208  0.00  0.00    +0.140 A 
ATOM     27  F   UNL     1      -3.737  -3.371  25.410  0.00  0.00    -0.204 F 
ATOM     28  C   UNL     1      -2.989  -2.577  24.488  0.00  0.00    +0.030 A 
ATOM     29  C   UNL     1      -2.635  -1.859  24.286  0.00  0.00    +0.007 A 
ENDBRANCH  21  23
BRANCH  11  10
ATOM      8  C   UNL     1      -4.128   1.857  23.847  0.00  0.00    +0.250 C 
ATOM      9  O   UNL     1      -4.921   1.900  23.622  0.00  0.00    -0.273 OA
ATOM     10  N   UNL     1      -3.642   1.269  23.533  0.00  0.00    -0.174 NA
BRANCH   8   7
ATOM      7  C   UNL     1      -3.821   2.402  24.385  0.00  0.00    +0.113 C 
BRANCH   7   6
ATOM      3  C   UNL     1      -5.348   3.884  25.650  0.00  0.00    +0.139 A 
ATOM      4  C   UNL     1      -4.820   4.205  25.103  0.00  0.00    +0.037 A 
ATOM      5  C   UNL     1      -4.311   3.711  24.682  0.00  0.00    -0.001 A 
ATOM      6  C   UNL     1      -4.330   2.896  24.807  0.00  0.00    -0.013 A 
ATOM     34  C   UNL     1      -4.858   2.574  25.353  0.00  0.00    -0.001 A 
ATOM     35  C   UNL     1      -5.367   3.068  25.775  0.00  0.00    +0.037 A 
BRANCH   3   2
ATOM      1  C   UNL     1      -6.294   4.954  25.674  0.00  0.00    +0.252 C 
ATOM      2  O   UNL     1      -5.856   4.378  26.071  0.00  0.00    -0.471 OA
ENDBRANCH   3   2
ENDBRANCH   7   6
ENDBRANCH   8   7
ENDBRANCH  11  10
TORSDOF 5
ENDMDL
