MODEL 1
REMARK VINA RESULT:      -9.5      0.000      0.000
REMARK  Name = 
REMARK  9 active torsions:
REMARK  status: ('A' for Active; 'I' for Inactive)
REMARK    1  A    between atoms: O_2  and  C_3
REMARK    2  A    between atoms: C_3  and  C_4
REMARK    3  A    between atoms: N_6  and  C_7
REMARK    4  A    between atoms: C_7  and  C_8
REMARK    5  A    between atoms: C_12  and  C_13
REMARK    6  A    between atoms: C_13  and  C_14
REMARK    7  A    between atoms: N_16  and  C_18
REMARK    8  A    between atoms: C_18  and  C_19
REMARK    9  A    between atoms: C_26  and  C_27
REMARK                            x       y       z     vdW  Elec       q    Type
REMARK                         _______ _______ _______ _____ _____    ______ ____
ROOT
ATOM      8  C   UNL     1      -0.743   1.139  24.315  0.00  0.00    +0.043 C 
ATOM      9  C   UNL     1      -0.494   1.910  24.162  0.00  0.00    -0.033 C 
ATOM     10  C   UNL     1      -0.966   2.548  24.392  0.00  0.00    -0.048 C 
ATOM     11  C   UNL     1      -0.717   3.320  24.239  0.00  0.00    +0.026 C 
ATOM     12  C   UNL     1      -1.685   2.414  24.773  0.00  0.00    +0.027 C 
ATOM     25  C   UNL     1      -1.933   1.642  24.925  0.00  0.00    +0.005 C 
ATOM     26  C   UNL     1      -1.462   1.004  24.696  0.00  0.00    +0.006 C 
ENDROOT
BRANCH  26  27
ATOM     27  C   UNL     1      -1.710   0.232  24.848  0.00  0.00    +0.000 C 
ATOM     28  C   UNL     1      -2.184  -0.165  24.302  0.00  0.00    +0.000 C 
ATOM     29  C   UNL     1      -1.484  -0.143  25.546  0.00  0.00    +0.000 C 
ENDBRANCH  26  27
BRANCH   8   7
ATOM      7  C   UNL     1      -0.272   0.501  24.085  0.00  0.00    +0.119 C 
BRANCH   7   6
ATOM      4  C   UNL     1       0.811  -0.017  23.310  0.00  0.00    +0.272 C 
ATOM      5  O   UNL     1       0.774  -0.725  23.730  0.00  0.00    -0.271 OA
ATOM      6  N   UNL     1       0.288   0.597  23.487  0.00  0.00    -0.203 NA
BRANCH   4   3
ATOM      3  C   UNL     1       1.371   0.079  22.712  0.00  0.00    +0.229 C 
BRANCH   3   2
ATOM      1  C   UNL     1       2.750   0.095  22.337  0.00  0.00    +0.175 C 
ATOM      2  O   UNL     1       2.147  -0.178  22.829  0.00  0.00    -0.342 OA
ENDBRANCH   3   2
ENDBRANCH   4   3
ENDBRANCH   7   6
ENDBRANCH   8   7
BRANCH  12  13
ATOM     13  C   UNL     1      -2.155   3.051  25.002  0.00  0.00    +0.089 C 
BRANCH  13  14
ATOM     14  C   UNL     1      -2.913   3.140  24.686  0.00  0.00    +0.226 C 
ATOM     15  O   UNL     1      -3.036   3.042  23.876  0.00  0.00    -0.275 OA
ATOM     16  N   UNL     1      -3.546   3.327  25.179  0.00  0.00    -0.274 N 
ATOM     17  C   UNL     1      -3.423   3.424  25.989  0.00  0.00    +0.115 C 
BRANCH  16  18
ATOM     18  C   UNL     1      -4.303   3.416  24.864  0.00  0.00    +0.120 C 
BRANCH  18  19
ATOM     19  C   UNL     1      -4.922   2.942  25.135  0.00  0.00    -0.002 A 
ATOM     20  C   UNL     1      -5.272   3.098  25.866  0.00  0.00    -0.003 A 
ATOM     21  C   UNL     1      -5.891   2.625  26.136  0.00  0.00    -0.000 A 
ATOM     22  C   UNL     1      -6.160   1.996  25.676  0.00  0.00    -0.000 A 
ATOM     23  C   UNL     1      -5.811   1.839  24.945  0.00  0.00    -0.000 A 
ATOM     24  C   UNL     1      -5.191   2.313  24.675  0.00  0.00    -0.003 A 
ENDBRANCH  18  19
ENDBRANCH  16  18
ENDBRANCH  13  14
ENDBRANCH  12  13
TORSDOF 9
ENDMDL
MODEL 2
REMARK VINA RESULT:      -9.4      2.487      4.101
REMARK  Name = 
REMARK  9 active torsions:
REMARK  status: ('A' for Active; 'I' for Inactive)
REMARK    1  A    between atoms: O_2  and  C_3
REMARK    2  A    between atoms: C_3  and  C_4
REMARK    3  A    between atoms: N_6  and  C_7
REMARK    4  A    between atoms: C_7  and  C_8
REMARK    5  A    between atoms: C_12  and  C_13
REMARK    6  A    between atoms: C_13  and  C_14
REMARK    7  A    between atoms: N_16  and  C_18
REMARK    8  A    between atoms: C_18  and  C_19
REMARK    9  A    between atoms: C_26  and  C_27
REMARK                            x       y       z     vdW  Elec       q    Type
REMARK                         _______ _______ _______ _____ _____    ______ ____
ROOT
ATOM      8  C   UNL     1      -3.974   0.635  24.182  0.00  0.00    +0.043 C 
ATOM      9  C   UNL     1      -4.625   0.801  24.660  0.00  0.00    -0.033 C 
ATOM     10  C   UNL     1      -4.727   1.560  24.969  0.00  0.00    -0.048 C 
ATOM     11  C   UNL     1      -5.378   1.726  25.447  0.00  0.00    +0.026 C 
ATOM     12  C   UNL     1      -4.177   2.151  24.799  0.00  0.00    +0.027 C 
ATOM     25  C   UNL     1      -3.526   1.984  24.321  0.00  0.00    +0.005 C 
ATOM     26  C   UNL     1      -3.424   1.226  24.012  0.00  0.00    +0.006 C 
ENDROOT
BRANCH  26  27
ATOM     27  C   UNL     1      -2.773   1.059  23.534  0.00  0.00    +0.000 C 
ATOM     28  C   UNL     1      -2.815   1.186  22.720  0.00  0.00    +0.000 C 
ATOM     29  C   UNL     1      -2.080   0.765  23.870  0.00  0.00    +0.000 C 
ENDBRANCH  26  27
BRANCH   8   7
ATOM      7  C   UNL     1      -3.872  -0.124  23.873  0.00  0.00    +0.119 C 
BRANCH   7   6
ATOM      4  C   UNL     1      -4.052  -1.530  24.053  0.00  0.00    +0.272 C 
ATOM      5  O   UNL     1      -4.146  -1.622  23.239  0.00  0.00    -0.271 OA
ATOM      6  N   UNL     1      -3.915  -0.781  24.370  0.00  0.00    -0.203 NA
BRANCH   4   3
ATOM      3  C   UNL     1      -4.096  -2.187  24.550  0.00  0.00    +0.229 C 
BRANCH   3   2
ATOM      1  C   UNL     1      -3.357  -3.345  24.945  0.00  0.00    +0.175 C 
ATOM      2  O   UNL     1      -3.695  -2.881  24.352  0.00  0.00    -0.342 OA
ENDBRANCH   3   2
ENDBRANCH   4   3
ENDBRANCH   7   6
ENDBRANCH   8   7
BRANCH  12  13
ATOM     13  C   UNL     1      -4.279   2.909  25.108  0.00  0.00    +0.089 C 
BRANCH  13  14
ATOM     14  C   UNL     1      -3.691   3.246  25.579  0.00  0.00    +0.226 C 
ATOM     15  O   UNL     1      -3.430   2.854  26.256  0.00  0.00    -0.275 OA
ATOM     16  N   UNL     1      -3.364   3.974  25.373  0.00  0.00    -0.274 N 
ATOM     17  C   UNL     1      -3.625   4.366  24.695  0.00  0.00    +0.115 C 
BRANCH  16  18
ATOM     18  C   UNL     1      -2.777   4.310  25.843  0.00  0.00    +0.120 C 
BRANCH  18  19
ATOM     19  C   UNL     1      -2.067   4.560  25.503  0.00  0.00    -0.002 A 
ATOM     20  C   UNL     1      -1.997   5.327  25.207  0.00  0.00    -0.003 A 
ATOM     21  C   UNL     1      -1.288   5.575  24.868  0.00  0.00    -0.000 A 
ATOM     22  C   UNL     1      -0.648   5.057  24.824  0.00  0.00    -0.000 A 
ATOM     23  C   UNL     1      -0.717   4.290  25.120  0.00  0.00    -0.000 A 
ATOM     24  C   UNL     1      -1.427   4.041  25.460  0.00  0.00    -0.003 A 
ENDBRANCH  18  19
ENDBRANCH  16  18
ENDBRANCH  13  14
ENDBRANCH  12  13
TORSDOF 9
ENDMDL
MODEL 3
REMARK VINA RESULT:      -9.0      2.344      4.282
REMARK  Name = 
REMARK  9 active torsions:
REMARK  status: ('A' for Active; 'I' for Inactive)
REMARK    1  A    between atoms: O_2  and  C_3
REMARK    2  A    between atoms: C_3  and  C_4
REMARK    3  A    between atoms: N_6  and  C_7
REMARK    4  A    between atoms: C_7  and  C_8
REMARK    5  A    between atoms: C_12  and  C_13
REMARK    6  A    between atoms: C_13  and  C_14
REMARK    7  A    between atoms: N_16  and  C_18
REMARK    8  A    between atoms: C_18  and  C_19
REMARK    9  A    between atoms: C_26  and  C_27
REMARK                            x       y       z     vdW  Elec       q    Type
REMARK                         _______ _______ _______ _____ _____    ______ ____
ROOT
ATOM      8  C   UNL     1      -1.867   2.385  24.537  0.00  0.00    +0.043 C 
ATOM      9  C   UNL     1      -2.587   2.706  24.294  0.00  0.00    -0.033 C 
ATOM     10  C   UNL     1      -3.203   2.206  24.064  0.00  0.00    -0.048 C 
ATOM     11  C   UNL     1      -3.923   2.527  23.821  0.00  0.00    +0.026 C 
ATOM     12  C   UNL     1      -3.099   1.388  24.079  0.00  0.00    +0.027 C 
ATOM     25  C   UNL     1      -2.378   1.069  24.323  0.00  0.00    +0.005 C 
ATOM     26  C   UNL     1      -1.762   1.567  24.552  0.00  0.00    +0.006 C 
ENDROOT
BRANCH  26  27
ATOM     27  C   UNL     1      -1.041   1.248  24.795  0.00  0.00    +0.000 C 
ATOM     28  C   UNL     1      -0.911   1.083  25.593  0.00  0.00    +0.000 C 
ATOM     29  C   UNL     1      -0.450   1.094  24.241  0.00  0.00    +0.000 C 
ENDBRANCH  26  27
BRANCH   8   7
ATOM      7  C   UNL     1      -1.250   2.885  24.766  0.00  0.00    +0.119 C 
BRANCH   7   6
ATOM      4  C   UNL     1      -0.790   4.217  24.998  0.00  0.00    +0.272 C 
ATOM      5  O   UNL     1      -0.244   3.934  25.546  0.00  0.00    -0.271 OA
ATOM      6  N   UNL     1      -1.294   3.693  24.608  0.00  0.00    -0.203 NA
BRANCH   4   3
ATOM      3  C   UNL     1      -0.834   5.026  24.840  0.00  0.00    +0.229 C 
BRANCH   3   2
ATOM      1  C   UNL     1      -1.653   6.193  24.930  0.00  0.00    +0.175 C 
ATOM      2  O   UNL     1      -1.356   5.502  25.267  0.00  0.00    -0.342 OA
ENDBRANCH   3   2
ENDBRANCH   4   3
ENDBRANCH   7   6
ENDBRANCH   8   7
BRANCH  12  13
ATOM     13  C   UNL     1      -3.715   0.890  23.850  0.00  0.00    +0.089 C 
BRANCH  13  14
ATOM     14  C   UNL     1      -3.987   0.306  24.365  0.00  0.00    +0.226 C 
ATOM     15  O   UNL     1      -4.187   0.501  25.141  0.00  0.00    -0.275 OA
ATOM     16  N   UNL     1      -4.059  -0.473  24.104  0.00  0.00    -0.274 N 
ATOM     17  C   UNL     1      -3.859  -0.669  23.328  0.00  0.00    +0.115 C 
BRANCH  16  18
ATOM     18  C   UNL     1      -4.331  -1.057  24.619  0.00  0.00    +0.120 C 
BRANCH  18  19
ATOM     19  C   UNL     1      -3.983  -1.805  24.616  0.00  0.00    -0.002 A 
ATOM     20  C   UNL     1      -4.156  -2.339  24.010  0.00  0.00    -0.003 A 
ATOM     21  C   UNL     1      -3.809  -3.087  24.007  0.00  0.00    -0.000 A 
ATOM     22  C   UNL     1      -3.288  -3.302  24.610  0.00  0.00    -0.000 A 
ATOM     23  C   UNL     1      -3.115  -2.770  25.216  0.00  0.00    -0.000 A 
ATOM     24  C   UNL     1      -3.463  -2.021  25.219  0.00  0.00    -0.003 A 
ENDBRANCH  18  19
ENDBRANCH  16  18
ENDBRANCH  13  14
ENDBRANCH  12  13
TORSDOF 9
ENDMDL
MODEL 4
REMARK VINA RESULT:      -8.8      2.331      4.132
REMARK  Name = 
REMARK  9 active torsions:
REMARK  status: ('A' for Active; 'I' for Inactive)
REMARK    1  A    between atoms: O_2  and  C_3
REMARK    2  A    between atoms: C_3  and  C_4
REMARK    3  A    between atoms: N_6  and  C_7
REMARK    4  A    between atoms: C_7  and  C_8
REMARK    5  A    between atoms: C_12  and  C_13
REMARK    6  A    between atoms: C_13  and  C_14
REMARK    7  A    between atoms: N_16  and  C_18
REMARK    8  A    between atoms: C_18  and  C_19
REMARK    9  A    between atoms: C_26  and  C_27
REMARK                            x       y       z     vdW  Elec       q    Type
REMARK                         _______ _______ _______ _____ _____    ______ ____
ROOT
ATOM      8  C   UNL     1      -2.698  -0.018  24.491  0.00  0.00    +0.043 C 
ATOM      9  C   UNL     1      -1.953  -0.358  24.585  0.00  0.00    -0.033 C 
ATOM     10  C   UNL     1      -1.285   0.123  24.649  0.00  0.00    -0.048 C 
ATOM     11  C   UNL     1      -0.540  -0.218  24.743  0.00  0.00    +0.026 C 
ATOM     12  C   UNL     1      -1.364   0.943  24.620  0.00  0.00    +0.027 C 
ATOM     25  C   UNL     1      -2.110   1.283  24.526  0.00  0.00    +0.005 C 
ATOM     26  C   UNL     1      -2.777   0.803  24.462  0.00  0.00    +0.006 C 
ENDROOT
BRANCH  26  27
ATOM     27  C   UNL     1      -3.523   1.142  24.369  0.00  0.00    +0.000 C 
ATOM     28  C   UNL     1      -3.770   1.399  23.625  0.00  0.00    +0.000 C 
ATOM     29  C   UNL     1      -4.023   1.225  25.020  0.00  0.00    +0.000 C 
ENDBRANCH  26  27
BRANCH   8   7
ATOM      7  C   UNL     1      -3.366  -0.499  24.427  0.00  0.00    +0.119 C 
BRANCH   7   6
ATOM      4  C   UNL     1      -3.909  -1.820  24.370  0.00  0.00    +0.272 C 
ATOM      5  O   UNL     1      -4.550  -1.538  23.936  0.00  0.00    -0.271 OA
ATOM      6  N   UNL     1      -3.316  -1.300  24.616  0.00  0.00    -0.203 NA
BRANCH   4   3
ATOM      3  C   UNL     1      -3.859  -2.621  24.560  0.00  0.00    +0.229 C 
BRANCH   3   2
ATOM      1  C   UNL     1      -3.550  -3.921  24.054  0.00  0.00    +0.175 C 
ATOM      2  O   UNL     1      -3.920  -3.190  23.964  0.00  0.00    -0.342 OA
ENDBRANCH   3   2
ENDBRANCH   4   3
ENDBRANCH   7   6
ENDBRANCH   8   7
BRANCH  12  13
ATOM     13  C   UNL     1      -0.697   1.424  24.684  0.00  0.00    +0.089 C 
BRANCH  13  14
ATOM     14  C   UNL     1      -0.686   2.047  25.225  0.00  0.00    +0.226 C 
ATOM     15  O   UNL     1      -0.856   1.905  26.020  0.00  0.00    -0.275 OA
ATOM     16  N   UNL     1      -0.507   2.810  24.972  0.00  0.00    -0.274 N 
ATOM     17  C   UNL     1      -0.337   2.952  24.177  0.00  0.00    +0.115 C 
BRANCH  16  18
ATOM     18  C   UNL     1      -0.497   3.432  25.513  0.00  0.00    +0.120 C 
BRANCH  18  19
ATOM     19  C   UNL     1      -0.889   4.137  25.339  0.00  0.00    -0.002 A 
ATOM     20  C   UNL     1      -0.518   4.716  24.884  0.00  0.00    -0.003 A 
ATOM     21  C   UNL     1      -0.911   5.420  24.711  0.00  0.00    -0.000 A 
ATOM     22  C   UNL     1      -1.676   5.546  24.994  0.00  0.00    -0.000 A 
ATOM     23  C   UNL     1      -2.048   4.968  25.449  0.00  0.00    -0.000 A 
ATOM     24  C   UNL     1      -1.654   4.263  25.622  0.00  0.00    -0.003 A 
ENDBRANCH  18  19
ENDBRANCH  16  18
ENDBRANCH  13  14
ENDBRANCH  12  13
TORSDOF 9
ENDMDL
MODEL 5
REMARK VINA RESULT:      -8.6      2.337      4.564
REMARK  Name = 
REMARK  9 active torsions:
REMARK  status: ('A' for Active; 'I' for Inactive)
REMARK    1  A    between atoms: O_2  and  C_3
REMARK    2  A    between atoms: C_3  and  C_4
REMARK    3  A    between atoms: N_6  and  C_7
REMARK    4  A    between atoms: C_7  and  C_8
REMARK    5  A    between atoms: C_12  and  C_13
REMARK    6  A    between atoms: C_13  and  C_14
REMARK    7  A    between atoms: N_16  and  C_18
REMARK    8  A    between atoms: C_18  and  C_19
REMARK    9  A    between atoms: C_26  and  C_27
REMARK                            x       y       z     vdW  Elec       q    Type
REMARK                         _______ _______ _______ _____ _____    ______ ____
ROOT
ATOM      8  C   UNL     1      -2.181   2.281  25.014  0.00  0.00    +0.043 C 
ATOM      9  C   UNL     1      -1.487   2.058  25.400  0.00  0.00    -0.033 C 
ATOM     10  C   UNL     1      -1.280   1.260  25.449  0.00  0.00    -0.048 C 
ATOM     11  C   UNL     1      -0.586   1.037  25.835  0.00  0.00    +0.026 C 
ATOM     12  C   UNL     1      -1.769   0.687  25.113  0.00  0.00    +0.027 C 
ATOM     25  C   UNL     1      -2.463   0.911  24.727  0.00  0.00    +0.005 C 
ATOM     26  C   UNL     1      -2.669   1.708  24.678  0.00  0.00    +0.006 C 
ENDROOT
BRANCH  26  27
ATOM     27  C   UNL     1      -3.363   1.932  24.292  0.00  0.00    +0.000 C 
ATOM     28  C   UNL     1      -4.062   2.024  24.720  0.00  0.00    +0.000 C 
ATOM     29  C   UNL     1      -3.358   2.064  23.478  0.00  0.00    +0.000 C 
ENDBRANCH  26  27
BRANCH   8   7
ATOM      7  C   UNL     1      -2.387   3.079  24.965  0.00  0.00    +0.119 C 
BRANCH   7   6
ATOM      4  C   UNL     1      -2.054   4.443  25.232  0.00  0.00    +0.272 C 
ATOM      5  O   UNL     1      -2.853   4.643  25.207  0.00  0.00    -0.271 OA
ATOM      6  N   UNL     1      -1.820   3.661  25.112  0.00  0.00    -0.203 NA
BRANCH   4   3
ATOM      3  C   UNL     1      -1.488   5.025  25.379  0.00  0.00    +0.229 C 
BRANCH   3   2
ATOM      1  C   UNL     1      -0.536   5.805  24.653  0.00  0.00    +0.175 C 
ATOM      2  O   UNL     1      -1.318   5.590  24.801  0.00  0.00    -0.342 OA
ENDBRANCH   3   2
ENDBRANCH   4   3
ENDBRANCH   7   6
ENDBRANCH   8   7
BRANCH  12  13
ATOM     13  C   UNL     1      -1.562  -0.110  25.162  0.00  0.00    +0.089 C 
BRANCH  13  14
ATOM     14  C   UNL     1      -2.116  -0.665  25.419  0.00  0.00    +0.226 C 
ATOM     15  O   UNL     1      -2.563  -0.518  26.096  0.00  0.00    -0.275 OA
ATOM     16  N   UNL     1      -2.223  -1.367  24.999  0.00  0.00    -0.274 N 
ATOM     17  C   UNL     1      -1.776  -1.514  24.322  0.00  0.00    +0.115 C 
BRANCH  16  18
ATOM     18  C   UNL     1      -2.777  -1.921  25.257  0.00  0.00    +0.120 C 
BRANCH  18  19
ATOM     19  C   UNL     1      -3.310  -2.252  24.721  0.00  0.00    -0.002 A 
ATOM     20  C   UNL     1      -3.934  -1.800  24.425  0.00  0.00    -0.003 A 
ATOM     21  C   UNL     1      -4.466  -2.131  23.890  0.00  0.00    -0.000 A 
ATOM     22  C   UNL     1      -4.375  -2.915  23.649  0.00  0.00    -0.000 A 
ATOM     23  C   UNL     1      -3.752  -3.368  23.944  0.00  0.00    -0.000 A 
ATOM     24  C   UNL     1      -3.219  -3.036  24.480  0.00  0.00    -0.003 A 
ENDBRANCH  18  19
ENDBRANCH  16  18
ENDBRANCH  13  14
ENDBRANCH  12  13
TORSDOF 9
ENDMDL
MODEL 6
REMARK VINA RESULT:      -8.6      1.188      2.081
REMARK  Name = 
REMARK  9 active torsions:
REMARK  status: ('A' for Active; 'I' for Inactive)
REMARK    1  A    between atoms: O_2  and  C_3
REMARK    2  A    between atoms: C_3  and  C_4
REMARK    3  A    between atoms: N_6  and  C_7
REMARK    4  A    between atoms: C_7  and  C_8
REMARK    5  A    between atoms: C_12  and  C_13
REMARK    6  A    between atoms: C_13  and  C_14
REMARK    7  A    between atoms: N_16  and  C_18
REMARK    8  A    between atoms: C_18  and  C_19
REMARK    9  A    between atoms: C_26  and  C_27
REMARK                            x       y       z     vdW  Elec       q    Type
REMARK                         _______ _______ _______ _____ _____    ______ ____
ROOT
ATOM      8  C   UNL     1      -0.577   0.672  24.218  0.00  0.00    +0.043 C 
ATOM      9  C   UNL     1      -0.789  -0.121  24.142  0.00  0.00    -0.033 C 
ATOM     10  C   UNL     1      -1.555  -0.363  24.334  0.00  0.00    -0.048 C 
ATOM     11  C   UNL     1      -1.768  -1.156  24.258  0.00  0.00    +0.026 C 
ATOM     12  C   UNL     1      -2.107   0.189  24.602  0.00  0.00    +0.027 C 
ATOM     25  C   UNL     1      -1.893   0.982  24.678  0.00  0.00    +0.005 C 
ATOM     26  C   UNL     1      -1.128   1.224  24.486  0.00  0.00    +0.006 C 
ENDROOT
BRANCH  26  27
ATOM     27  C   UNL     1      -0.914   2.017  24.561  0.00  0.00    +0.000 C 
ATOM     28  C   UNL     1      -1.013   2.534  23.926  0.00  0.00    +0.000 C 
ATOM     29  C   UNL     1      -0.601   2.293  25.273  0.00  0.00    +0.000 C 
ENDBRANCH  26  27
BRANCH   8   7
ATOM      7  C   UNL     1       0.189   0.914  24.025  0.00  0.00    +0.119 C 
BRANCH   7   6
ATOM      4  C   UNL     1       1.436   0.665  23.372  0.00  0.00    +0.272 C 
ATOM      5  O   UNL     1       1.756   1.336  23.728  0.00  0.00    -0.271 OA
ATOM      6  N   UNL     1       0.651   0.453  23.521  0.00  0.00    -0.203 NA
BRANCH   4   3
ATOM      3  C   UNL     1       1.898   0.204  22.868  0.00  0.00    +0.229 C 
BRANCH   3   2
ATOM      1  C   UNL     1       3.080   0.075  22.074  0.00  0.00    +0.175 C 
ATOM      2  O   UNL     1       2.674   0.430  22.699  0.00  0.00    -0.342 OA
ENDBRANCH   3   2
ENDBRANCH   4   3
ENDBRANCH   7   6
ENDBRANCH   8   7
BRANCH  12  13
ATOM     13  C   UNL     1      -2.871  -0.053  24.795  0.00  0.00    +0.089 C 
BRANCH  13  14
ATOM     14  C   UNL     1      -3.522   0.330  24.461  0.00  0.00    +0.226 C 
ATOM     15  O   UNL     1      -3.526   0.508  23.655  0.00  0.00    -0.275 OA
ATOM     16  N   UNL     1      -4.167   0.534  24.932  0.00  0.00    -0.274 N 
ATOM     17  C   UNL     1      -4.162   0.356  25.737  0.00  0.00    +0.115 C 
BRANCH  16  18
ATOM     18  C   UNL     1      -4.817   0.916  24.598  0.00  0.00    +0.120 C 
BRANCH  18  19
ATOM     19  C   UNL     1      -5.137   1.583  24.964  0.00  0.00    -0.002 A 
ATOM     20  C   UNL     1      -5.731   1.498  25.532  0.00  0.00    -0.003 A 
ATOM     21  C   UNL     1      -6.051   2.163  25.897  0.00  0.00    -0.000 A 
ATOM     22  C   UNL     1      -5.778   2.916  25.696  0.00  0.00    -0.000 A 
ATOM     23  C   UNL     1      -5.185   3.002  25.129  0.00  0.00    -0.000 A 
ATOM     24  C   UNL     1      -4.865   2.335  24.763  0.00  0.00    -0.003 A 
ENDBRANCH  18  19
ENDBRANCH  16  18
ENDBRANCH  13  14
ENDBRANCH  12  13
TORSDOF 9
ENDMDL
