MODEL 1
REMARK VINA RESULT:     -11.5      0.000      0.000
REMARK  Name = 
REMARK  3 active torsions:
REMARK  status: ('A' for Active; 'I' for Inactive)
REMARK    1  A    between atoms: C_2  and  C_4
REMARK    2  A    between atoms: C_4  and  C_5
REMARK    3  A    between atoms: C_7  and  C_18
REMARK                            x       y       z     vdW  Elec       q    Type
REMARK                         _______ _______ _______ _____ _____    ______ ____
ROOT
ATOM      5  C   UNL     1      -3.071   3.216  24.985  0.00  0.00    +0.095 C 
ATOM      6  N   UNL     1      -3.296   2.611  24.471  0.00  0.00    -0.207 NA
ATOM      7  C   UNL     1      -2.830   2.198  23.929  0.00  0.00    +0.154 C 
ATOM      8  C   UNL     1      -2.026   2.288  23.768  0.00  0.00    +0.055 C 
ATOM      9  C   UNL     1      -1.489   2.813  24.109  0.00  0.00    +0.000 A 
ATOM     10  C   UNL     1      -0.692   2.849  23.898  0.00  0.00    +0.095 A 
ATOM     11  N   UNL     1      -0.333   3.436  24.353  0.00  0.00    -0.244 NA
ATOM     12  C   UNL     1      -0.909   3.763  24.846  0.00  0.00    +0.081 A 
ATOM     13  C   UNL     1      -1.623   3.378  24.695  0.00  0.00    +0.013 A 
ATOM     14  C   UNL     1      -2.328   3.557  25.085  0.00  0.00    -0.005 A 
ATOM     15  C   UNL     1      -2.269   4.189  25.677  0.00  0.00    -0.003 A 
ATOM     16  C   UNL     1      -1.555   4.575  25.829  0.00  0.00    +0.001 A 
ATOM     17  C   UNL     1      -0.875   4.361  25.413  0.00  0.00    +0.019 A 
ENDROOT
BRANCH   7  18
ATOM     18  C   UNL     1      -3.221   1.618  23.490  0.00  0.00    +0.242 C 
ATOM     19  O   UNL     1      -3.579   1.815  22.774  0.00  0.00    -0.273 OA
ATOM     20  N   UNL     1      -3.253   0.842  23.769  0.00  0.00    -0.275 N 
ATOM     21  C   UNL     1      -3.644   0.263  23.331  0.00  0.00    +0.115 C 
ATOM     22  C   UNL     1      -3.676  -0.514  23.611  0.00  0.00    +0.115 C 
ATOM     23  N   UNL     1      -3.317  -0.710  24.327  0.00  0.00    -0.275 N 
ATOM     24  C   UNL     1      -2.927  -0.130  24.765  0.00  0.00    +0.115 C 
ATOM     25  C   UNL     1      -2.895   0.646  24.486  0.00  0.00    +0.115 C 
ATOM     26  C   UNL     1      -3.350  -1.485  24.606  0.00  0.00    +0.220 A 
ATOM     27  N   UNL     1      -3.741  -2.065  24.168  0.00  0.00    -0.212 NA
ATOM     28  C   UNL     1      -3.773  -2.841  24.446  0.00  0.00    +0.103 A 
ATOM     29  C   UNL     1      -3.415  -3.037  25.163  0.00  0.00    +0.041 A 
ATOM     30  C   UNL     1      -3.024  -2.457  25.602  0.00  0.00    +0.103 A 
ATOM     31  N   UNL     1      -2.992  -1.681  25.323  0.00  0.00    -0.212 NA
ENDBRANCH   7  18
BRANCH   5   4
ATOM      4  C   UNL     1      -3.672   3.519  25.463  0.00  0.00    +0.022 C 
BRANCH   4   2
ATOM      1  C   UNL     1      -4.617   4.124  24.578  0.00  0.00    +0.000 C 
ATOM      2  C   UNL     1      -4.442   3.578  25.171  0.00  0.00    +0.002 C 
ATOM      3  C   UNL     1      -5.035   3.089  25.471  0.00  0.00    +0.000 C 
ENDBRANCH   4   2
ENDBRANCH   5   4
TORSDOF 3
ENDMDL
MODEL 2
REMARK VINA RESULT:     -11.4      2.370      4.747
REMARK  Name = 
REMARK  3 active torsions:
REMARK  status: ('A' for Active; 'I' for Inactive)
REMARK    1  A    between atoms: C_2  and  C_4
REMARK    2  A    between atoms: C_4  and  C_5
REMARK    3  A    between atoms: C_7  and  C_18
REMARK                            x       y       z     vdW  Elec       q    Type
REMARK                         _______ _______ _______ _____ _____    ______ ____
ROOT
ATOM      5  C   UNL     1      -2.917   0.726  24.002  0.00  0.00    +0.095 C 
ATOM      6  N   UNL     1      -2.207   1.086  24.218  0.00  0.00    -0.207 NA
ATOM      7  C   UNL     1      -1.658   0.842  24.784  0.00  0.00    +0.154 C 
ATOM      8  C   UNL     1      -1.684   0.178  25.273  0.00  0.00    +0.055 C 
ATOM      9  C   UNL     1      -2.265  -0.406  25.317  0.00  0.00    +0.000 A 
ATOM     10  C   UNL     1      -2.226  -1.048  25.833  0.00  0.00    +0.095 A 
ATOM     11  N   UNL     1      -2.901  -1.510  25.718  0.00  0.00    -0.244 NA
ATOM     12  C   UNL     1      -3.357  -1.152  25.131  0.00  0.00    +0.081 A 
ATOM     13  C   UNL     1      -2.964  -0.470  24.882  0.00  0.00    +0.013 A 
ATOM     14  C   UNL     1      -3.253   0.034  24.297  0.00  0.00    -0.005 A 
ATOM     15  C   UNL     1      -4.014  -0.203  23.952  0.00  0.00    -0.003 A 
ATOM     16  C   UNL     1      -4.408  -0.885  24.200  0.00  0.00    +0.001 A 
ATOM     17  C   UNL     1      -4.078  -1.359  24.790  0.00  0.00    +0.019 A 
ENDROOT
BRANCH   7  18
ATOM     18  C   UNL     1      -0.995   1.326  24.873  0.00  0.00    +0.242 C 
ATOM     19  O   UNL     1      -1.023   1.973  25.383  0.00  0.00    -0.273 OA
ATOM     20  N   UNL     1      -0.306   1.163  24.450  0.00  0.00    -0.275 N 
ATOM     21  C   UNL     1       0.356   1.646  24.538  0.00  0.00    +0.115 C 
ATOM     22  C   UNL     1       1.046   1.483  24.115  0.00  0.00    +0.115 C 
ATOM     23  N   UNL     1       1.073   0.835  23.604  0.00  0.00    -0.275 N 
ATOM     24  C   UNL     1       0.411   0.352  23.516  0.00  0.00    +0.115 C 
ATOM     25  C   UNL     1      -0.279   0.515  23.939  0.00  0.00    +0.115 C 
ATOM     26  C   UNL     1       1.762   0.672  23.182  0.00  0.00    +0.220 A 
ATOM     27  N   UNL     1       2.425   1.156  23.269  0.00  0.00    -0.212 NA
ATOM     28  C   UNL     1       3.114   0.993  22.847  0.00  0.00    +0.103 A 
ATOM     29  C   UNL     1       3.141   0.346  22.336  0.00  0.00    +0.041 A 
ATOM     30  C   UNL     1       2.479  -0.139  22.248  0.00  0.00    +0.103 A 
ATOM     31  N   UNL     1       1.789   0.025  22.671  0.00  0.00    -0.212 NA
ENDBRANCH   7  18
BRANCH   5   4
ATOM      4  C   UNL     1      -3.346   1.111  23.412  0.00  0.00    +0.022 C 
BRANCH   4   2
ATOM      1  C   UNL     1      -3.765   2.375  23.930  0.00  0.00    +0.000 C 
ATOM      2  C   UNL     1      -3.346   1.935  23.372  0.00  0.00    +0.002 C 
ATOM      3  C   UNL     1      -2.926   2.319  22.774  0.00  0.00    +0.000 C 
ENDBRANCH   4   2
ENDBRANCH   5   4
TORSDOF 3
ENDMDL
MODEL 3
REMARK VINA RESULT:     -11.3      1.686      2.909
REMARK  Name = 
REMARK  3 active torsions:
REMARK  status: ('A' for Active; 'I' for Inactive)
REMARK    1  A    between atoms: C_2  and  C_4
REMARK    2  A    between atoms: C_4  and  C_5
REMARK    3  A    between atoms: C_7  and  C_18
REMARK                            x       y       z     vdW  Elec       q    Type
REMARK                         _______ _______ _______ _____ _____    ______ ____
ROOT
ATOM      5  C   UNL     1      -3.420   3.538  24.988  0.00  0.00    +0.095 C 
ATOM      6  N   UNL     1      -2.918   3.095  24.507  0.00  0.00    -0.207 NA
ATOM      7  C   UNL     1      -3.079   2.395  24.100  0.00  0.00    +0.154 C 
ATOM      8  C   UNL     1      -3.783   1.965  24.076  0.00  0.00    +0.055 C 
ATOM      9  C   UNL     1      -4.499   2.129  24.452  0.00  0.00    +0.000 A 
ATOM     10  C   UNL     1      -5.169   1.652  24.383  0.00  0.00    +0.095 A 
ATOM     11  N   UNL     1      -5.772   1.991  24.833  0.00  0.00    -0.244 NA
ATOM     12  C   UNL     1      -5.475   2.679  25.180  0.00  0.00    +0.081 A 
ATOM     13  C   UNL     1      -4.688   2.764  24.944  0.00  0.00    +0.013 A 
ATOM     14  C   UNL     1      -4.207   3.391  25.183  0.00  0.00    -0.005 A 
ATOM     15  C   UNL     1      -4.590   3.967  25.709  0.00  0.00    -0.003 A 
ATOM     16  C   UNL     1      -5.376   3.882  25.944  0.00  0.00    +0.001 A 
ATOM     17  C   UNL     1      -5.818   3.237  25.680  0.00  0.00    +0.019 A 
ENDROOT
BRANCH   7  18
ATOM     18  C   UNL     1      -2.454   2.083  23.661  0.00  0.00    +0.242 C 
ATOM     19  O   UNL     1      -2.225   2.447  22.957  0.00  0.00    -0.273 OA
ATOM     20  N   UNL     1      -2.059   1.409  23.926  0.00  0.00    -0.275 N 
ATOM     21  C   UNL     1      -1.435   1.098  23.487  0.00  0.00    +0.115 C 
ATOM     22  C   UNL     1      -1.040   0.423  23.752  0.00  0.00    +0.115 C 
ATOM     23  N   UNL     1      -1.271   0.060  24.457  0.00  0.00    -0.275 N 
ATOM     24  C   UNL     1      -1.895   0.372  24.895  0.00  0.00    +0.115 C 
ATOM     25  C   UNL     1      -2.290   1.046  24.630  0.00  0.00    +0.115 C 
ATOM     26  C   UNL     1      -0.876  -0.613  24.721  0.00  0.00    +0.220 A 
ATOM     27  N   UNL     1      -0.251  -0.926  24.282  0.00  0.00    -0.212 NA
ATOM     28  C   UNL     1       0.144  -1.599  24.547  0.00  0.00    +0.103 A 
ATOM     29  C   UNL     1      -0.086  -1.962  25.251  0.00  0.00    +0.041 A 
ATOM     30  C   UNL     1      -0.712  -1.651  25.691  0.00  0.00    +0.103 A 
ATOM     31  N   UNL     1      -1.106  -0.976  25.426  0.00  0.00    -0.212 NA
ENDBRANCH   7  18
BRANCH   5   4
ATOM      4  C   UNL     1      -3.090   4.218  25.318  0.00  0.00    +0.022 C 
BRANCH   4   2
ATOM      1  C   UNL     1      -2.079   3.812  26.244  0.00  0.00    +0.000 C 
ATOM      2  C   UNL     1      -2.301   4.218  25.560  0.00  0.00    +0.002 C 
ATOM      3  C   UNL     1      -1.734   4.623  25.118  0.00  0.00    +0.000 C 
ENDBRANCH   4   2
ENDBRANCH   5   4
TORSDOF 3
ENDMDL
MODEL 4
REMARK VINA RESULT:     -11.2      0.745      2.104
REMARK  Name = 
REMARK  3 active torsions:
REMARK  status: ('A' for Active; 'I' for Inactive)
REMARK    1  A    between atoms: C_2  and  C_4
REMARK    2  A    between atoms: C_4  and  C_5
REMARK    3  A    between atoms: C_7  and  C_18
REMARK                            x       y       z     vdW  Elec       q    Type
REMARK                         _______ _______ _______ _____ _____    ______ ____
ROOT
ATOM      5  C   UNL     1      -2.114   2.911  25.026  0.00  0.00    +0.095 C 
ATOM      6  N   UNL     1      -2.317   2.345  24.462  0.00  0.00    -0.207 NA
ATOM      7  C   UNL     1      -3.067   2.144  24.182  0.00  0.00    +0.154 C 
ATOM      8  C   UNL     1      -3.798   2.459  24.397  0.00  0.00    +0.055 C 
ATOM      9  C   UNL     1      -3.961   3.054  24.945  0.00  0.00    +0.000 A 
ATOM     10  C   UNL     1      -4.722   3.324  25.112  0.00  0.00    +0.095 A 
ATOM     11  N   UNL     1      -4.665   3.916  25.684  0.00  0.00    -0.244 NA
ATOM     12  C   UNL     1      -3.867   4.013  25.870  0.00  0.00    +0.081 A 
ATOM     13  C   UNL     1      -3.431   3.480  25.414  0.00  0.00    +0.013 A 
ATOM     14  C   UNL     1      -2.609   3.416  25.449  0.00  0.00    -0.005 A 
ATOM     15  C   UNL     1      -2.224   3.956  26.010  0.00  0.00    -0.003 A 
ATOM     16  C   UNL     1      -2.658   4.489  26.466  0.00  0.00    +0.001 A 
ATOM     17  C   UNL     1      -3.480   4.517  26.396  0.00  0.00    +0.019 A 
ENDROOT
BRANCH   7  18
ATOM     18  C   UNL     1      -3.088   1.548  23.611  0.00  0.00    +0.242 C 
ATOM     19  O   UNL     1      -3.038   1.741  22.812  0.00  0.00    -0.273 OA
ATOM     20  N   UNL     1      -3.159   0.758  23.842  0.00  0.00    -0.275 N 
ATOM     21  C   UNL     1      -3.180   0.163  23.272  0.00  0.00    +0.115 C 
ATOM     22  C   UNL     1      -3.251  -0.626  23.503  0.00  0.00    +0.115 C 
ATOM     23  N   UNL     1      -3.301  -0.819  24.304  0.00  0.00    -0.275 N 
ATOM     24  C   UNL     1      -3.280  -0.223  24.873  0.00  0.00    +0.115 C 
ATOM     25  C   UNL     1      -3.209   0.565  24.643  0.00  0.00    +0.115 C 
ATOM     26  C   UNL     1      -3.372  -1.608  24.534  0.00  0.00    +0.220 A 
ATOM     27  N   UNL     1      -3.393  -2.204  23.964  0.00  0.00    -0.212 NA
ATOM     28  C   UNL     1      -3.464  -2.993  24.194  0.00  0.00    +0.103 A 
ATOM     29  C   UNL     1      -3.514  -3.186  24.995  0.00  0.00    +0.041 A 
ATOM     30  C   UNL     1      -3.494  -2.590  25.565  0.00  0.00    +0.103 A 
ATOM     31  N   UNL     1      -3.422  -1.801  25.335  0.00  0.00    -0.212 NA
ENDBRANCH   7  18
BRANCH   5   4
ATOM      4  C   UNL     1      -1.308   2.981  25.188  0.00  0.00    +0.022 C 
BRANCH   4   2
ATOM      1  C   UNL     1      -0.692   3.562  24.037  0.00  0.00    +0.000 C 
ATOM      2  C   UNL     1      -0.759   2.939  24.573  0.00  0.00    +0.002 C 
ATOM      3  C   UNL     1      -0.277   2.273  24.496  0.00  0.00    +0.000 C 
ENDBRANCH   4   2
ENDBRANCH   5   4
TORSDOF 3
ENDMDL
MODEL 5
REMARK VINA RESULT:     -11.0      1.738      5.174
REMARK  Name = 
REMARK  3 active torsions:
REMARK  status: ('A' for Active; 'I' for Inactive)
REMARK    1  A    between atoms: C_2  and  C_4
REMARK    2  A    between atoms: C_4  and  C_5
REMARK    3  A    between atoms: C_7  and  C_18
REMARK                            x       y       z     vdW  Elec       q    Type
REMARK                         _______ _______ _______ _____ _____    ______ ____
ROOT
ATOM      5  C   UNL     1      -2.366  -0.964  24.989  0.00  0.00    +0.095 C 
ATOM      6  N   UNL     1      -2.449  -0.229  24.625  0.00  0.00    -0.207 NA
ATOM      7  C   UNL     1      -2.996   0.004  24.053  0.00  0.00    +0.154 C 
ATOM      8  C   UNL     1      -3.596  -0.442  23.704  0.00  0.00    +0.055 C 
ATOM      9  C   UNL     1      -3.797  -1.230  23.841  0.00  0.00    +0.000 A 
ATOM     10  C   UNL     1      -4.415  -1.616  23.453  0.00  0.00    +0.095 A 
ATOM     11  N   UNL     1      -4.447  -2.391  23.733  0.00  0.00    -0.244 NA
ATOM     12  C   UNL     1      -3.850  -2.485  24.294  0.00  0.00    +0.081 A 
ATOM     13  C   UNL     1      -3.448  -1.767  24.361  0.00  0.00    +0.013 A 
ATOM     14  C   UNL     1      -2.811  -1.648  24.872  0.00  0.00    -0.005 A 
ATOM     15  C   UNL     1      -2.586  -2.341  25.344  0.00  0.00    -0.003 A 
ATOM     16  C   UNL     1      -2.987  -3.059  25.278  0.00  0.00    +0.001 A 
ATOM     17  C   UNL     1      -3.619  -3.131  24.752  0.00  0.00    +0.019 A 
ENDROOT
BRANCH   7  18
ATOM     18  C   UNL     1      -2.935   0.786  23.796  0.00  0.00    +0.242 C 
ATOM     19  O   UNL     1      -2.388   0.986  23.212  0.00  0.00    -0.273 OA
ATOM     20  N   UNL     1      -3.421   1.367  24.124  0.00  0.00    -0.275 N 
ATOM     21  C   UNL     1      -3.359   2.148  23.868  0.00  0.00    +0.115 C 
ATOM     22  C   UNL     1      -3.845   2.729  24.196  0.00  0.00    +0.115 C 
ATOM     23  N   UNL     1      -4.392   2.528  24.780  0.00  0.00    -0.275 N 
ATOM     24  C   UNL     1      -4.452   1.747  25.036  0.00  0.00    +0.115 C 
ATOM     25  C   UNL     1      -3.967   1.166  24.709  0.00  0.00    +0.115 C 
ATOM     26  C   UNL     1      -4.877   3.109  25.108  0.00  0.00    +0.220 A 
ATOM     27  N   UNL     1      -4.816   3.891  24.852  0.00  0.00    -0.212 NA
ATOM     28  C   UNL     1      -5.302   4.472  25.179  0.00  0.00    +0.103 A 
ATOM     29  C   UNL     1      -5.848   4.271  25.764  0.00  0.00    +0.041 A 
ATOM     30  C   UNL     1      -5.909   3.489  26.021  0.00  0.00    +0.103 A 
ATOM     31  N   UNL     1      -5.423   2.908  25.693  0.00  0.00    -0.212 NA
ENDBRANCH   7  18
BRANCH   5   4
ATOM      4  C   UNL     1      -1.759  -1.022  25.544  0.00  0.00    +0.022 C 
BRANCH   4   2
ATOM      1  C   UNL     1      -0.860   0.054  25.820  0.00  0.00    +0.000 C 
ATOM      2  C   UNL     1      -1.040  -0.639  25.411  0.00  0.00    +0.002 C 
ATOM      3  C   UNL     1      -0.502  -0.950  24.867  0.00  0.00    +0.000 C 
ENDBRANCH   4   2
ENDBRANCH   5   4
TORSDOF 3
ENDMDL
MODEL 6
REMARK VINA RESULT:      -7.8     17.393     19.050
REMARK  Name = 
REMARK  3 active torsions:
REMARK  status: ('A' for Active; 'I' for Inactive)
REMARK    1  A    between atoms: C_2  and  C_4
REMARK    2  A    between atoms: C_4  and  C_5
REMARK    3  A    between atoms: C_7  and  C_18
REMARK                            x       y       z     vdW  Elec       q    Type
REMARK                         _______ _______ _______ _____ _____    ______ ____
ROOT
ATOM      5  C   UNL     1      14.882   7.969  20.990  0.00  0.00    +0.095 C 
ATOM      6  N   UNL     1      14.207   7.659  20.631  0.00  0.00    -0.207 NA
ATOM      7  C   UNL     1      14.158   7.120  20.008  0.00  0.00    +0.154 C 
ATOM      8  C   UNL     1      14.771   6.758  19.592  0.00  0.00    +0.055 C 
ATOM      9  C   UNL     1      15.585   6.845  19.695  0.00  0.00    +0.000 A 
ATOM     10  C   UNL     1      16.147   6.448  19.239  0.00  0.00    +0.095 A 
ATOM     11  N   UNL     1      16.895   6.674  19.502  0.00  0.00    -0.244 NA
ATOM     12  C   UNL     1      16.797   7.210  20.121  0.00  0.00    +0.081 A 
ATOM     13  C   UNL     1      15.987   7.316  20.240  0.00  0.00    +0.013 A 
ATOM     14  C   UNL     1      15.673   7.816  20.817  0.00  0.00    -0.005 A 
ATOM     15  C   UNL     1      16.262   8.233  21.300  0.00  0.00    -0.003 A 
ATOM     16  C   UNL     1      17.072   8.128  21.182  0.00  0.00    +0.001 A 
ATOM     17  C   UNL     1      17.339   7.616  20.591  0.00  0.00    +0.019 A 
ENDROOT
BRANCH   7  18
ATOM     18  C   UNL     1      13.394   6.916  19.770  0.00  0.00    +0.242 C 
ATOM     19  O   UNL     1      12.949   6.389  20.222  0.00  0.00    -0.273 OA
ATOM     20  N   UNL     1      13.077   7.241  19.081  0.00  0.00    -0.275 N 
ATOM     21  C   UNL     1      12.314   7.037  18.843  0.00  0.00    +0.115 C 
ATOM     22  C   UNL     1      11.997   7.362  18.154  0.00  0.00    +0.115 C 
ATOM     23  N   UNL     1      12.443   7.889  17.703  0.00  0.00    -0.275 N 
ATOM     24  C   UNL     1      13.205   8.092  17.941  0.00  0.00    +0.115 C 
ATOM     25  C   UNL     1      13.523   7.768  18.630  0.00  0.00    +0.115 C 
ATOM     26  C   UNL     1      12.125   8.213  17.014  0.00  0.00    +0.220 A 
ATOM     27  N   UNL     1      11.361   8.010  16.776  0.00  0.00    -0.212 NA
ATOM     28  C   UNL     1      11.044   8.334  16.087  0.00  0.00    +0.103 A 
ATOM     29  C   UNL     1      11.490   8.862  15.636  0.00  0.00    +0.041 A 
ATOM     30  C   UNL     1      12.254   9.065  15.874  0.00  0.00    +0.103 A 
ATOM     31  N   UNL     1      12.571   8.741  16.563  0.00  0.00    -0.212 NA
ENDBRANCH   7  18
BRANCH   5   4
ATOM      4  C   UNL     1      14.746   8.501  21.605  0.00  0.00    +0.022 C 
BRANCH   4   2
ATOM      1  C   UNL     1      13.438   8.946  21.972  0.00  0.00    +0.000 C 
ATOM      2  C   UNL     1      14.071   8.426  22.074  0.00  0.00    +0.002 C 
ATOM      3  C   UNL     1      14.029   7.832  22.645  0.00  0.00    +0.000 C 
ENDBRANCH   4   2
ENDBRANCH   5   4
TORSDOF 3
ENDMDL
