REMARK  Name = 
REMARK  8 active torsions:
REMARK  status: ('A' for Active; 'I' for Inactive)
REMARK    1  A    between atoms: N_4  and  C_22
REMARK    2  A    between atoms: C_7  and  C_8
REMARK    3  A    between atoms: C_10  and  N_11
REMARK    4  A    between atoms: C_12  and  C_14
REMARK    5  A    between atoms: C_14  and  C_15
REMARK    6  A    between atoms: C_15  and  C_16
REMARK    7  A    between atoms: C_16  and  C_17
REMARK    8  A    between atoms: C_25  and  C_28
REMARK                            x       y       z     vdW  Elec       q    Type
REMARK                         _______ _______ _______ _____ _____    ______ ____
ROOT
ATOM      1  C   UNL     1      -0.288  -6.632   0.000  0.00  0.00    +0.054 C 
ATOM      2  C   UNL     1      -0.459  -5.825   0.000  0.00  0.00    +0.077 A 
ATOM      3  N   UNL     1      -1.213  -5.490   0.000  0.00  0.00    -0.170 NA
ATOM      4  N   UNL     1      -1.127  -4.669   0.000  0.00  0.00    -0.234 N 
ATOM      5  C   UNL     1      -0.320  -4.498   0.000  0.00  0.00    +0.058 A 
ATOM      6  C   UNL     1       0.016  -3.744   0.000  0.00  0.00    +0.052 C 
ATOM      7  C   UNL     1       0.093  -5.212   0.000  0.00  0.00    +0.010 A 
ENDROOT
BRANCH   4  22
ATOM     22  C   UNL     1      -1.740  -4.117   0.000  0.00  0.00    +0.082 A 
ATOM     23  C   UNL     1      -2.524  -4.372   0.000  0.00  0.00    +0.019 A 
ATOM     24  C   UNL     1      -3.137  -3.820   0.000  0.00  0.00    +0.005 A 
ATOM     25  C   UNL     1      -2.966  -3.013   0.000  0.00  0.00    +0.072 A 
ATOM     26  C   UNL     1      -2.181  -2.758   0.000  0.00  0.00    +0.005 A 
ATOM     27  C   UNL     1      -1.568  -3.310   0.000  0.00  0.00    +0.019 A 
BRANCH  25  28
ATOM     28  C   UNL     1      -3.579  -2.461   0.000  0.00  0.00    +0.419 C 
ATOM     29  F   UNL     1      -4.192  -1.909   0.000  0.00  0.00    -0.166 F 
ATOM     30  F   UNL     1      -3.027  -1.848   0.000  0.00  0.00    -0.166 F 
ATOM     31  F   UNL     1      -4.131  -3.074   0.000  0.00  0.00    -0.166 F 
ENDBRANCH  25  28
ENDBRANCH   4  22
BRANCH   7   8
ATOM      8  C   UNL     1       0.913  -5.299   0.000  0.00  0.00    +0.048 C 
ATOM      9  C   UNL     1       1.465  -4.686   0.000  0.00  0.00    +0.035 C 
ATOM     10  C   UNL     1       2.219  -5.021   0.000  0.00  0.00    +0.118 C 
ATOM     20  C   UNL     1       2.133  -5.841   0.000  0.00  0.00    -0.009 C 
ATOM     21  C   UNL     1       1.326  -6.013   0.000  0.00  0.00    -0.025 C 
BRANCH  10  11
ATOM     11  N   UNL     1       2.933  -4.609   0.000  0.00  0.00    -0.203 NA
ATOM     12  C   UNL     1       3.648  -5.021   0.000  0.00  0.00    +0.242 C 
ATOM     13  O   UNL     1       3.648  -5.846   0.000  0.00  0.00    -0.273 OA
BRANCH  12  14
ATOM     14  C   UNL     1       4.362  -4.609   0.000  0.00  0.00    +0.087 C 
BRANCH  14  15
ATOM     15  C   UNL     1       5.077  -5.021   0.000  0.00  0.00    +0.021 C 
BRANCH  15  16
ATOM     16  C   UNL     1       5.791  -4.609   0.000  0.00  0.00    +0.115 C 
BRANCH  16  17
ATOM     17  C   UNL     1       6.506  -5.021   0.000  0.00  0.00    +0.365 C 
ATOM     18  O   UNL     1       7.220  -4.609   0.000  0.00  0.00    -0.246 OA
ATOM     19  O   UNL     1       6.506  -5.846   0.000  0.00  0.00    -0.246 OA
ENDBRANCH  16  17
ENDBRANCH  15  16
ENDBRANCH  14  15
ENDBRANCH  12  14
ENDBRANCH  10  11
ENDBRANCH   7   8
TORSDOF 8
