MODEL 1
REMARK VINA RESULT:     -12.5      0.000      0.000
REMARK  Name = 
REMARK  4 active torsions:
REMARK  status: ('A' for Active; 'I' for Inactive)
REMARK    1  A    between atoms: C_2  and  C_5
REMARK    2  A    between atoms: C_8  and  O_9
REMARK    3  A    between atoms: O_9  and  C_10
REMARK    4  A    between atoms: C_17  and  C_19
REMARK                            x       y       z     vdW  Elec       q    Type
REMARK                         _______ _______ _______ _____ _____    ______ ____
ROOT
ATOM     10  C   UNL     1      -3.140   0.980  24.682  0.00  0.00    +0.215 C 
ATOM     11  C   UNL     1      -2.491   0.772  24.217  0.00  0.00    +0.187 C 
ATOM     12  O   UNL     1      -2.133   1.202  23.610  0.00  0.00    -0.348 OA
ATOM     13  C   UNL     1      -2.337   1.947  23.320  0.00  0.00    +0.164 C 
ATOM     14  C   UNL     1      -2.947   2.446  23.563  0.00  0.00    +0.126 C 
ATOM     15  N   UNL     1      -3.505   2.322  24.158  0.00  0.00    -0.273 N 
ATOM     16  C   UNL     1      -3.591   1.670  24.656  0.00  0.00    +0.139 C 
ATOM     17  C   UNL     1      -4.051   2.932  24.269  0.00  0.00    +0.225 C 
ATOM     18  O   UNL     1      -4.013   3.609  23.800  0.00  0.00    -0.275 OA
ENDROOT
BRANCH  17  19
ATOM     19  C   UNL     1      -4.632   2.864  24.850  0.00  0.00    +0.077 C 
ATOM     20  C   UNL     1      -4.690   3.074  25.645  0.00  0.00    +0.009 C 
ATOM     21  C   UNL     1      -5.456   2.768  25.672  0.00  0.00    +0.001 C 
ATOM     22  C   UNL     1      -5.398   2.558  24.875  0.00  0.00    +0.009 C 
ENDBRANCH  17  19
BRANCH  10   9
ATOM      9  O   UNL     1      -3.367   0.425  25.248  0.00  0.00    -0.475 OA
BRANCH   9   8
ATOM      5  C   UNL     1      -3.681  -1.943  24.602  0.00  0.00    +0.072 A 
ATOM      6  C   UNL     1      -4.219  -1.372  24.347  0.00  0.00    +0.007 A 
ATOM      7  C   UNL     1      -4.114  -0.582  24.563  0.00  0.00    +0.037 A 
ATOM      8  C   UNL     1      -3.472  -0.364  25.033  0.00  0.00    +0.139 A 
ATOM     23  C   UNL     1      -2.935  -0.937  25.287  0.00  0.00    +0.037 A 
ATOM     24  C   UNL     1      -3.040  -1.726  25.071  0.00  0.00    +0.007 A 
BRANCH   5   2
ATOM      1  F   UNL     1      -3.891  -3.523  24.171  0.00  0.00    -0.166 F 
ATOM      2  C   UNL     1      -3.786  -2.732  24.386  0.00  0.00    +0.419 C 
ATOM      3  F   UNL     1      -3.576  -2.969  25.148  0.00  0.00    -0.166 F 
ATOM      4  F   UNL     1      -3.997  -2.497  23.624  0.00  0.00    -0.166 F 
ENDBRANCH   5   2
ENDBRANCH   9   8
ENDBRANCH  10   9
TORSDOF 4
ENDMDL
MODEL 2
REMARK VINA RESULT:     -12.2      1.309      2.135
REMARK  Name = 
REMARK  4 active torsions:
REMARK  status: ('A' for Active; 'I' for Inactive)
REMARK    1  A    between atoms: C_2  and  C_5
REMARK    2  A    between atoms: C_8  and  O_9
REMARK    3  A    between atoms: O_9  and  C_10
REMARK    4  A    between atoms: C_17  and  C_19
REMARK                            x       y       z     vdW  Elec       q    Type
REMARK                         _______ _______ _______ _____ _____    ______ ____
ROOT
ATOM     10  C   UNL     1      -4.042   1.576  24.663  0.00  0.00    +0.215 C 
ATOM     11  C   UNL     1      -4.835   1.354  24.709  0.00  0.00    +0.187 C 
ATOM     12  O   UNL     1      -5.466   1.762  25.050  0.00  0.00    -0.348 OA
ATOM     13  C   UNL     1      -5.458   2.494  25.431  0.00  0.00    +0.164 C 
ATOM     14  C   UNL     1      -4.818   2.998  25.564  0.00  0.00    +0.126 C 
ATOM     15  N   UNL     1      -4.029   2.895  25.349  0.00  0.00    -0.273 N 
ATOM     16  C   UNL     1      -3.683   2.262  24.948  0.00  0.00    +0.139 C 
ATOM     17  C   UNL     1      -3.517   3.506  25.563  0.00  0.00    +0.225 C 
ATOM     18  O   UNL     1      -3.807   4.164  25.966  0.00  0.00    -0.275 OA
ENDROOT
BRANCH  17  19
ATOM     19  C   UNL     1      -2.715   3.457  25.375  0.00  0.00    +0.077 C 
ATOM     20  C   UNL     1      -2.264   3.614  24.703  0.00  0.00    +0.009 C 
ATOM     21  C   UNL     1      -1.581   3.389  25.108  0.00  0.00    +0.001 C 
ATOM     22  C   UNL     1      -2.033   3.231  25.781  0.00  0.00    +0.009 C 
ENDBRANCH  17  19
BRANCH  10   9
ATOM      9  O   UNL     1      -3.542   1.042  24.282  0.00  0.00    -0.475 OA
BRANCH   9   8
ATOM      5  C   UNL     1      -3.568  -1.349  24.922  0.00  0.00    +0.072 A 
ATOM      6  C   UNL     1      -3.139  -0.806  25.372  0.00  0.00    +0.007 A 
ATOM      7  C   UNL     1      -3.130  -0.010  25.159  0.00  0.00    +0.037 A 
ATOM      8  C   UNL     1      -3.550   0.245  24.496  0.00  0.00    +0.139 A 
ATOM     23  C   UNL     1      -3.979  -0.298  24.046  0.00  0.00    +0.037 A 
ATOM     24  C   UNL     1      -3.988  -1.095  24.260  0.00  0.00    +0.007 A 
BRANCH   5   2
ATOM      1  F   UNL     1      -3.585  -2.942  25.351  0.00  0.00    -0.166 F 
ATOM      2  C   UNL     1      -3.576  -2.145  25.136  0.00  0.00    +0.419 C 
ATOM      3  F   UNL     1      -3.595  -1.931  25.933  0.00  0.00    -0.166 F 
ATOM      4  F   UNL     1      -3.558  -2.360  24.340  0.00  0.00    -0.166 F 
ENDBRANCH   5   2
ENDBRANCH   9   8
ENDBRANCH  10   9
TORSDOF 4
ENDMDL
MODEL 3
REMARK VINA RESULT:     -11.8      2.524      4.373
REMARK  Name = 
REMARK  4 active torsions:
REMARK  status: ('A' for Active; 'I' for Inactive)
REMARK    1  A    between atoms: C_2  and  C_5
REMARK    2  A    between atoms: C_8  and  O_9
REMARK    3  A    between atoms: O_9  and  C_10
REMARK    4  A    between atoms: C_17  and  C_19
REMARK                            x       y       z     vdW  Elec       q    Type
REMARK                         _______ _______ _______ _____ _____    ______ ____
ROOT
ATOM     10  C   UNL     1      -2.858   0.331  24.318  0.00  0.00    +0.215 C 
ATOM     11  C   UNL     1      -2.348   0.977  24.379  0.00  0.00    +0.187 C 
ATOM     12  O   UNL     1      -1.567   0.993  24.644  0.00  0.00    -0.348 OA
ATOM     13  C   UNL     1      -1.103   0.367  24.914  0.00  0.00    +0.164 C 
ATOM     14  C   UNL     1      -1.305  -0.430  24.985  0.00  0.00    +0.126 C 
ATOM     15  N   UNL     1      -2.021  -0.797  24.804  0.00  0.00    -0.273 N 
ATOM     16  C   UNL     1      -2.712  -0.458  24.507  0.00  0.00    +0.139 C 
ATOM     17  C   UNL     1      -2.050  -1.611  24.938  0.00  0.00    +0.225 C 
ATOM     18  O   UNL     1      -1.388  -2.004  25.235  0.00  0.00    -0.275 OA
ENDROOT
BRANCH  17  19
ATOM     19  C   UNL     1      -2.741  -2.032  24.775  0.00  0.00    +0.077 C 
ATOM     20  C   UNL     1      -3.062  -2.388  24.105  0.00  0.00    +0.009 C 
ATOM     21  C   UNL     1      -3.718  -2.627  24.545  0.00  0.00    +0.001 C 
ATOM     22  C   UNL     1      -3.396  -2.269  25.216  0.00  0.00    +0.009 C 
ENDBRANCH  17  19
BRANCH  10   9
ATOM      9  O   UNL     1      -3.613   0.497  24.030  0.00  0.00    -0.475 OA
BRANCH   9   8
ATOM      5  C   UNL     1      -4.975   2.275  25.082  0.00  0.00    +0.072 A 
ATOM      6  C   UNL     1      -4.471   2.458  24.455  0.00  0.00    +0.007 A 
ATOM      7  C   UNL     1      -4.017   1.866  24.105  0.00  0.00    +0.037 A 
ATOM      8  C   UNL     1      -4.067   1.089  24.380  0.00  0.00    +0.139 A 
ATOM     23  C   UNL     1      -4.572   0.907  25.007  0.00  0.00    +0.037 A 
ATOM     24  C   UNL     1      -5.026   1.500  25.357  0.00  0.00    +0.007 A 
BRANCH   5   2
ATOM      1  F   UNL     1      -5.885   3.461  25.782  0.00  0.00    -0.166 F 
ATOM      2  C   UNL     1      -5.429   2.868  25.432  0.00  0.00    +0.419 C 
ATOM      3  F   UNL     1      -6.097   2.594  25.030  0.00  0.00    -0.166 F 
ATOM      4  F   UNL     1      -4.763   3.142  25.834  0.00  0.00    -0.166 F 
ENDBRANCH   5   2
ENDBRANCH   9   8
ENDBRANCH  10   9
TORSDOF 4
ENDMDL
