MODEL 1
REMARK VINA RESULT:     -11.7      0.000      0.000
REMARK  Name = 
REMARK  9 active torsions:
REMARK  status: ('A' for Active; 'I' for Inactive)
REMARK    1  A    between atoms: N_2  and  C_3
REMARK    2  A    between atoms: N_2  and  C_22
REMARK    3  A    between atoms: C_3  and  C_4
REMARK    4  A    between atoms: C_6  and  C_7
REMARK    5  A    between atoms: C_7  and  C_8
REMARK    6  A    between atoms: C_8  and  N_12
REMARK    7  A    between atoms: N_12  and  C_13
REMARK    8  A    between atoms: C_13  and  C_14
REMARK    9  A    between atoms: C_22  and  C_23
REMARK                            x       y       z     vdW  Elec       q    Type
REMARK                         _______ _______ _______ _____ _____    ______ ____
ROOT
ATOM      4  C   UNL     1      -4.288   1.160  24.319  0.00  0.00    +0.170 A 
ATOM      5  C   UNL     1      -3.883   1.879  24.291  0.00  0.00    +0.055 A 
ATOM      6  C   UNL     1      -4.378   2.462  24.600  0.00  0.00    +0.102 A 
ATOM     20  N   UNL     1      -5.088   2.105  24.819  0.00  0.00    -0.082 NA
ATOM     21  O   UNL     1      -5.033   1.300  24.646  0.00  0.00    -0.357 OA
ENDROOT
BRANCH   4   3
ATOM      3  C   UNL     1      -3.998   0.431  24.065  0.00  0.00    +0.141 C 
BRANCH   3   2
ATOM      1  C   UNL     1      -2.882   0.016  24.855  0.00  0.00    +0.090 C 
ATOM      2  N   UNL     1      -3.662  -0.092  24.608  0.00  0.00    -0.261 NA
BRANCH   2  22
ATOM     22  C   UNL     1      -4.106  -0.721  24.904  0.00  0.00    +0.100 C 
BRANCH  22  23
ATOM     23  C   UNL     1      -3.911  -1.496  24.699  0.00  0.00    -0.006 A 
ATOM     24  C   UNL     1      -3.439  -1.948  25.203  0.00  0.00    -0.003 A 
ATOM     25  C   UNL     1      -3.244  -2.724  24.999  0.00  0.00    -0.000 A 
ATOM     26  C   UNL     1      -3.522  -3.047  24.292  0.00  0.00    -0.000 A 
ATOM     27  C   UNL     1      -3.994  -2.594  23.789  0.00  0.00    -0.000 A 
ATOM     28  C   UNL     1      -4.188  -1.819  23.992  0.00  0.00    -0.003 A 
ENDBRANCH  22  23
ENDBRANCH   2  22
ENDBRANCH   3   2
ENDBRANCH   4   3
BRANCH   6   7
ATOM      7  C   UNL     1      -4.194   3.263  24.676  0.00  0.00    +0.070 C 
BRANCH   7   8
ATOM      8  C   UNL     1      -4.100   3.594  25.425  0.00  0.00    +0.119 C 
ATOM      9  C   UNL     1      -4.005   3.926  26.176  0.00  0.00    +0.161 C 
ATOM     10  O   UNL     1      -4.825   3.951  26.267  0.00  0.00    -0.351 OA
ATOM     11  C   UNL     1      -4.919   3.620  25.518  0.00  0.00    +0.161 C 
BRANCH   8  12
ATOM     12  N   UNL     1      -3.280   3.569  25.334  0.00  0.00    -0.215 NA
BRANCH  12  13
ATOM     13  C   UNL     1      -2.811   4.164  25.662  0.00  0.00    +0.089 C 
BRANCH  13  14
ATOM     14  C   UNL     1      -2.016   4.224  25.450  0.00  0.00    +0.017 C 
ATOM     15  C   UNL     1      -1.739   4.908  25.081  0.00  0.00    +0.001 C 
ATOM     16  C   UNL     1      -0.944   4.969  24.870  0.00  0.00    +0.000 C 
ATOM     17  C   UNL     1      -0.426   4.347  25.027  0.00  0.00    +0.000 C 
ATOM     18  C   UNL     1      -0.703   3.663  25.396  0.00  0.00    +0.000 C 
ATOM     19  C   UNL     1      -1.498   3.602  25.607  0.00  0.00    +0.001 C 
ENDBRANCH  13  14
ENDBRANCH  12  13
ENDBRANCH   8  12
ENDBRANCH   7   8
ENDBRANCH   6   7
TORSDOF 9
ENDMDL
MODEL 2
REMARK VINA RESULT:     -10.7      1.748      3.000
REMARK  Name = 
REMARK  9 active torsions:
REMARK  status: ('A' for Active; 'I' for Inactive)
REMARK    1  A    between atoms: N_2  and  C_3
REMARK    2  A    between atoms: N_2  and  C_22
REMARK    3  A    between atoms: C_3  and  C_4
REMARK    4  A    between atoms: C_6  and  C_7
REMARK    5  A    between atoms: C_7  and  C_8
REMARK    6  A    between atoms: C_8  and  N_12
REMARK    7  A    between atoms: N_12  and  C_13
REMARK    8  A    between atoms: C_13  and  C_14
REMARK    9  A    between atoms: C_22  and  C_23
REMARK                            x       y       z     vdW  Elec       q    Type
REMARK                         _______ _______ _______ _____ _____    ______ ____
ROOT
ATOM      4  C   UNL     1      -1.049   0.449  25.407  0.00  0.00    +0.170 A 
ATOM      5  C   UNL     1      -1.435   1.092  25.753  0.00  0.00    +0.055 A 
ATOM      6  C   UNL     1      -0.998   1.772  25.584  0.00  0.00    +0.102 A 
ATOM     20  N   UNL     1      -0.344   1.550  25.134  0.00  0.00    -0.082 NA
ATOM     21  O   UNL     1      -0.375   0.733  25.024  0.00  0.00    -0.357 OA
ENDROOT
BRANCH   4   3
ATOM      3  C   UNL     1      -1.295  -0.337  25.438  0.00  0.00    +0.141 C 
BRANCH   3   2
ATOM      1  C   UNL     1      -1.673  -0.773  24.131  0.00  0.00    +0.090 C 
ATOM      2  N   UNL     1      -1.872  -0.611  24.915  0.00  0.00    -0.261 NA
BRANCH   2  22
ATOM     22  C   UNL     1      -2.646  -0.721  25.176  0.00  0.00    +0.100 C 
BRANCH  22  23
ATOM     23  C   UNL     1      -3.124  -1.294  24.823  0.00  0.00    -0.006 A 
ATOM     24  C   UNL     1      -3.716  -1.067  24.294  0.00  0.00    -0.003 A 
ATOM     25  C   UNL     1      -4.194  -1.639  23.941  0.00  0.00    -0.000 A 
ATOM     26  C   UNL     1      -4.080  -2.438  24.117  0.00  0.00    -0.000 A 
ATOM     27  C   UNL     1      -3.487  -2.664  24.645  0.00  0.00    -0.000 A 
ATOM     28  C   UNL     1      -3.010  -2.092  24.998  0.00  0.00    -0.003 A 
ENDBRANCH  22  23
ENDBRANCH   2  22
ENDBRANCH   3   2
ENDBRANCH   4   3
BRANCH   6   7
ATOM      7  C   UNL     1      -1.184   2.539  25.824  0.00  0.00    +0.070 C 
BRANCH   7   8
ATOM      8  C   UNL     1      -1.281   3.134  25.261  0.00  0.00    +0.119 C 
ATOM      9  C   UNL     1      -1.379   3.730  24.698  0.00  0.00    +0.161 C 
ATOM     10  O   UNL     1      -0.579   3.923  24.765  0.00  0.00    -0.351 OA
ATOM     11  C   UNL     1      -0.482   3.327  25.327  0.00  0.00    +0.161 C 
BRANCH   8  12
ATOM     12  N   UNL     1      -2.081   2.941  25.195  0.00  0.00    -0.215 NA
BRANCH  12  13
ATOM     13  C   UNL     1      -2.639   3.537  25.070  0.00  0.00    +0.089 C 
BRANCH  13  14
ATOM     14  C   UNL     1      -3.443   3.352  25.059  0.00  0.00    +0.017 C 
ATOM     15  C   UNL     1      -3.928   3.588  25.684  0.00  0.00    +0.001 C 
ATOM     16  C   UNL     1      -4.732   3.403  25.673  0.00  0.00    +0.000 C 
ATOM     17  C   UNL     1      -5.051   2.983  25.040  0.00  0.00    +0.000 C 
ATOM     18  C   UNL     1      -4.566   2.747  24.415  0.00  0.00    +0.000 C 
ATOM     19  C   UNL     1      -3.761   2.932  24.426  0.00  0.00    +0.001 C 
ENDBRANCH  13  14
ENDBRANCH  12  13
ENDBRANCH   8  12
ENDBRANCH   7   8
ENDBRANCH   6   7
TORSDOF 9
ENDMDL
