MODEL 1
REMARK VINA RESULT:      -9.5      0.000      0.000
REMARK  Name = 
REMARK  6 active torsions:
REMARK  status: ('A' for Active; 'I' for Inactive)
REMARK    1  A    between atoms: O_2  and  C_3
REMARK    2  A    between atoms: C_3  and  C_4
REMARK    3  A    between atoms: C_4  and  N_5
REMARK    4  A    between atoms: N_9  and  C_10
REMARK    5  A    between atoms: C_10  and  C_11
REMARK    6  A    between atoms: C_14  and  C_17
REMARK                            x       y       z     vdW  Elec       q    Type
REMARK                         _______ _______ _______ _____ _____    ______ ____
ROOT
ATOM      5  N   UNL     1      -2.978   3.352  24.660  0.00  0.00    -0.260 N 
ATOM      6  C   UNL     1      -2.876   2.687  25.138  0.00  0.00    +0.116 C 
ATOM      7  C   UNL     1      -3.513   2.180  25.009  0.00  0.00    +0.113 C 
ATOM      8  C   UNL     1      -3.707   1.444  25.327  0.00  0.00    +0.094 C 
ATOM      9  N   UNL     1      -4.396   1.059  25.088  0.00  0.00    -0.266 NA
ATOM     20  C   UNL     1      -4.892   1.410  24.531  0.00  0.00    +0.094 C 
ATOM     21  C   UNL     1      -4.700   2.146  24.212  0.00  0.00    +0.112 C 
ATOM     22  N   UNL     1      -4.010   2.531  24.451  0.00  0.00    -0.261 N 
ATOM     23  C   UNL     1      -3.679   3.255  24.236  0.00  0.00    +0.307 C 
ATOM     24  O   UNL     1      -3.994   3.789  23.691  0.00  0.00    -0.252 OA
ENDROOT
BRANCH   5   4
ATOM      4  C   UNL     1      -2.469   3.999  24.614  0.00  0.00    +0.127 C 
BRANCH   4   3
ATOM      3  C   UNL     1      -1.831   4.060  25.133  0.00  0.00    +0.164 C 
BRANCH   3   2
ATOM      1  C   UNL     1      -0.716   4.936  24.958  0.00  0.00    +0.174 C 
ATOM      2  O   UNL     1      -1.470   4.791  25.260  0.00  0.00    -0.349 OA
ENDBRANCH   3   2
ENDBRANCH   4   3
ENDBRANCH   5   4
BRANCH   9  10
ATOM     10  C   UNL     1      -4.590   0.322  25.407  0.00  0.00    +0.099 C 
BRANCH  10  11
ATOM     11  C   UNL     1      -4.203  -0.356  25.142  0.00  0.00    -0.006 A 
ATOM     12  C   UNL     1      -4.374  -0.665  24.396  0.00  0.00    -0.003 A 
ATOM     13  C   UNL     1      -3.988  -1.344  24.132  0.00  0.00    +0.006 A 
ATOM     14  C   UNL     1      -3.430  -1.714  24.613  0.00  0.00    +0.080 A 
ATOM     15  C   UNL     1      -3.258  -1.407  25.359  0.00  0.00    +0.006 A 
ATOM     16  C   UNL     1      -3.645  -0.727  25.624  0.00  0.00    -0.003 A 
BRANCH  14  17
ATOM     17  C   UNL     1      -3.043  -2.394  24.349  0.00  0.00    +0.388 C 
ATOM     18  O   UNL     1      -2.226  -2.385  24.236  0.00  0.00    -0.241 OA
ATOM     19  O   UNL     1      -3.473  -3.082  24.198  0.00  0.00    -0.241 OA
ENDBRANCH  14  17
ENDBRANCH  10  11
ENDBRANCH   9  10
TORSDOF 6
ENDMDL
MODEL 2
REMARK VINA RESULT:      -9.5      2.165      2.748
REMARK  Name = 
REMARK  6 active torsions:
REMARK  status: ('A' for Active; 'I' for Inactive)
REMARK    1  A    between atoms: O_2  and  C_3
REMARK    2  A    between atoms: C_3  and  C_4
REMARK    3  A    between atoms: C_4  and  N_5
REMARK    4  A    between atoms: N_9  and  C_10
REMARK    5  A    between atoms: C_10  and  C_11
REMARK    6  A    between atoms: C_14  and  C_17
REMARK                            x       y       z     vdW  Elec       q    Type
REMARK                         _______ _______ _______ _____ _____    ______ ____
ROOT
ATOM      5  N   UNL     1      -0.465   2.410  24.907  0.00  0.00    -0.260 N 
ATOM      6  C   UNL     1      -0.999   2.029  25.408  0.00  0.00    +0.116 C 
ATOM      7  C   UNL     1      -0.919   1.217  25.294  0.00  0.00    +0.113 C 
ATOM      8  C   UNL     1      -1.302   0.571  25.637  0.00  0.00    +0.094 C 
ATOM      9  N   UNL     1      -1.103  -0.196  25.409  0.00  0.00    -0.266 NA
ATOM     20  C   UNL     1      -0.520  -0.318  24.837  0.00  0.00    +0.094 C 
ATOM     21  C   UNL     1      -0.137   0.327  24.494  0.00  0.00    +0.112 C 
ATOM     22  N   UNL     1      -0.337   1.095  24.723  0.00  0.00    -0.261 N 
ATOM     23  C   UNL     1      -0.056   1.832  24.484  0.00  0.00    +0.307 C 
ATOM     24  O   UNL     1       0.530   1.969  23.919  0.00  0.00    -0.252 OA
ENDROOT
BRANCH   5   4
ATOM      4  C   UNL     1      -0.359   3.226  24.841  0.00  0.00    +0.127 C 
BRANCH   4   3
ATOM      3  C   UNL     1      -0.938   3.741  25.123  0.00  0.00    +0.164 C 
BRANCH   3   2
ATOM      1  C   UNL     1      -1.446   5.077  25.134  0.00  0.00    +0.174 C 
ATOM      2  O   UNL     1      -0.806   4.556  25.112  0.00  0.00    -0.349 OA
ENDBRANCH   3   2
ENDBRANCH   4   3
ENDBRANCH   5   4
BRANCH   9  10
ATOM     10  C   UNL     1      -1.485  -0.842  25.751  0.00  0.00    +0.099 C 
BRANCH  10  11
ATOM     11  C   UNL     1      -2.106  -1.212  25.355  0.00  0.00    -0.006 A 
ATOM     12  C   UNL     1      -1.952  -1.839  24.841  0.00  0.00    -0.003 A 
ATOM     13  C   UNL     1      -2.573  -2.209  24.444  0.00  0.00    +0.006 A 
ATOM     14  C   UNL     1      -3.348  -1.953  24.562  0.00  0.00    +0.080 A 
ATOM     15  C   UNL     1      -3.503  -1.326  25.075  0.00  0.00    +0.006 A 
ATOM     16  C   UNL     1      -2.881  -0.956  25.472  0.00  0.00    -0.003 A 
BRANCH  14  17
ATOM     17  C   UNL     1      -3.970  -2.323  24.165  0.00  0.00    +0.388 C 
ATOM     18  O   UNL     1      -4.004  -3.147  24.130  0.00  0.00    -0.241 OA
ATOM     19  O   UNL     1      -4.558  -1.870  23.804  0.00  0.00    -0.241 OA
ENDBRANCH  14  17
ENDBRANCH  10  11
ENDBRANCH   9  10
TORSDOF 6
ENDMDL
MODEL 3
REMARK VINA RESULT:      -9.1      2.923      4.182
REMARK  Name = 
REMARK  6 active torsions:
REMARK  status: ('A' for Active; 'I' for Inactive)
REMARK    1  A    between atoms: O_2  and  C_3
REMARK    2  A    between atoms: C_3  and  C_4
REMARK    3  A    between atoms: C_4  and  N_5
REMARK    4  A    between atoms: N_9  and  C_10
REMARK    5  A    between atoms: C_10  and  C_11
REMARK    6  A    between atoms: C_14  and  C_17
REMARK                            x       y       z     vdW  Elec       q    Type
REMARK                         _______ _______ _______ _____ _____    ______ ____
ROOT
ATOM      5  N   UNL     1      -0.297   2.018  24.544  0.00  0.00    -0.260 N 
ATOM      6  C   UNL     1      -0.979   2.140  24.094  0.00  0.00    +0.116 C 
ATOM      7  C   UNL     1      -1.474   2.645  24.517  0.00  0.00    +0.113 C 
ATOM      8  C   UNL     1      -2.219   2.958  24.347  0.00  0.00    +0.094 C 
ATOM      9  N   UNL     1      -2.589   3.460  24.887  0.00  0.00    -0.266 NA
ATOM     20  C   UNL     1      -2.214   3.650  25.597  0.00  0.00    +0.094 C 
ATOM     21  C   UNL     1      -1.470   3.338  25.767  0.00  0.00    +0.112 C 
ATOM     22  N   UNL     1      -1.100   2.836  25.227  0.00  0.00    -0.261 N 
ATOM     23  C   UNL     1      -0.372   2.448  25.243  0.00  0.00    +0.307 C 
ATOM     24  O   UNL     1       0.183   2.483  25.853  0.00  0.00    -0.252 OA
ENDROOT
BRANCH   5   4
ATOM      4  C   UNL     1       0.347   1.548  24.330  0.00  0.00    +0.127 C 
BRANCH   4   3
ATOM      3  C   UNL     1       0.246   0.928  23.795  0.00  0.00    +0.164 C 
BRANCH   3   2
ATOM      1  C   UNL     1       0.803  -0.180  23.086  0.00  0.00    +0.174 C 
ATOM      2  O   UNL     1       0.903   0.528  23.498  0.00  0.00    -0.349 OA
ENDBRANCH   3   2
ENDBRANCH   4   3
ENDBRANCH   5   4
BRANCH   9  10
ATOM     10  C   UNL     1      -3.334   3.772  24.717  0.00  0.00    +0.099 C 
BRANCH  10  11
ATOM     11  C   UNL     1      -4.013   3.339  24.894  0.00  0.00    -0.006 A 
ATOM     12  C   UNL     1      -4.400   3.454  25.613  0.00  0.00    -0.003 A 
ATOM     13  C   UNL     1      -5.079   3.021  25.790  0.00  0.00    +0.006 A 
ATOM     14  C   UNL     1      -5.372   2.473  25.247  0.00  0.00    +0.080 A 
ATOM     15  C   UNL     1      -4.986   2.358  24.527  0.00  0.00    +0.006 A 
ATOM     16  C   UNL     1      -4.306   2.792  24.351  0.00  0.00    -0.003 A 
BRANCH  14  17
ATOM     17  C   UNL     1      -6.052   2.040  25.424  0.00  0.00    +0.388 C 
ATOM     18  O   UNL     1      -6.214   1.828  26.204  0.00  0.00    -0.241 OA
ATOM     19  O   UNL     1      -6.570   1.820  24.820  0.00  0.00    -0.241 OA
ENDBRANCH  14  17
ENDBRANCH  10  11
ENDBRANCH   9  10
TORSDOF 6
ENDMDL
MODEL 4
REMARK VINA RESULT:      -8.9      2.379      4.391
REMARK  Name = 
REMARK  6 active torsions:
REMARK  status: ('A' for Active; 'I' for Inactive)
REMARK    1  A    between atoms: O_2  and  C_3
REMARK    2  A    between atoms: C_3  and  C_4
REMARK    3  A    between atoms: C_4  and  N_5
REMARK    4  A    between atoms: N_9  and  C_10
REMARK    5  A    between atoms: C_10  and  C_11
REMARK    6  A    between atoms: C_14  and  C_17
REMARK                            x       y       z     vdW  Elec       q    Type
REMARK                         _______ _______ _______ _____ _____    ______ ____
ROOT
ATOM      5  N   UNL     1      -1.011  -0.364  24.480  0.00  0.00    -0.260 N 
ATOM      6  C   UNL     1      -1.538   0.095  24.041  0.00  0.00    +0.116 C 
ATOM      7  C   UNL     1      -2.287   0.013  24.378  0.00  0.00    +0.113 C 
ATOM      8  C   UNL     1      -3.019   0.337  24.179  0.00  0.00    +0.094 C 
ATOM      9  N   UNL     1      -3.687   0.152  24.626  0.00  0.00    -0.266 NA
ATOM     20  C   UNL     1      -3.622  -0.357  25.273  0.00  0.00    +0.094 C 
ATOM     21  C   UNL     1      -2.890  -0.680  25.472  0.00  0.00    +0.112 C 
ATOM     22  N   UNL     1      -2.222  -0.495  25.024  0.00  0.00    -0.261 N 
ATOM     23  C   UNL     1      -1.434  -0.728  25.087  0.00  0.00    +0.307 C 
ATOM     24  O   UNL     1      -1.122  -1.237  25.658  0.00  0.00    -0.252 OA
ENDROOT
BRANCH   5   4
ATOM      4  C   UNL     1      -0.202  -0.444  24.337  0.00  0.00    +0.127 C 
BRANCH   4   3
ATOM      3  C   UNL     1       0.116  -0.197  23.617  0.00  0.00    +0.164 C 
BRANCH   3   2
ATOM      1  C   UNL     1       1.266  -0.024  22.787  0.00  0.00    +0.174 C 
ATOM      2  O   UNL     1       0.887  -0.407  23.412  0.00  0.00    -0.349 OA
ENDBRANCH   3   2
ENDBRANCH   4   3
ENDBRANCH   5   4
BRANCH   9  10
ATOM     10  C   UNL     1      -4.420   0.475  24.428  0.00  0.00    +0.099 C 
BRANCH  10  11
ATOM     11  C   UNL     1      -4.633   1.219  24.711  0.00  0.00    -0.006 A 
ATOM     12  C   UNL     1      -4.381   1.899  24.317  0.00  0.00    -0.003 A 
ATOM     13  C   UNL     1      -4.594   2.643  24.600  0.00  0.00    +0.006 A 
ATOM     14  C   UNL     1      -5.061   2.709  25.277  0.00  0.00    +0.080 A 
ATOM     15  C   UNL     1      -5.314   2.030  25.671  0.00  0.00    +0.006 A 
ATOM     16  C   UNL     1      -5.100   1.285  25.388  0.00  0.00    -0.003 A 
BRANCH  14  17
ATOM     17  C   UNL     1      -5.275   3.454  25.561  0.00  0.00    +0.388 C 
ATOM     18  O   UNL     1      -4.696   4.028  25.689  0.00  0.00    -0.241 OA
ATOM     19  O   UNL     1      -6.067   3.625  25.716  0.00  0.00    -0.241 OA
ENDBRANCH  14  17
ENDBRANCH  10  11
ENDBRANCH   9  10
TORSDOF 6
ENDMDL
MODEL 5
REMARK VINA RESULT:      -8.9      2.342      5.719
REMARK  Name = 
REMARK  6 active torsions:
REMARK  status: ('A' for Active; 'I' for Inactive)
REMARK    1  A    between atoms: O_2  and  C_3
REMARK    2  A    between atoms: C_3  and  C_4
REMARK    3  A    between atoms: C_4  and  N_5
REMARK    4  A    between atoms: N_9  and  C_10
REMARK    5  A    between atoms: C_10  and  C_11
REMARK    6  A    between atoms: C_14  and  C_17
REMARK                            x       y       z     vdW  Elec       q    Type
REMARK                         _______ _______ _______ _____ _____    ______ ____
ROOT
ATOM      5  N   UNL     1      -1.176  -0.936  24.724  0.00  0.00    -0.260 N 
ATOM      6  C   UNL     1      -1.315  -0.426  25.359  0.00  0.00    +0.116 C 
ATOM      7  C   UNL     1      -0.864   0.255  25.241  0.00  0.00    +0.113 C 
ATOM      8  C   UNL     1      -0.779   0.945  25.686  0.00  0.00    +0.094 C 
ATOM      9  N   UNL     1      -0.278   1.545  25.425  0.00  0.00    -0.266 NA
ATOM     20  C   UNL     1       0.139   1.456  24.719  0.00  0.00    +0.094 C 
ATOM     21  C   UNL     1       0.055   0.767  24.274  0.00  0.00    +0.112 C 
ATOM     22  N   UNL     1      -0.447   0.166  24.535  0.00  0.00    -0.261 N 
ATOM     23  C   UNL     1      -0.640  -0.570  24.216  0.00  0.00    +0.307 C 
ATOM     24  O   UNL     1      -0.347  -0.885  23.511  0.00  0.00    -0.252 OA
ENDROOT
BRANCH   5   4
ATOM      4  C   UNL     1      -1.515  -1.680  24.618  0.00  0.00    +0.127 C 
BRANCH   4   3
ATOM      3  C   UNL     1      -2.307  -1.805  24.811  0.00  0.00    +0.164 C 
BRANCH   3   2
ATOM      1  C   UNL     1      -3.463  -2.637  24.692  0.00  0.00    +0.174 C 
ATOM      2  O   UNL     1      -2.642  -2.553  24.717  0.00  0.00    -0.349 OA
ENDBRANCH   3   2
ENDBRANCH   4   3
ENDBRANCH   5   4
BRANCH   9  10
ATOM     10  C   UNL     1      -0.193   2.235  25.870  0.00  0.00    +0.099 C 
BRANCH  10  11
ATOM     11  C   UNL     1      -0.638   2.903  25.685  0.00  0.00    -0.006 A 
ATOM     12  C   UNL     1      -1.383   3.010  26.023  0.00  0.00    -0.003 A 
ATOM     13  C   UNL     1      -1.829   3.678  25.838  0.00  0.00    +0.006 A 
ATOM     14  C   UNL     1      -1.530   4.241  25.313  0.00  0.00    +0.080 A 
ATOM     15  C   UNL     1      -0.786   4.135  24.974  0.00  0.00    +0.006 A 
ATOM     16  C   UNL     1      -0.340   3.465  25.160  0.00  0.00    -0.003 A 
BRANCH  14  17
ATOM     17  C   UNL     1      -1.976   4.910  25.127  0.00  0.00    +0.388 C 
ATOM     18  O   UNL     1      -2.766   4.830  24.904  0.00  0.00    -0.241 OA
ATOM     19  O   UNL     1      -1.632   5.659  25.165  0.00  0.00    -0.241 OA
ENDBRANCH  14  17
ENDBRANCH  10  11
ENDBRANCH   9  10
TORSDOF 6
ENDMDL
MODEL 6
REMARK VINA RESULT:      -8.8      2.366      4.641
REMARK  Name = 
REMARK  6 active torsions:
REMARK  status: ('A' for Active; 'I' for Inactive)
REMARK    1  A    between atoms: O_2  and  C_3
REMARK    2  A    between atoms: C_3  and  C_4
REMARK    3  A    between atoms: C_4  and  N_5
REMARK    4  A    between atoms: N_9  and  C_10
REMARK    5  A    between atoms: C_10  and  C_11
REMARK    6  A    between atoms: C_14  and  C_17
REMARK                            x       y       z     vdW  Elec       q    Type
REMARK                         _______ _______ _______ _____ _____    ______ ____
ROOT
ATOM      5  N   UNL     1      -0.766   0.390  24.344  0.00  0.00    -0.260 N 
ATOM      6  C   UNL     1      -1.571   0.367  24.160  0.00  0.00    +0.116 C 
ATOM      7  C   UNL     1      -1.817   1.137  24.000  0.00  0.00    +0.113 C 
ATOM      8  C   UNL     1      -2.551   1.450  23.787  0.00  0.00    +0.094 C 
ATOM      9  N   UNL     1      -2.633   2.260  23.659  0.00  0.00    -0.266 NA
ATOM     20  C   UNL     1      -1.981   2.759  23.744  0.00  0.00    +0.094 C 
ATOM     21  C   UNL     1      -1.247   2.448  23.956  0.00  0.00    +0.112 C 
ATOM     22  N   UNL     1      -1.165   1.636  24.084  0.00  0.00    -0.261 N 
ATOM     23  C   UNL     1      -0.516   1.174  24.296  0.00  0.00    +0.307 C 
ATOM     24  O   UNL     1       0.249   1.449  24.437  0.00  0.00    -0.252 OA
ENDROOT
BRANCH   5   4
ATOM      4  C   UNL     1      -0.295  -0.258  24.540  0.00  0.00    +0.127 C 
BRANCH   4   3
ATOM      3  C   UNL     1      -0.646  -0.970  24.765  0.00  0.00    +0.164 C 
BRANCH   3   2
ATOM      1  C   UNL     1      -0.526  -2.296  25.283  0.00  0.00    +0.174 C 
ATOM      2  O   UNL     1      -0.192  -1.560  25.122  0.00  0.00    -0.349 OA
ENDBRANCH   3   2
ENDBRANCH   4   3
ENDBRANCH   5   4
BRANCH   9  10
ATOM     10  C   UNL     1      -3.366   2.573  23.447  0.00  0.00    +0.099 C 
BRANCH  10  11
ATOM     11  C   UNL     1      -3.920   2.760  24.029  0.00  0.00    -0.006 A 
ATOM     12  C   UNL     1      -3.876   3.484  24.423  0.00  0.00    -0.003 A 
ATOM     13  C   UNL     1      -4.430   3.671  25.005  0.00  0.00    +0.006 A 
ATOM     14  C   UNL     1      -5.027   3.134  25.194  0.00  0.00    +0.080 A 
ATOM     15  C   UNL     1      -5.071   2.410  24.801  0.00  0.00    +0.006 A 
ATOM     16  C   UNL     1      -4.517   2.223  24.218  0.00  0.00    -0.003 A 
BRANCH  14  17
ATOM     17  C   UNL     1      -5.581   3.321  25.777  0.00  0.00    +0.388 C 
ATOM     18  O   UNL     1      -5.737   2.785  26.384  0.00  0.00    -0.241 OA
ATOM     19  O   UNL     1      -5.979   4.043  25.751  0.00  0.00    -0.241 OA
ENDBRANCH  14  17
ENDBRANCH  10  11
ENDBRANCH   9  10
TORSDOF 6
ENDMDL
