REMARK  Name = 
REMARK  5 active torsions:
REMARK  status: ('A' for Active; 'I' for Inactive)
REMARK    1  A    between atoms: C_6  and  N_7
REMARK    2  A    between atoms: N_10  and  C_11
REMARK    3  A    between atoms: C_16  and  C_17
REMARK    4  A    between atoms: C_17  and  C_18
REMARK    5  A    between atoms: C_18  and  C_19
REMARK                            x       y       z     vdW  Elec       q    Type
REMARK                         _______ _______ _______ _____ _____    ______ ____
ROOT
ATOM     11  C   UNL     1       1.872  -5.145   0.000  0.00  0.00    +0.115 C 
ATOM     12  C   UNL     1       2.679  -5.317   0.000  0.00  0.00    +0.049 C 
ATOM     13  C   UNL     1       3.092  -4.602   0.000  0.00  0.00    +0.138 C 
ATOM     14  N   UNL     1       2.540  -3.989   0.000  0.00  0.00    -0.265 NA
ATOM     15  C   UNL     1       1.786  -4.325   0.000  0.00  0.00    +0.094 C 
ATOM     16  C   UNL     1       2.795  -3.205   0.000  0.00  0.00    +0.080 C 
ATOM     30  C   UNL     1       3.602  -3.033   0.000  0.00  0.00    +0.131 C 
ATOM     31  N   UNL     1       4.154  -3.646   0.000  0.00  0.00    -0.203 NA
ATOM     32  C   UNL     1       3.899  -4.431   0.000  0.00  0.00    +0.256 C 
ATOM     33  O   UNL     1       4.451  -5.044   0.000  0.00  0.00    -0.272 OA
ENDROOT
BRANCH  11  10
ATOM      7  N   UNL     1       0.818  -7.056   0.000  0.00  0.00    -0.159 NA
ATOM      8  C   UNL     1       1.431  -6.504   0.000  0.00  0.00    +0.344 C 
ATOM      9  O   UNL     1       2.216  -6.759   0.000  0.00  0.00    -0.249 OA
ATOM     10  N   UNL     1       1.259  -5.697   0.000  0.00  0.00    -0.187 NA
BRANCH   7   6
ATOM      1  F   UNL     1       1.504 -10.284   0.000  0.00  0.00    -0.204 F 
ATOM      2  C   UNL     1       1.332  -9.477   0.000  0.00  0.00    +0.142 A 
ATOM      3  C   UNL     1       0.548  -9.222   0.000  0.00  0.00    +0.061 A 
ATOM      4  C   UNL     1       0.376  -8.415   0.000  0.00  0.00    +0.158 A 
ATOM      5  F   UNL     1      -0.408  -8.160   0.000  0.00  0.00    -0.203 F 
ATOM      6  C   UNL     1       0.989  -7.863   0.000  0.00  0.00    +0.102 A 
ATOM     34  C   UNL     1       1.774  -8.118   0.000  0.00  0.00    +0.021 A 
ATOM     35  C   UNL     1       1.946  -8.925   0.000  0.00  0.00    +0.031 A 
ENDBRANCH   7   6
ENDBRANCH  11  10
BRANCH  16  17
ATOM     17  C   UNL     1       2.243  -2.592   0.000  0.00  0.00    +0.027 C 
BRANCH  17  18
ATOM     18  C   UNL     1       1.436  -2.763   0.000  0.00  0.00    +0.087 C 
BRANCH  18  19
ATOM     19  C   UNL     1       0.884  -2.150   0.000  0.00  0.00    +0.229 C 
ATOM     20  O   UNL     1       0.077  -2.321   0.000  0.00  0.00    -0.275 OA
ATOM     21  N   UNL     1       1.139  -1.365   0.000  0.00  0.00    -0.259 N 
ATOM     22  C   UNL     1       0.654  -0.698   0.000  0.00  0.00    +0.103 C 
ATOM     23  C   UNL     1       1.139  -0.030   0.000  0.00  0.00    +0.049 C 
ATOM     24  C   UNL     1       1.923  -0.285   0.000  0.00  0.00    -0.007 A 
ATOM     25  C   UNL     1       2.638   0.127   0.000  0.00  0.00    -0.003 A 
ATOM     26  C   UNL     1       3.352  -0.285   0.000  0.00  0.00    -0.000 A 
ATOM     27  C   UNL     1       3.352  -1.110   0.000  0.00  0.00    +0.001 A 
ATOM     28  C   UNL     1       2.638  -1.523   0.000  0.00  0.00    +0.015 A 
ATOM     29  C   UNL     1       1.923  -1.110   0.000  0.00  0.00    +0.050 A 
ENDBRANCH  18  19
ENDBRANCH  17  18
ENDBRANCH  16  17
TORSDOF 5
