MODEL 1
REMARK VINA RESULT:     -12.6      0.000      0.000
REMARK  Name = 
REMARK  8 active torsions:
REMARK  status: ('A' for Active; 'I' for Inactive)
REMARK    1  A    between atoms: C_2  and  C_4
REMARK    2  A    between atoms: C_4  and  C_5
REMARK    3  A    between atoms: C_10  and  C_11
REMARK    4  A    between atoms: C_11  and  C_12
REMARK    5  A    between atoms: C_12  and  N_13
REMARK    6  A    between atoms: N_16  and  C_19
REMARK    7  A    between atoms: C_25  and  C_27
REMARK    8  A    between atoms: C_30  and  C_33
REMARK                            x       y       z     vdW  Elec       q    Type
REMARK                         _______ _______ _______ _____ _____    ______ ____
ROOT
ATOM      5  C   UNL     1      -4.353   3.502  25.296  0.00  0.00    +0.015 C 
ATOM      6  C   UNL     1      -4.132   4.289  25.413  0.00  0.00    +0.022 C 
ATOM      7  C   UNL     1      -3.334   4.497  25.411  0.00  0.00    +0.094 C 
ATOM      8  N   UNL     1      -2.757   3.919  25.291  0.00  0.00    -0.276 N 
ATOM      9  C   UNL     1      -2.979   3.133  25.174  0.00  0.00    +0.094 C 
ATOM     10  C   UNL     1      -3.777   2.925  25.177  0.00  0.00    +0.022 C 
ATOM     25  C   UNL     1      -1.960   4.127  25.289  0.00  0.00    +0.249 C 
ATOM     26  O   UNL     1      -1.738   4.914  25.406  0.00  0.00    -0.270 OA
ENDROOT
BRANCH  25  27
ATOM     27  C   UNL     1      -1.382   3.550  25.170  0.00  0.00    +0.054 A 
ATOM     28  C   UNL     1      -1.100   3.111  25.808  0.00  0.00    +0.004 A 
ATOM     29  C   UNL     1      -0.523   2.534  25.688  0.00  0.00    +0.004 A 
ATOM     30  C   UNL     1      -0.228   2.396  24.930  0.00  0.00    +0.071 A 
ATOM     31  C   UNL     1      -0.511   2.836  24.291  0.00  0.00    +0.004 A 
ATOM     32  C   UNL     1      -1.089   3.413  24.411  0.00  0.00    +0.004 A 
BRANCH  30  33
ATOM     33  C   UNL     1       0.350   1.819  24.809  0.00  0.00    +0.419 C 
ATOM     34  F   UNL     1       0.926   1.241  24.689  0.00  0.00    -0.166 F 
ATOM     35  F   UNL     1       0.850   2.387  24.483  0.00  0.00    -0.166 F 
ATOM     36  F   UNL     1      -0.152   1.250  25.135  0.00  0.00    -0.166 F 
ENDBRANCH  30  33
ENDBRANCH  25  27
BRANCH   5   4
ATOM      4  C   UNL     1      -5.153   3.294  25.298  0.00  0.00    +0.114 C 
BRANCH   4   2
ATOM      1  O   UNL     1      -5.832   3.296  26.555  0.00  0.00    -0.246 OA
ATOM      2  C   UNL     1      -5.671   3.654  25.830  0.00  0.00    +0.365 C 
ATOM      3  O   UNL     1      -6.028   4.371  25.636  0.00  0.00    -0.246 OA
ENDBRANCH   4   2
ENDBRANCH   5   4
BRANCH  10  11
ATOM     11  C   UNL     1      -3.998   2.140  25.060  0.00  0.00    +0.019 C 
BRANCH  11  12
ATOM     12  C   UNL     1      -3.762   1.742  24.375  0.00  0.00    +0.072 C 
BRANCH  12  13
ATOM     13  N   UNL     1      -3.745   0.917  24.363  0.00  0.00    -0.270 NA
ATOM     14  C   UNL     1      -4.219   0.486  24.883  0.00  0.00    +0.094 C 
ATOM     15  C   UNL     1      -4.202  -0.338  24.871  0.00  0.00    +0.108 C 
ATOM     16  N   UNL     1      -3.711  -0.733  24.339  0.00  0.00    -0.305 N 
ATOM     17  C   UNL     1      -3.237  -0.303  23.818  0.00  0.00    +0.108 C 
ATOM     18  C   UNL     1      -3.254   0.522  23.831  0.00  0.00    +0.094 C 
BRANCH  16  19
ATOM     19  C   UNL     1      -3.693  -1.557  24.326  0.00  0.00    +0.048 A 
ATOM     20  C   UNL     1      -3.148  -1.965  24.792  0.00  0.00    +0.015 A 
ATOM     21  C   UNL     1      -3.130  -2.790  24.779  0.00  0.00    +0.001 A 
ATOM     22  C   UNL     1      -3.656  -3.206  24.301  0.00  0.00    +0.000 A 
ATOM     23  C   UNL     1      -4.202  -2.799  23.835  0.00  0.00    +0.001 A 
ATOM     24  C   UNL     1      -4.220  -1.974  23.848  0.00  0.00    +0.015 A 
ENDBRANCH  16  19
ENDBRANCH  12  13
ENDBRANCH  11  12
ENDBRANCH  10  11
TORSDOF 8
ENDMDL
MODEL 2
REMARK VINA RESULT:     -12.3      2.174      3.762
REMARK  Name = 
REMARK  8 active torsions:
REMARK  status: ('A' for Active; 'I' for Inactive)
REMARK    1  A    between atoms: C_2  and  C_4
REMARK    2  A    between atoms: C_4  and  C_5
REMARK    3  A    between atoms: C_10  and  C_11
REMARK    4  A    between atoms: C_11  and  C_12
REMARK    5  A    between atoms: C_12  and  N_13
REMARK    6  A    between atoms: N_16  and  C_19
REMARK    7  A    between atoms: C_25  and  C_27
REMARK    8  A    between atoms: C_30  and  C_33
REMARK                            x       y       z     vdW  Elec       q    Type
REMARK                         _______ _______ _______ _____ _____    ______ ____
ROOT
ATOM      5  C   UNL     1      -1.150   2.718  25.448  0.00  0.00    +0.015 C 
ATOM      6  C   UNL     1      -1.235   3.506  25.677  0.00  0.00    +0.022 C 
ATOM      7  C   UNL     1      -1.985   3.846  25.715  0.00  0.00    +0.094 C 
ATOM      8  N   UNL     1      -2.652   3.397  25.523  0.00  0.00    -0.276 N 
ATOM      9  C   UNL     1      -2.566   2.610  25.294  0.00  0.00    +0.094 C 
ATOM     10  C   UNL     1      -1.815   2.270  25.257  0.00  0.00    +0.022 C 
ATOM     25  C   UNL     1      -3.402   3.736  25.561  0.00  0.00    +0.249 C 
ATOM     26  O   UNL     1      -3.487   4.525  25.790  0.00  0.00    -0.270 OA
ENDROOT
BRANCH  25  27
ATOM     27  C   UNL     1      -4.068   3.289  25.370  0.00  0.00    +0.054 A 
ATOM     28  C   UNL     1      -4.255   3.143  24.580  0.00  0.00    +0.004 A 
ATOM     29  C   UNL     1      -4.920   2.695  24.390  0.00  0.00    +0.004 A 
ATOM     30  C   UNL     1      -5.400   2.393  24.989  0.00  0.00    +0.071 A 
ATOM     31  C   UNL     1      -5.213   2.538  25.780  0.00  0.00    +0.004 A 
ATOM     32  C   UNL     1      -4.546   2.986  25.970  0.00  0.00    +0.004 A 
BRANCH  30  33
ATOM     33  C   UNL     1      -6.066   1.944  24.800  0.00  0.00    +0.419 C 
ATOM     34  F   UNL     1      -6.733   1.497  24.610  0.00  0.00    -0.166 F 
ATOM     35  F   UNL     1      -5.582   1.306  24.604  0.00  0.00    -0.166 F 
ATOM     36  F   UNL     1      -6.551   2.584  24.996  0.00  0.00    -0.166 F 
ENDBRANCH  30  33
ENDBRANCH  25  27
BRANCH   5   4
ATOM      4  C   UNL     1      -0.398   2.378  25.410  0.00  0.00    +0.114 C 
BRANCH   4   2
ATOM      1  O   UNL     1       0.586   2.705  26.393  0.00  0.00    -0.246 OA
ATOM      2  C   UNL     1       0.263   2.814  25.641  0.00  0.00    +0.365 C 
ATOM      3  O   UNL     1       0.602   3.358  25.122  0.00  0.00    -0.246 OA
ENDBRANCH   4   2
ENDBRANCH   5   4
BRANCH  10  11
ATOM     11  C   UNL     1      -1.730   1.483  25.028  0.00  0.00    +0.019 C 
BRANCH  11  12
ATOM     12  C   UNL     1      -1.927   0.876  25.553  0.00  0.00    +0.072 C 
BRANCH  12  13
ATOM     13  N   UNL     1      -2.306   0.198  25.276  0.00  0.00    -0.270 NA
ATOM     14  C   UNL     1      -2.185  -0.056  24.500  0.00  0.00    +0.094 C 
ATOM     15  C   UNL     1      -2.564  -0.734  24.224  0.00  0.00    +0.108 C 
ATOM     16  N   UNL     1      -3.065  -1.158  24.723  0.00  0.00    -0.305 N 
ATOM     17  C   UNL     1      -3.188  -0.905  25.498  0.00  0.00    +0.108 C 
ATOM     18  C   UNL     1      -2.807  -0.227  25.775  0.00  0.00    +0.094 C 
BRANCH  16  19
ATOM     19  C   UNL     1      -3.445  -1.837  24.447  0.00  0.00    +0.048 A 
ATOM     20  C   UNL     1      -4.111  -1.768  23.963  0.00  0.00    +0.015 A 
ATOM     21  C   UNL     1      -4.491  -2.446  23.687  0.00  0.00    +0.001 A 
ATOM     22  C   UNL     1      -4.206  -3.192  23.894  0.00  0.00    +0.000 A 
ATOM     23  C   UNL     1      -3.541  -3.260  24.377  0.00  0.00    +0.001 A 
ATOM     24  C   UNL     1      -3.161  -2.582  24.653  0.00  0.00    +0.015 A 
ENDBRANCH  16  19
ENDBRANCH  12  13
ENDBRANCH  11  12
ENDBRANCH  10  11
TORSDOF 8
ENDMDL
MODEL 3
REMARK VINA RESULT:     -12.1      2.409      4.668
REMARK  Name = 
REMARK  8 active torsions:
REMARK  status: ('A' for Active; 'I' for Inactive)
REMARK    1  A    between atoms: C_2  and  C_4
REMARK    2  A    between atoms: C_4  and  C_5
REMARK    3  A    between atoms: C_10  and  C_11
REMARK    4  A    between atoms: C_11  and  C_12
REMARK    5  A    between atoms: C_12  and  N_13
REMARK    6  A    between atoms: N_16  and  C_19
REMARK    7  A    between atoms: C_25  and  C_27
REMARK    8  A    between atoms: C_30  and  C_33
REMARK                            x       y       z     vdW  Elec       q    Type
REMARK                         _______ _______ _______ _____ _____    ______ ____
ROOT
ATOM      5  C   UNL     1      -3.139   2.452  24.714  0.00  0.00    +0.015 C 
ATOM      6  C   UNL     1      -3.898   2.528  25.031  0.00  0.00    +0.022 C 
ATOM      7  C   UNL     1      -4.358   1.855  25.162  0.00  0.00    +0.094 C 
ATOM      8  N   UNL     1      -4.060   1.108  24.976  0.00  0.00    -0.276 N 
ATOM      9  C   UNL     1      -3.302   1.034  24.660  0.00  0.00    +0.094 C 
ATOM     10  C   UNL     1      -2.842   1.706  24.528  0.00  0.00    +0.022 C 
ATOM     25  C   UNL     1      -4.519   0.437  25.108  0.00  0.00    +0.249 C 
ATOM     26  O   UNL     1      -5.278   0.511  25.425  0.00  0.00    -0.270 OA
ENDROOT
BRANCH  25  27
ATOM     27  C   UNL     1      -4.222  -0.310  24.922  0.00  0.00    +0.054 A 
ATOM     28  C   UNL     1      -4.315  -0.614  24.161  0.00  0.00    +0.004 A 
ATOM     29  C   UNL     1      -4.017  -1.361  23.977  0.00  0.00    +0.004 A 
ATOM     30  C   UNL     1      -3.627  -1.804  24.553  0.00  0.00    +0.071 A 
ATOM     31  C   UNL     1      -3.534  -1.500  25.314  0.00  0.00    +0.004 A 
ATOM     32  C   UNL     1      -3.832  -0.752  25.499  0.00  0.00    +0.004 A 
BRANCH  30  33
ATOM     33  C   UNL     1      -3.329  -2.551  24.369  0.00  0.00    +0.419 C 
ATOM     34  F   UNL     1      -3.032  -3.299  24.185  0.00  0.00    -0.166 F 
ATOM     35  F   UNL     1      -2.561  -2.252  24.394  0.00  0.00    -0.166 F 
ATOM     36  F   UNL     1      -4.098  -2.851  24.345  0.00  0.00    -0.166 F 
ENDBRANCH  30  33
ENDBRANCH  25  27
BRANCH   5   4
ATOM      4  C   UNL     1      -2.679   3.125  24.582  0.00  0.00    +0.114 C 
BRANCH   4   2
ATOM      1  O   UNL     1      -2.773   4.218  25.497  0.00  0.00    -0.246 OA
ATOM      2  C   UNL     1      -2.974   3.871  24.776  0.00  0.00    +0.365 C 
ATOM      3  O   UNL     1      -3.469   4.269  24.251  0.00  0.00    -0.246 OA
ENDBRANCH   4   2
ENDBRANCH   5   4
BRANCH  10  11
ATOM     11  C   UNL     1      -2.084   1.631  24.212  0.00  0.00    +0.019 C 
BRANCH  11  12
ATOM     12  C   UNL     1      -1.503   1.214  24.625  0.00  0.00    +0.072 C 
BRANCH  12  13
ATOM     13  N   UNL     1      -0.783   1.042  24.261  0.00  0.00    -0.270 NA
ATOM     14  C   UNL     1      -0.180   1.605  24.250  0.00  0.00    +0.094 C 
ATOM     15  C   UNL     1       0.540   1.432  23.887  0.00  0.00    +0.108 C 
ATOM     16  N   UNL     1       0.657   0.695  23.534  0.00  0.00    -0.305 N 
ATOM     17  C   UNL     1       0.055   0.132  23.544  0.00  0.00    +0.108 C 
ATOM     18  C   UNL     1      -0.665   0.305  23.908  0.00  0.00    +0.094 C 
BRANCH  16  19
ATOM     19  C   UNL     1       1.377   0.522  23.171  0.00  0.00    +0.048 A 
ATOM     20  C   UNL     1       2.060   0.928  23.394  0.00  0.00    +0.015 A 
ATOM     21  C   UNL     1       2.780   0.754  23.031  0.00  0.00    +0.001 A 
ATOM     22  C   UNL     1       2.817   0.176  22.445  0.00  0.00    +0.000 A 
ATOM     23  C   UNL     1       2.135  -0.230  22.221  0.00  0.00    +0.001 A 
ATOM     24  C   UNL     1       1.414  -0.057  22.585  0.00  0.00    +0.015 A 
ENDBRANCH  16  19
ENDBRANCH  12  13
ENDBRANCH  11  12
ENDBRANCH  10  11
TORSDOF 8
ENDMDL
MODEL 4
REMARK VINA RESULT:     -11.9      2.426      4.208
REMARK  Name = 
REMARK  8 active torsions:
REMARK  status: ('A' for Active; 'I' for Inactive)
REMARK    1  A    between atoms: C_2  and  C_4
REMARK    2  A    between atoms: C_4  and  C_5
REMARK    3  A    between atoms: C_10  and  C_11
REMARK    4  A    between atoms: C_11  and  C_12
REMARK    5  A    between atoms: C_12  and  N_13
REMARK    6  A    between atoms: N_16  and  C_19
REMARK    7  A    between atoms: C_25  and  C_27
REMARK    8  A    between atoms: C_30  and  C_33
REMARK                            x       y       z     vdW  Elec       q    Type
REMARK                         _______ _______ _______ _____ _____    ______ ____
ROOT
ATOM      5  C   UNL     1      -3.676   0.326  24.503  0.00  0.00    +0.015 C 
ATOM      6  C   UNL     1      -4.401   0.544  24.833  0.00  0.00    +0.022 C 
ATOM      7  C   UNL     1      -4.511   1.313  25.112  0.00  0.00    +0.094 C 
ATOM      8  N   UNL     1      -3.896   1.862  25.062  0.00  0.00    -0.276 N 
ATOM      9  C   UNL     1      -3.173   1.642  24.733  0.00  0.00    +0.094 C 
ATOM     10  C   UNL     1      -3.063   0.874  24.454  0.00  0.00    +0.022 C 
ATOM     25  C   UNL     1      -4.006   2.630  25.342  0.00  0.00    +0.249 C 
ATOM     26  O   UNL     1      -4.731   2.849  25.671  0.00  0.00    -0.270 OA
ENDROOT
BRANCH  25  27
ATOM     27  C   UNL     1      -3.393   3.179  25.292  0.00  0.00    +0.054 A 
ATOM     28  C   UNL     1      -3.292   3.625  24.605  0.00  0.00    +0.004 A 
ATOM     29  C   UNL     1      -2.679   4.173  24.557  0.00  0.00    +0.004 A 
ATOM     30  C   UNL     1      -2.166   4.278  25.195  0.00  0.00    +0.071 A 
ATOM     31  C   UNL     1      -2.267   3.832  25.881  0.00  0.00    +0.004 A 
ATOM     32  C   UNL     1      -2.881   3.282  25.930  0.00  0.00    +0.004 A 
BRANCH  30  33
ATOM     33  C   UNL     1      -1.552   4.827  25.146  0.00  0.00    +0.419 C 
ATOM     34  F   UNL     1      -0.937   5.375  25.098  0.00  0.00    -0.166 F 
ATOM     35  F   UNL     1      -1.982   5.350  25.616  0.00  0.00    -0.166 F 
ATOM     36  F   UNL     1      -1.121   4.302  24.676  0.00  0.00    -0.166 F 
ENDBRANCH  30  33
ENDBRANCH  25  27
BRANCH   5   4
ATOM      4  C   UNL     1      -3.566  -0.444  24.223  0.00  0.00    +0.114 C 
BRANCH   4   2
ATOM      1  O   UNL     1      -4.017  -1.449  25.133  0.00  0.00    -0.246 OA
ATOM      2  C   UNL     1      -4.104  -1.036  24.424  0.00  0.00    +0.365 C 
ATOM      3  O   UNL     1      -4.728  -1.216  23.917  0.00  0.00    -0.246 OA
ENDBRANCH   4   2
ENDBRANCH   5   4
BRANCH  10  11
ATOM     11  C   UNL     1      -2.339   0.655  24.125  0.00  0.00    +0.019 C 
BRANCH  11  12
ATOM     12  C   UNL     1      -1.649   0.702  24.576  0.00  0.00    +0.072 C 
BRANCH  12  13
ATOM     13  N   UNL     1      -0.913   0.612  24.214  0.00  0.00    -0.270 NA
ATOM     14  C   UNL     1      -0.532  -0.120  24.226  0.00  0.00    +0.094 C 
ATOM     15  C   UNL     1       0.203  -0.209  23.864  0.00  0.00    +0.108 C 
ATOM     16  N   UNL     1       0.559   0.435  23.490  0.00  0.00    -0.305 N 
ATOM     17  C   UNL     1       0.179   1.167  23.478  0.00  0.00    +0.108 C 
ATOM     18  C   UNL     1      -0.557   1.256  23.840  0.00  0.00    +0.094 C 
BRANCH  16  19
ATOM     19  C   UNL     1       1.295   0.347  23.128  0.00  0.00    +0.048 A 
ATOM     20  C   UNL     1       1.375  -0.151  22.474  0.00  0.00    +0.015 A 
ATOM     21  C   UNL     1       2.111  -0.239  22.112  0.00  0.00    +0.001 A 
ATOM     22  C   UNL     1       2.765   0.169  22.402  0.00  0.00    +0.000 A 
ATOM     23  C   UNL     1       2.685   0.667  23.056  0.00  0.00    +0.001 A 
ATOM     24  C   UNL     1       1.949   0.755  23.419  0.00  0.00    +0.015 A 
ENDBRANCH  16  19
ENDBRANCH  12  13
ENDBRANCH  11  12
ENDBRANCH  10  11
TORSDOF 8
ENDMDL
MODEL 5
REMARK VINA RESULT:     -11.6      2.361      4.704
REMARK  Name = 
REMARK  8 active torsions:
REMARK  status: ('A' for Active; 'I' for Inactive)
REMARK    1  A    between atoms: C_2  and  C_4
REMARK    2  A    between atoms: C_4  and  C_5
REMARK    3  A    between atoms: C_10  and  C_11
REMARK    4  A    between atoms: C_11  and  C_12
REMARK    5  A    between atoms: C_12  and  N_13
REMARK    6  A    between atoms: N_16  and  C_19
REMARK    7  A    between atoms: C_25  and  C_27
REMARK    8  A    between atoms: C_30  and  C_33
REMARK                            x       y       z     vdW  Elec       q    Type
REMARK                         _______ _______ _______ _____ _____    ______ ____
ROOT
ATOM      5  C   UNL     1      -2.863  -1.813  24.515  0.00  0.00    +0.015 C 
ATOM      6  C   UNL     1      -2.179  -2.263  24.415  0.00  0.00    +0.022 C 
ATOM      7  C   UNL     1      -1.438  -1.907  24.490  0.00  0.00    +0.094 C 
ATOM      8  N   UNL     1      -1.382  -1.102  24.664  0.00  0.00    -0.276 N 
ATOM      9  C   UNL     1      -2.067  -0.654  24.764  0.00  0.00    +0.094 C 
ATOM     10  C   UNL     1      -2.808  -1.009  24.689  0.00  0.00    +0.022 C 
ATOM     25  C   UNL     1      -0.642  -0.747  24.739  0.00  0.00    +0.249 C 
ATOM     26  O   UNL     1       0.044  -1.196  24.639  0.00  0.00    -0.270 OA
ENDROOT
BRANCH  25  27
ATOM     27  C   UNL     1      -0.586   0.057  24.913  0.00  0.00    +0.054 A 
ATOM     28  C   UNL     1      -0.702   0.322  25.686  0.00  0.00    +0.004 A 
ATOM     29  C   UNL     1      -0.645   1.125  25.860  0.00  0.00    +0.004 A 
ATOM     30  C   UNL     1      -0.472   1.666  25.261  0.00  0.00    +0.071 A 
ATOM     31  C   UNL     1      -0.356   1.402  24.488  0.00  0.00    +0.004 A 
ATOM     32  C   UNL     1      -0.413   0.597  24.314  0.00  0.00    +0.004 A 
BRANCH  30  33
ATOM     33  C   UNL     1      -0.416   2.471  25.434  0.00  0.00    +0.419 C 
ATOM     34  F   UNL     1      -0.358   3.276  25.607  0.00  0.00    -0.166 F 
ATOM     35  F   UNL     1      -1.218   2.563  25.270  0.00  0.00    -0.166 F 
ATOM     36  F   UNL     1       0.388   2.378  25.598  0.00  0.00    -0.166 F 
ENDBRANCH  30  33
ENDBRANCH  25  27
BRANCH   5   4
ATOM      4  C   UNL     1      -3.605  -2.169  24.440  0.00  0.00    +0.114 C 
BRANCH   4   2
ATOM      1  O   UNL     1      -3.645  -3.395  25.173  0.00  0.00    -0.246 OA
ATOM      2  C   UNL     1      -3.670  -2.992  24.454  0.00  0.00    +0.365 C 
ATOM      3  O   UNL     1      -3.761  -3.410  23.749  0.00  0.00    -0.246 OA
ENDBRANCH   4   2
ENDBRANCH   5   4
BRANCH  10  11
ATOM     11  C   UNL     1      -3.492  -0.561  24.789  0.00  0.00    +0.019 C 
BRANCH  11  12
ATOM     12  C   UNL     1      -3.710  -0.007  24.216  0.00  0.00    +0.072 C 
BRANCH  12  13
ATOM     13  N   UNL     1      -4.019   0.723  24.445  0.00  0.00    -0.270 NA
ATOM     14  C   UNL     1      -3.904   1.389  23.971  0.00  0.00    +0.094 C 
ATOM     15  C   UNL     1      -4.213   2.117  24.200  0.00  0.00    +0.108 C 
ATOM     16  N   UNL     1      -4.639   2.182  24.904  0.00  0.00    -0.305 N 
ATOM     17  C   UNL     1      -4.756   1.517  25.378  0.00  0.00    +0.108 C 
ATOM     18  C   UNL     1      -4.445   0.787  25.148  0.00  0.00    +0.094 C 
BRANCH  16  19
ATOM     19  C   UNL     1      -4.950   2.910  25.134  0.00  0.00    +0.048 A 
ATOM     20  C   UNL     1      -5.731   2.962  25.395  0.00  0.00    +0.015 A 
ATOM     21  C   UNL     1      -6.041   3.691  25.625  0.00  0.00    +0.001 A 
ATOM     22  C   UNL     1      -5.572   4.367  25.594  0.00  0.00    +0.000 A 
ATOM     23  C   UNL     1      -4.791   4.316  25.334  0.00  0.00    +0.001 A 
ATOM     24  C   UNL     1      -4.480   3.587  25.103  0.00  0.00    +0.015 A 
ENDBRANCH  16  19
ENDBRANCH  12  13
ENDBRANCH  11  12
ENDBRANCH  10  11
TORSDOF 8
ENDMDL
MODEL 6
REMARK VINA RESULT:     -11.5      2.872      5.835
REMARK  Name = 
REMARK  8 active torsions:
REMARK  status: ('A' for Active; 'I' for Inactive)
REMARK    1  A    between atoms: C_2  and  C_4
REMARK    2  A    between atoms: C_4  and  C_5
REMARK    3  A    between atoms: C_10  and  C_11
REMARK    4  A    between atoms: C_11  and  C_12
REMARK    5  A    between atoms: C_12  and  N_13
REMARK    6  A    between atoms: N_16  and  C_19
REMARK    7  A    between atoms: C_25  and  C_27
REMARK    8  A    between atoms: C_30  and  C_33
REMARK                            x       y       z     vdW  Elec       q    Type
REMARK                         _______ _______ _______ _____ _____    ______ ____
ROOT
ATOM      5  C   UNL     1      -1.361  -1.353  24.886  0.00  0.00    +0.015 C 
ATOM      6  C   UNL     1      -1.826  -2.012  24.710  0.00  0.00    +0.022 C 
ATOM      7  C   UNL     1      -2.639  -1.925  24.603  0.00  0.00    +0.094 C 
ATOM      8  N   UNL     1      -2.988  -1.179  24.673  0.00  0.00    -0.276 N 
ATOM      9  C   UNL     1      -2.522  -0.522  24.849  0.00  0.00    +0.094 C 
ATOM     10  C   UNL     1      -1.709  -0.609  24.956  0.00  0.00    +0.022 C 
ATOM     25  C   UNL     1      -3.800  -1.093  24.566  0.00  0.00    +0.249 C 
ATOM     26  O   UNL     1      -4.266  -1.751  24.390  0.00  0.00    -0.270 OA
ENDROOT
BRANCH  25  27
ATOM     27  C   UNL     1      -4.149  -0.348  24.635  0.00  0.00    +0.054 A 
ATOM     28  C   UNL     1      -4.383  -0.069  25.375  0.00  0.00    +0.004 A 
ATOM     29  C   UNL     1      -4.732   0.675  25.443  0.00  0.00    +0.004 A 
ATOM     30  C   UNL     1      -4.846   1.141  24.772  0.00  0.00    +0.071 A 
ATOM     31  C   UNL     1      -4.612   0.862  24.032  0.00  0.00    +0.004 A 
ATOM     32  C   UNL     1      -4.263   0.116  23.963  0.00  0.00    +0.004 A 
BRANCH  30  33
ATOM     33  C   UNL     1      -5.195   1.886  24.840  0.00  0.00    +0.419 C 
ATOM     34  F   UNL     1      -5.544   2.630  24.907  0.00  0.00    -0.166 F 
ATOM     35  F   UNL     1      -4.449   2.227  24.927  0.00  0.00    -0.166 F 
ATOM     36  F   UNL     1      -5.941   1.544  24.752  0.00  0.00    -0.166 F 
ENDBRANCH  30  33
ENDBRANCH  25  27
BRANCH   5   4
ATOM      4  C   UNL     1      -0.547  -1.440  24.993  0.00  0.00    +0.114 C 
BRANCH   4   2
ATOM      1  O   UNL     1       0.061  -2.171  26.060  0.00  0.00    -0.246 OA
ATOM      2  C   UNL     1      -0.244  -2.146  25.293  0.00  0.00    +0.365 C 
ATOM      3  O   UNL     1      -0.245  -2.827  24.828  0.00  0.00    -0.246 OA
ENDBRANCH   4   2
ENDBRANCH   5   4
BRANCH  10  11
ATOM     11  C   UNL     1      -1.244   0.049  25.132  0.00  0.00    +0.019 C 
BRANCH  11  12
ATOM     12  C   UNL     1      -1.011   0.563  24.529  0.00  0.00    +0.072 C 
BRANCH  12  13
ATOM     13  N   UNL     1      -1.077   1.379  24.634  0.00  0.00    -0.270 NA
ATOM     14  C   UNL     1      -1.035   1.703  25.392  0.00  0.00    +0.094 C 
ATOM     15  C   UNL     1      -1.102   2.518  25.497  0.00  0.00    +0.108 C 
ATOM     16  N   UNL     1      -1.211   3.010  24.844  0.00  0.00    -0.305 N 
ATOM     17  C   UNL     1      -1.253   2.688  24.086  0.00  0.00    +0.108 C 
ATOM     18  C   UNL     1      -1.186   1.871  23.981  0.00  0.00    +0.094 C 
BRANCH  16  19
ATOM     19  C   UNL     1      -1.277   3.826  24.948  0.00  0.00    +0.048 A 
ATOM     20  C   UNL     1      -0.651   4.321  24.738  0.00  0.00    +0.015 A 
ATOM     21  C   UNL     1      -0.718   5.136  24.842  0.00  0.00    +0.001 A 
ATOM     22  C   UNL     1      -1.409   5.457  25.156  0.00  0.00    +0.000 A 
ATOM     23  C   UNL     1      -2.035   4.963  25.367  0.00  0.00    +0.001 A 
ATOM     24  C   UNL     1      -1.968   4.146  25.263  0.00  0.00    +0.015 A 
ENDBRANCH  16  19
ENDBRANCH  12  13
ENDBRANCH  11  12
ENDBRANCH  10  11
TORSDOF 8
ENDMDL
MODEL 7
REMARK VINA RESULT:     -10.3      1.493      2.059
REMARK  Name = 
REMARK  8 active torsions:
REMARK  status: ('A' for Active; 'I' for Inactive)
REMARK    1  A    between atoms: C_2  and  C_4
REMARK    2  A    between atoms: C_4  and  C_5
REMARK    3  A    between atoms: C_10  and  C_11
REMARK    4  A    between atoms: C_11  and  C_12
REMARK    5  A    between atoms: C_12  and  N_13
REMARK    6  A    between atoms: N_16  and  C_19
REMARK    7  A    between atoms: C_25  and  C_27
REMARK    8  A    between atoms: C_30  and  C_33
REMARK                            x       y       z     vdW  Elec       q    Type
REMARK                         _______ _______ _______ _____ _____    ______ ____
ROOT
ATOM      5  C   UNL     1      -5.226   2.253  25.159  0.00  0.00    +0.015 C 
ATOM      6  C   UNL     1      -5.468   3.036  25.254  0.00  0.00    +0.022 C 
ATOM      7  C   UNL     1      -4.906   3.629  25.371  0.00  0.00    +0.094 C 
ATOM      8  N   UNL     1      -4.103   3.439  25.393  0.00  0.00    -0.276 N 
ATOM      9  C   UNL     1      -3.863   2.655  25.297  0.00  0.00    +0.094 C 
ATOM     10  C   UNL     1      -4.424   2.062  25.180  0.00  0.00    +0.022 C 
ATOM     25  C   UNL     1      -3.542   4.031  25.510  0.00  0.00    +0.249 C 
ATOM     26  O   UNL     1      -3.783   4.815  25.606  0.00  0.00    -0.270 OA
ENDROOT
BRANCH  25  27
ATOM     27  C   UNL     1      -2.739   3.841  25.532  0.00  0.00    +0.054 A 
ATOM     28  C   UNL     1      -2.279   3.913  24.851  0.00  0.00    +0.004 A 
ATOM     29  C   UNL     1      -1.477   3.724  24.873  0.00  0.00    +0.004 A 
ATOM     30  C   UNL     1      -1.134   3.461  25.576  0.00  0.00    +0.071 A 
ATOM     31  C   UNL     1      -1.594   3.388  26.257  0.00  0.00    +0.004 A 
ATOM     32  C   UNL     1      -2.398   3.578  26.235  0.00  0.00    +0.004 A 
BRANCH  30  33
ATOM     33  C   UNL     1      -0.332   3.271  25.599  0.00  0.00    +0.419 C 
ATOM     34  F   UNL     1       0.471   3.082  25.622  0.00  0.00    -0.166 F 
ATOM     35  F   UNL     1      -0.522   2.473  25.685  0.00  0.00    -0.166 F 
ATOM     36  F   UNL     1      -0.141   4.069  25.513  0.00  0.00    -0.166 F 
ENDBRANCH  30  33
ENDBRANCH  25  27
BRANCH   5   4
ATOM      4  C   UNL     1      -5.788   1.659  25.041  0.00  0.00    +0.114 C 
BRANCH   4   2
ATOM      1  O   UNL     1      -6.863   1.766  25.977  0.00  0.00    -0.246 OA
ATOM      2  C   UNL     1      -6.584   1.808  25.201  0.00  0.00    +0.365 C 
ATOM      3  O   UNL     1      -7.100   1.999  24.588  0.00  0.00    -0.246 OA
ENDBRANCH   4   2
ENDBRANCH   5   4
BRANCH  10  11
ATOM     11  C   UNL     1      -4.184   1.280  25.084  0.00  0.00    +0.019 C 
BRANCH  11  12
ATOM     12  C   UNL     1      -3.679   1.076  24.463  0.00  0.00    +0.072 C 
BRANCH  12  13
ATOM     13  N   UNL     1      -3.140   0.458  24.555  0.00  0.00    -0.270 NA
ATOM     14  C   UNL     1      -2.525   0.361  24.014  0.00  0.00    +0.094 C 
ATOM     15  C   UNL     1      -1.987  -0.256  24.106  0.00  0.00    +0.108 C 
ATOM     16  N   UNL     1      -2.063  -0.778  24.741  0.00  0.00    -0.305 N 
ATOM     17  C   UNL     1      -2.677  -0.682  25.283  0.00  0.00    +0.108 C 
ATOM     18  C   UNL     1      -3.216  -0.063  25.190  0.00  0.00    +0.094 C 
BRANCH  16  19
ATOM     19  C   UNL     1      -1.525  -1.396  24.835  0.00  0.00    +0.048 A 
ATOM     20  C   UNL     1      -1.691  -2.139  24.516  0.00  0.00    +0.015 A 
ATOM     21  C   UNL     1      -1.153  -2.757  24.609  0.00  0.00    +0.001 A 
ATOM     22  C   UNL     1      -0.450  -2.633  25.021  0.00  0.00    +0.000 A 
ATOM     23  C   UNL     1      -0.283  -1.891  25.340  0.00  0.00    +0.001 A 
ATOM     24  C   UNL     1      -0.822  -1.272  25.246  0.00  0.00    +0.015 A 
ENDBRANCH  16  19
ENDBRANCH  12  13
ENDBRANCH  11  12
ENDBRANCH  10  11
TORSDOF 8
ENDMDL
