REMARK  Name = 
REMARK  7 active torsions:
REMARK  status: ('A' for Active; 'I' for Inactive)
REMARK    1  A    between atoms: S_2  and  N_5
REMARK    2  A    between atoms: C_9  and  C_11
REMARK    3  A    between atoms: N_13  and  C_14
REMARK    4  A    between atoms: C_14  and  C_15
REMARK    5  A    between atoms: C_14  and  C_25
REMARK    6  A    between atoms: C_15  and  C_16
REMARK    7  A    between atoms: C_28  and  C_30
REMARK                            x       y       z     vdW  Elec       q    Type
REMARK                         _______ _______ _______ _____ _____    ______ ____
ROOT
ATOM      5  N   UNL     1      -2.225   4.064   0.000  0.00  0.00    -0.155 NA
ATOM      6  C   UNL     1      -1.673   4.677   0.000  0.00  0.00    +0.117 C 
ATOM      7  C   UNL     1      -0.866   4.506   0.000  0.00  0.00    +0.113 C 
ATOM      8  N   UNL     1      -0.611   3.721   0.000  0.00  0.00    -0.270 N 
ATOM      9  C   UNL     1      -1.163   3.108   0.000  0.00  0.00    +0.171 C 
ATOM     10  C   UNL     1      -1.970   3.280   0.000  0.00  0.00    +0.125 C 
ATOM     28  C   UNL     1       0.196   3.550   0.000  0.00  0.00    +0.226 C 
ATOM     29  O   UNL     1       0.451   2.765   0.000  0.00  0.00    -0.275 OA
ENDROOT
BRANCH  28  30
ATOM     30  C   UNL     1       0.748   4.163   0.000  0.00  0.00    +0.077 C 
ATOM     31  C   UNL     1       0.493   4.947   0.000  0.00  0.00    +0.009 C 
ATOM     32  C   UNL     1       1.045   5.560   0.000  0.00  0.00    +0.000 C 
ATOM     33  C   UNL     1       1.852   5.389   0.000  0.00  0.00    +0.000 C 
ATOM     34  C   UNL     1       2.107   4.604   0.000  0.00  0.00    +0.000 C 
ATOM     35  C   UNL     1       1.555   3.991   0.000  0.00  0.00    +0.009 C 
ENDBRANCH  28  30
BRANCH   5   2
ATOM      1  C   UNL     1      -3.839   4.407   0.000  0.00  0.00    +0.196 C 
ATOM      2  S   UNL     1      -3.032   4.236   0.000  0.00  0.00    +0.046 S 
ATOM      3  O   UNL     1      -3.204   3.429   0.000  0.00  0.00    -0.157 OA
ATOM      4  O   UNL     1      -2.861   5.043   0.000  0.00  0.00    -0.157 OA
ENDBRANCH   5   2
BRANCH   9  11
ATOM     11  C   UNL     1      -0.908   2.323   0.000  0.00  0.00    +0.261 C 
ATOM     12  O   UNL     1      -0.101   2.152   0.000  0.00  0.00    -0.271 OA
ATOM     13  N   UNL     1      -1.460   1.710   0.000  0.00  0.00    -0.196 NA
BRANCH  13  14
ATOM     14  C   UNL     1      -1.205   0.926   0.000  0.00  0.00    +0.179 C 
BRANCH  14  25
ATOM     25  C   UNL     1      -1.758   0.313   0.000  0.00  0.00    +0.281 C 
ATOM     26  N   UNL     1      -2.564   0.484   0.000  0.00  0.00    -0.086 NA
ATOM     27  O   UNL     1      -1.502  -0.472   0.000  0.00  0.00    -0.270 OA
ENDBRANCH  14  25
BRANCH  14  15
ATOM     15  C   UNL     1      -0.398   0.754   0.000  0.00  0.00    +0.059 C 
BRANCH  15  16
ATOM     16  C   UNL     1      -0.143  -0.030   0.000  0.00  0.00    +0.001 A 
ATOM     17  C   UNL     1      -0.628  -0.698   0.000  0.00  0.00    +0.095 A 
ATOM     18  N   UNL     1      -0.143  -1.365   0.000  0.00  0.00    -0.244 NA
ATOM     19  C   UNL     1       0.641  -1.110   0.000  0.00  0.00    +0.081 A 
ATOM     20  C   UNL     1       0.641  -0.285   0.000  0.00  0.00    +0.015 A 
ATOM     21  C   UNL     1       1.356   0.127   0.000  0.00  0.00    +0.001 A 
ATOM     22  C   UNL     1       2.070  -0.285   0.000  0.00  0.00    +0.000 A 
ATOM     23  C   UNL     1       2.070  -1.110   0.000  0.00  0.00    +0.002 A 
ATOM     24  C   UNL     1       1.356  -1.523   0.000  0.00  0.00    +0.019 A 
ENDBRANCH  15  16
ENDBRANCH  14  15
ENDBRANCH  13  14
ENDBRANCH   9  11
TORSDOF 7
