MODEL 1
REMARK VINA RESULT:     -10.4      0.000      0.000
REMARK  Name = 
REMARK  8 active torsions:
REMARK  status: ('A' for Active; 'I' for Inactive)
REMARK    1  A    between atoms: O_2  and  C_3
REMARK    2  A    between atoms: C_5  and  O_6
REMARK    3  A    between atoms: C_9  and  N_10
REMARK    4  A    between atoms: N_13  and  C_14
REMARK    5  A    between atoms: C_14  and  C_15
REMARK    6  A    between atoms: C_17  and  C_18
REMARK    7  A    between atoms: C_18  and  C_19
REMARK    8  A    between atoms: N_21  and  C_22
REMARK                            x       y       z     vdW  Elec       q    Type
REMARK                         _______ _______ _______ _____ _____    ______ ____
ROOT
ATOM     14  C   UNL     1      -4.755   1.237  24.875  0.00  0.00    +0.149 C 
ENDROOT
BRANCH  14  15
ATOM     15  C   UNL     1      -4.824   2.021  25.125  0.00  0.00    +0.170 C 
ATOM     16  O   UNL     1      -4.200   2.536  25.282  0.00  0.00    -0.351 OA
ATOM     17  C   UNL     1      -4.520   3.261  25.515  0.00  0.00    +0.157 C 
ATOM     25  C   UNL     1      -5.342   3.191  25.502  0.00  0.00    +0.212 C 
ATOM     26  O   UNL     1      -5.882   3.785  25.696  0.00  0.00    -0.218 OA
ATOM     27  C   UNL     1      -5.530   2.425  25.261  0.00  0.00    +0.213 C 
ATOM     28  O   UNL     1      -6.290   2.117  25.172  0.00  0.00    -0.218 OA
BRANCH  17  18
ATOM     18  C   UNL     1      -4.093   3.935  25.724  0.00  0.00    +0.119 C 
BRANCH  18  19
ATOM     19  C   UNL     1      -3.354   4.077  25.386  0.00  0.00    +0.244 C 
ATOM     20  O   UNL     1      -3.284   4.165  24.570  0.00  0.00    -0.273 OA
ATOM     21  N   UNL     1      -2.685   4.129  25.866  0.00  0.00    -0.207 NA
BRANCH  21  22
ATOM     22  C   UNL     1      -1.946   4.271  25.529  0.00  0.00    +0.095 C 
ATOM     23  C   UNL     1      -1.177   4.022  25.360  0.00  0.00    +0.023 C 
ATOM     24  C   UNL     1      -1.433   4.765  25.113  0.00  0.00    +0.023 C 
ENDBRANCH  21  22
ENDBRANCH  18  19
ENDBRANCH  17  18
ENDBRANCH  14  15
BRANCH  14  13
ATOM     10  N   UNL     1      -3.626  -0.518  25.512  0.00  0.00    -0.161 NA
ATOM     11  C   UNL     1      -3.991   0.039  25.027  0.00  0.00    +0.344 C 
ATOM     12  O   UNL     1      -3.960  -0.045  24.206  0.00  0.00    -0.249 OA
ATOM     13  N   UNL     1      -4.389   0.680  25.361  0.00  0.00    -0.184 NA
BRANCH  10   9
ATOM      3  C   UNL     1      -3.240  -2.497  24.673  0.00  0.00    +0.143 A 
ATOM      4  C   UNL     1      -2.432  -2.442  24.509  0.00  0.00    +0.074 A 
ATOM      5  C   UNL     1      -2.024  -1.745  24.680  0.00  0.00    +0.143 A 
ATOM      8  C   UNL     1      -2.421  -1.104  25.014  0.00  0.00    +0.054 A 
ATOM      9  C   UNL     1      -3.228  -1.159  25.178  0.00  0.00    +0.081 A 
ATOM     29  C   UNL     1      -3.637  -1.855  25.008  0.00  0.00    +0.054 A 
BRANCH   3   2
ATOM      1  C   UNL     1      -3.994  -3.297  23.762  0.00  0.00    +0.252 C 
ATOM      2  O   UNL     1      -3.648  -3.192  24.503  0.00  0.00    -0.471 OA
ENDBRANCH   3   2
BRANCH   5   6
ATOM      6  O   UNL     1      -1.217  -1.690  24.516  0.00  0.00    -0.471 OA
ATOM      7  C   UNL     1      -0.677  -1.593  25.133  0.00  0.00    +0.252 C 
ENDBRANCH   5   6
ENDBRANCH  10   9
ENDBRANCH  14  13
TORSDOF 8
ENDMDL
MODEL 2
REMARK VINA RESULT:      -8.7      1.654      6.142
REMARK  Name = 
REMARK  8 active torsions:
REMARK  status: ('A' for Active; 'I' for Inactive)
REMARK    1  A    between atoms: O_2  and  C_3
REMARK    2  A    between atoms: C_5  and  O_6
REMARK    3  A    between atoms: C_9  and  N_10
REMARK    4  A    between atoms: N_13  and  C_14
REMARK    5  A    between atoms: C_14  and  C_15
REMARK    6  A    between atoms: C_17  and  C_18
REMARK    7  A    between atoms: C_18  and  C_19
REMARK    8  A    between atoms: N_21  and  C_22
REMARK                            x       y       z     vdW  Elec       q    Type
REMARK                         _______ _______ _______ _____ _____    ______ ____
ROOT
ATOM     14  C   UNL     1      -0.787   1.081  24.126  0.00  0.00    +0.149 C 
ENDROOT
BRANCH  14  15
ATOM     15  C   UNL     1      -0.595   0.279  24.144  0.00  0.00    +0.170 C 
ATOM     16  O   UNL     1      -1.036  -0.317  24.504  0.00  0.00    -0.351 OA
ATOM     17  C   UNL     1      -0.641  -1.033  24.387  0.00  0.00    +0.157 C 
ATOM     25  C   UNL     1       0.044  -0.877  23.954  0.00  0.00    +0.212 C 
ATOM     26  O   UNL     1       0.603  -1.435  23.713  0.00  0.00    -0.218 OA
ATOM     27  C   UNL     1       0.072  -0.066  23.804  0.00  0.00    +0.213 C 
ATOM     28  O   UNL     1       0.664   0.329  23.387  0.00  0.00    -0.218 OA
BRANCH  17  18
ATOM     18  C   UNL     1      -0.888  -1.772  24.656  0.00  0.00    +0.119 C 
BRANCH  18  19
ATOM     19  C   UNL     1      -1.685  -1.906  24.824  0.00  0.00    +0.244 C 
ATOM     20  O   UNL     1      -2.025  -1.573  25.498  0.00  0.00    -0.273 OA
ATOM     21  N   UNL     1      -2.141  -2.372  24.319  0.00  0.00    -0.207 NA
BRANCH  21  22
ATOM     22  C   UNL     1      -2.937  -2.505  24.487  0.00  0.00    +0.095 C 
ATOM     23  C   UNL     1      -3.717  -2.595  24.232  0.00  0.00    +0.023 C 
ATOM     24  C   UNL     1      -3.538  -2.647  25.034  0.00  0.00    +0.023 C 
ENDBRANCH  21  22
ENDBRANCH  18  19
ENDBRANCH  17  18
ENDBRANCH  14  15
BRANCH  14  13
ATOM     10  N   UNL     1      -1.763   2.539  25.424  0.00  0.00    -0.161 NA
ATOM     11  C   UNL     1      -1.480   2.167  24.745  0.00  0.00    +0.344 C 
ATOM     12  O   UNL     1      -1.606   2.509  24.004  0.00  0.00    -0.249 OA
ATOM     13  N   UNL     1      -1.070   1.453  24.805  0.00  0.00    -0.184 NA
BRANCH  10   9
ATOM      3  C   UNL     1      -3.396   3.965  25.163  0.00  0.00    +0.143 A 
ATOM      4  C   UNL     1      -2.991   4.681  25.243  0.00  0.00    +0.074 A 
ATOM      5  C   UNL     1      -2.178   4.682  25.383  0.00  0.00    +0.143 A 
ATOM      8  C   UNL     1      -1.768   3.968  25.443  0.00  0.00    +0.054 A 
ATOM      9  C   UNL     1      -2.172   3.252  25.364  0.00  0.00    +0.081 A 
ATOM     29  C   UNL     1      -2.986   3.252  25.224  0.00  0.00    +0.054 A 
BRANCH   3   2
ATOM      1  C   UNL     1      -4.725   3.682  25.600  0.00  0.00    +0.252 C 
ATOM      2  O   UNL     1      -4.208   3.964  25.024  0.00  0.00    -0.471 OA
ENDBRANCH   3   2
BRANCH   5   6
ATOM      6  O   UNL     1      -1.774   5.397  25.462  0.00  0.00    -0.471 OA
ATOM      7  C   UNL     1      -1.203   5.611  24.907  0.00  0.00    +0.252 C 
ENDBRANCH   5   6
ENDBRANCH  10   9
ENDBRANCH  14  13
TORSDOF 8
ENDMDL
MODEL 3
REMARK VINA RESULT:      -8.7      1.394      2.999
REMARK  Name = 
REMARK  8 active torsions:
REMARK  status: ('A' for Active; 'I' for Inactive)
REMARK    1  A    between atoms: O_2  and  C_3
REMARK    2  A    between atoms: C_5  and  O_6
REMARK    3  A    between atoms: C_9  and  N_10
REMARK    4  A    between atoms: N_13  and  C_14
REMARK    5  A    between atoms: C_14  and  C_15
REMARK    6  A    between atoms: C_17  and  C_18
REMARK    7  A    between atoms: C_18  and  C_19
REMARK    8  A    between atoms: N_21  and  C_22
REMARK                            x       y       z     vdW  Elec       q    Type
REMARK                         _______ _______ _______ _____ _____    ______ ____
ROOT
ATOM     14  C   UNL     1      -1.270   1.855  24.763  0.00  0.00    +0.149 C 
ENDROOT
BRANCH  14  15
ATOM     15  C   UNL     1      -1.476   2.639  24.917  0.00  0.00    +0.170 C 
ATOM     16  O   UNL     1      -2.229   2.913  25.114  0.00  0.00    -0.351 OA
ATOM     17  C   UNL     1      -2.183   3.730  25.220  0.00  0.00    +0.157 C 
ATOM     25  C   UNL     1      -1.401   3.961  25.089  0.00  0.00    +0.212 C 
ATOM     26  O   UNL     1      -1.108   4.731  25.137  0.00  0.00    -0.218 OA
ATOM     27  C   UNL     1      -0.965   3.286  24.902  0.00  0.00    +0.213 C 
ATOM     28  O   UNL     1      -0.158   3.263  24.731  0.00  0.00    -0.218 OA
BRANCH  17  18
ATOM     18  C   UNL     1      -2.808   4.229  25.421  0.00  0.00    +0.119 C 
BRANCH  18  19
ATOM     19  C   UNL     1      -3.587   3.990  25.286  0.00  0.00    +0.244 C 
ATOM     20  O   UNL     1      -3.891   3.992  24.519  0.00  0.00    -0.273 OA
ATOM     21  N   UNL     1      -4.060   3.750  25.917  0.00  0.00    -0.207 NA
BRANCH  21  22
ATOM     22  C   UNL     1      -4.838   3.512  25.782  0.00  0.00    +0.095 C 
ATOM     23  C   UNL     1      -5.434   2.945  25.850  0.00  0.00    +0.023 C 
ATOM     24  C   UNL     1      -5.590   3.665  25.481  0.00  0.00    +0.023 C 
ENDBRANCH  21  22
ENDBRANCH  18  19
ENDBRANCH  17  18
ENDBRANCH  14  15
BRANCH  14  13
ATOM     10  N   UNL     1      -1.973  -0.088  25.463  0.00  0.00    -0.161 NA
ATOM     11  C   UNL     1      -1.718   0.513  24.960  0.00  0.00    +0.344 C 
ATOM     12  O   UNL     1      -1.654   0.373  24.148  0.00  0.00    -0.249 OA
ATOM     13  N   UNL     1      -1.525   1.254  25.266  0.00  0.00    -0.184 NA
BRANCH  10   9
ATOM      3  C   UNL     1      -1.760  -2.109  24.666  0.00  0.00    +0.143 A 
ATOM      4  C   UNL     1      -2.551  -2.313  24.543  0.00  0.00    +0.074 A 
ATOM      5  C   UNL     1      -3.149  -1.774  24.727  0.00  0.00    +0.143 A 
ATOM      8  C   UNL     1      -2.957  -1.032  25.033  0.00  0.00    +0.054 A 
ATOM      9  C   UNL     1      -2.166  -0.829  25.157  0.00  0.00    +0.081 A 
ATOM     29  C   UNL     1      -1.568  -1.368  24.973  0.00  0.00    +0.054 A 
BRANCH   3   2
ATOM      1  C   UNL     1      -0.583  -2.827  25.040  0.00  0.00    +0.252 C 
ATOM      2  O   UNL     1      -1.163  -2.647  24.482  0.00  0.00    -0.471 OA
ENDBRANCH   3   2
BRANCH   5   6
ATOM      6  O   UNL     1      -3.939  -1.977  24.604  0.00  0.00    -0.471 OA
ATOM      7  C   UNL     1      -4.270  -1.907  23.851  0.00  0.00    +0.252 C 
ENDBRANCH   5   6
ENDBRANCH  10   9
ENDBRANCH  14  13
TORSDOF 8
ENDMDL
MODEL 4
REMARK VINA RESULT:      -8.6      2.030      3.642
REMARK  Name = 
REMARK  8 active torsions:
REMARK  status: ('A' for Active; 'I' for Inactive)
REMARK    1  A    between atoms: O_2  and  C_3
REMARK    2  A    between atoms: C_5  and  O_6
REMARK    3  A    between atoms: C_9  and  N_10
REMARK    4  A    between atoms: N_13  and  C_14
REMARK    5  A    between atoms: C_14  and  C_15
REMARK    6  A    between atoms: C_17  and  C_18
REMARK    7  A    between atoms: C_18  and  C_19
REMARK    8  A    between atoms: N_21  and  C_22
REMARK                            x       y       z     vdW  Elec       q    Type
REMARK                         _______ _______ _______ _____ _____    ______ ____
ROOT
ATOM     14  C   UNL     1      -0.893   3.123  24.868  0.00  0.00    +0.149 C 
ENDROOT
BRANCH  14  15
ATOM     15  C   UNL     1      -1.457   3.681  25.093  0.00  0.00    +0.170 C 
ATOM     16  O   UNL     1      -2.241   3.523  25.295  0.00  0.00    -0.351 OA
ATOM     17  C   UNL     1      -2.605   4.240  25.482  0.00  0.00    +0.157 C 
ATOM     25  C   UNL     1      -2.045   4.841  25.395  0.00  0.00    +0.212 C 
ATOM     26  O   UNL     1      -2.173   5.646  25.525  0.00  0.00    -0.218 OA
ATOM     27  C   UNL     1      -1.336   4.494  25.154  0.00  0.00    +0.213 C 
ATOM     28  O   UNL     1      -0.630   4.892  25.001  0.00  0.00    -0.218 OA
BRANCH  17  18
ATOM     18  C   UNL     1      -3.390   4.340  25.715  0.00  0.00    +0.119 C 
BRANCH  18  19
ATOM     19  C   UNL     1      -3.978   3.853  25.402  0.00  0.00    +0.244 C 
ATOM     20  O   UNL     1      -4.143   3.873  24.595  0.00  0.00    -0.273 OA
ATOM     21  N   UNL     1      -4.401   3.346  25.897  0.00  0.00    -0.207 NA
BRANCH  21  22
ATOM     22  C   UNL     1      -4.989   2.859  25.584  0.00  0.00    +0.095 C 
ATOM     23  C   UNL     1      -5.741   2.524  25.636  0.00  0.00    +0.023 C 
ATOM     24  C   UNL     1      -5.256   2.352  24.992  0.00  0.00    +0.023 C 
ENDBRANCH  21  22
ENDBRANCH  18  19
ENDBRANCH  17  18
ENDBRANCH  14  15
BRANCH  14  13
ATOM     10  N   UNL     1      -0.857   1.208  23.822  0.00  0.00    -0.161 NA
ATOM     11  C   UNL     1      -0.652   1.818  24.337  0.00  0.00    +0.344 C 
ATOM     12  O   UNL     1       0.000   1.735  24.837  0.00  0.00    -0.249 OA
ATOM     13  N   UNL     1      -1.098   2.512  24.353  0.00  0.00    -0.184 NA
BRANCH  10   9
ATOM      3  C   UNL     1      -0.118  -0.782  24.333  0.00  0.00    +0.143 A 
ATOM      4  C   UNL     1       0.482  -0.874  23.773  0.00  0.00    +0.074 A 
ATOM      5  C   UNL     1       0.635  -0.272  23.230  0.00  0.00    +0.143 A 
ATOM      8  C   UNL     1       0.189   0.423  23.246  0.00  0.00    +0.054 A 
ATOM      9  C   UNL     1      -0.411   0.515  23.806  0.00  0.00    +0.081 A 
ATOM     29  C   UNL     1      -0.564  -0.088  24.348  0.00  0.00    +0.054 A 
BRANCH   3   2
ATOM      1  C   UNL     1      -0.986  -1.794  24.845  0.00  0.00    +0.252 C 
ATOM      2  O   UNL     1      -0.271  -1.384  24.875  0.00  0.00    -0.471 OA
ENDBRANCH   3   2
BRANCH   5   6
ATOM      6  O   UNL     1       1.235  -0.363  22.671  0.00  0.00    -0.471 OA
ATOM      7  C   UNL     1       1.971  -0.011  22.795  0.00  0.00    +0.252 C 
ENDBRANCH   5   6
ENDBRANCH  10   9
ENDBRANCH  14  13
TORSDOF 8
ENDMDL
MODEL 5
REMARK VINA RESULT:      -8.3      1.648      5.826
REMARK  Name = 
REMARK  8 active torsions:
REMARK  status: ('A' for Active; 'I' for Inactive)
REMARK    1  A    between atoms: O_2  and  C_3
REMARK    2  A    between atoms: C_5  and  O_6
REMARK    3  A    between atoms: C_9  and  N_10
REMARK    4  A    between atoms: N_13  and  C_14
REMARK    5  A    between atoms: C_14  and  C_15
REMARK    6  A    between atoms: C_17  and  C_18
REMARK    7  A    between atoms: C_18  and  C_19
REMARK    8  A    between atoms: N_21  and  C_22
REMARK                            x       y       z     vdW  Elec       q    Type
REMARK                         _______ _______ _______ _____ _____    ______ ____
ROOT
ATOM     14  C   UNL     1      -1.291   1.255  24.349  0.00  0.00    +0.149 C 
ENDROOT
BRANCH  14  15
ATOM     15  C   UNL     1      -0.951   0.507  24.275  0.00  0.00    +0.170 C 
ATOM     16  O   UNL     1      -1.309  -0.209  24.470  0.00  0.00    -0.351 OA
ATOM     17  C   UNL     1      -0.771  -0.815  24.309  0.00  0.00    +0.157 C 
ATOM     25  C   UNL     1      -0.081  -0.471  24.015  0.00  0.00    +0.212 C 
ATOM     26  O   UNL     1       0.601  -0.874  23.783  0.00  0.00    -0.218 OA
ATOM     27  C   UNL     1      -0.192   0.347  23.995  0.00  0.00    +0.213 C 
ATOM     28  O   UNL     1       0.358   0.904  23.739  0.00  0.00    -0.218 OA
BRANCH  17  18
ATOM     18  C   UNL     1      -0.901  -1.622  24.422  0.00  0.00    +0.119 C 
BRANCH  18  19
ATOM     19  C   UNL     1      -1.633  -1.888  24.696  0.00  0.00    +0.244 C 
ATOM     20  O   UNL     1      -1.850  -1.758  25.481  0.00  0.00    -0.273 OA
ATOM     21  N   UNL     1      -2.145  -2.283  24.185  0.00  0.00    -0.207 NA
BRANCH  21  22
ATOM     22  C   UNL     1      -2.876  -2.549  24.458  0.00  0.00    +0.095 C 
ATOM     23  C   UNL     1      -3.665  -2.747  24.315  0.00  0.00    +0.023 C 
ATOM     24  C   UNL     1      -3.356  -2.812  25.076  0.00  0.00    +0.023 C 
ENDBRANCH  21  22
ENDBRANCH  18  19
ENDBRANCH  17  18
ENDBRANCH  14  15
BRANCH  14  13
ATOM     10  N   UNL     1      -3.336   1.951  24.037  0.00  0.00    -0.161 NA
ATOM     11  C   UNL     1      -2.617   1.787  24.404  0.00  0.00    +0.344 C 
ATOM     12  O   UNL     1      -2.502   1.990  25.197  0.00  0.00    -0.249 OA
ATOM     13  N   UNL     1      -2.011   1.420  23.981  0.00  0.00    -0.184 NA
BRANCH  10   9
ATOM      3  C   UNL     1      -4.538   3.504  24.991  0.00  0.00    +0.143 A 
ATOM      4  C   UNL     1      -5.154   3.052  25.307  0.00  0.00    +0.074 A 
ATOM      5  C   UNL     1      -5.162   2.234  25.199  0.00  0.00    +0.143 A 
ATOM      8  C   UNL     1      -4.557   1.867  24.775  0.00  0.00    +0.054 A 
ATOM      9  C   UNL     1      -3.941   2.318  24.460  0.00  0.00    +0.081 A 
ATOM     29  C   UNL     1      -3.933   3.136  24.568  0.00  0.00    +0.054 A 
BRANCH   3   2
ATOM      1  C   UNL     1      -4.294   4.639  25.823  0.00  0.00    +0.252 C 
ATOM      2  O   UNL     1      -4.529   4.321  25.099  0.00  0.00    -0.471 OA
ENDBRANCH   3   2
BRANCH   5   6
ATOM      6  O   UNL     1      -5.777   1.784  25.514  0.00  0.00    -0.471 OA
ATOM      7  C   UNL     1      -6.475   1.681  25.085  0.00  0.00    +0.252 C 
ENDBRANCH   5   6
ENDBRANCH  10   9
ENDBRANCH  14  13
TORSDOF 8
ENDMDL
MODEL 6
REMARK VINA RESULT:      -8.2      1.440      5.239
REMARK  Name = 
REMARK  8 active torsions:
REMARK  status: ('A' for Active; 'I' for Inactive)
REMARK    1  A    between atoms: O_2  and  C_3
REMARK    2  A    between atoms: C_5  and  O_6
REMARK    3  A    between atoms: C_9  and  N_10
REMARK    4  A    between atoms: N_13  and  C_14
REMARK    5  A    between atoms: C_14  and  C_15
REMARK    6  A    between atoms: C_17  and  C_18
REMARK    7  A    between atoms: C_18  and  C_19
REMARK    8  A    between atoms: N_21  and  C_22
REMARK                            x       y       z     vdW  Elec       q    Type
REMARK                         _______ _______ _______ _____ _____    ______ ____
ROOT
ATOM     14  C   UNL     1      -3.758  -0.345  24.588  0.00  0.00    +0.149 C 
ENDROOT
BRANCH  14  15
ATOM     15  C   UNL     1      -3.201  -0.953  24.542  0.00  0.00    +0.170 C 
ATOM     16  O   UNL     1      -2.382  -0.863  24.584  0.00  0.00    -0.351 OA
ATOM     17  C   UNL     1      -2.040  -1.611  24.514  0.00  0.00    +0.157 C 
ATOM     25  C   UNL     1      -2.649  -2.163  24.429  0.00  0.00    +0.212 C 
ATOM     26  O   UNL     1      -2.556  -2.978  24.342  0.00  0.00    -0.218 OA
ATOM     27  C   UNL     1      -3.366  -1.755  24.447  0.00  0.00    +0.213 C 
ATOM     28  O   UNL     1      -4.116  -2.091  24.381  0.00  0.00    -0.218 OA
BRANCH  17  18
ATOM     18  C   UNL     1      -1.233  -1.779  24.526  0.00  0.00    +0.119 C 
BRANCH  18  19
ATOM     19  C   UNL     1      -0.683  -1.171  24.430  0.00  0.00    +0.244 C 
ATOM     20  O   UNL     1      -0.461  -0.710  25.076  0.00  0.00    -0.273 OA
ATOM     21  N   UNL     1      -0.357  -1.024  23.687  0.00  0.00    -0.207 NA
BRANCH  21  22
ATOM     22  C   UNL     1       0.192  -0.416  23.590  0.00  0.00    +0.095 C 
ATOM     23  C   UNL     1       0.919  -0.148  23.306  0.00  0.00    +0.023 C 
ATOM     24  C   UNL     1       0.416   0.369  23.705  0.00  0.00    +0.023 C 
ENDBRANCH  21  22
ENDBRANCH  18  19
ENDBRANCH  17  18
ENDBRANCH  14  15
BRANCH  14  13
ATOM     10  N   UNL     1      -3.596   1.805  24.252  0.00  0.00    -0.161 NA
ATOM     11  C   UNL     1      -3.741   1.083  24.624  0.00  0.00    +0.344 C 
ATOM     12  O   UNL     1      -4.012   1.067  25.404  0.00  0.00    -0.249 OA
ATOM     13  N   UNL     1      -3.614   0.376  24.217  0.00  0.00    -0.184 NA
BRANCH  10   9
ATOM      3  C   UNL     1      -4.601   3.561  25.073  0.00  0.00    +0.143 A 
ATOM      4  C   UNL     1      -3.977   3.924  25.473  0.00  0.00    +0.074 A 
ATOM      5  C   UNL     1      -3.226   3.581  25.466  0.00  0.00    +0.143 A 
ATOM      8  C   UNL     1      -3.099   2.874  25.059  0.00  0.00    +0.054 A 
ATOM      9  C   UNL     1      -3.723   2.510  24.659  0.00  0.00    +0.081 A 
ATOM     29  C   UNL     1      -4.474   2.854  24.666  0.00  0.00    +0.054 A 
BRANCH   3   2
ATOM      1  C   UNL     1      -5.811   3.873  25.763  0.00  0.00    +0.252 C 
ATOM      2  O   UNL     1      -5.351   3.903  25.081  0.00  0.00    -0.471 OA
ENDBRANCH   3   2
BRANCH   5   6
ATOM      6  O   UNL     1      -2.603   3.944  25.866  0.00  0.00    -0.471 OA
ATOM      7  C   UNL     1      -2.072   4.422  25.453  0.00  0.00    +0.252 C 
ENDBRANCH   5   6
ENDBRANCH  10   9
ENDBRANCH  14  13
TORSDOF 8
ENDMDL
