MODEL 1
REMARK VINA RESULT:      -8.7      0.000      0.000
REMARK  Name = 
REMARK  8 active torsions:
REMARK  status: ('A' for Active; 'I' for Inactive)
REMARK    1  A    between atoms: C_2  and  C_4
REMARK    2  A    between atoms: C_6  and  C_7
REMARK    3  A    between atoms: C_7  and  C_8
REMARK    4  A    between atoms: C_19  and  C_20
REMARK    5  A    between atoms: C_20  and  N_21
REMARK    6  A    between atoms: N_21  and  S_22
REMARK    7  A    between atoms: S_22  and  C_25
REMARK    8  A    between atoms: C_28  and  N_29
REMARK                            x       y       z     vdW  Elec       q    Type
REMARK                         _______ _______ _______ _____ _____    ______ ____
ROOT
ATOM      4  C   UNL     1      -1.475   0.985  24.791  0.00  0.00    +0.006 C 
ATOM      5  C   UNL     1      -2.263   1.220  24.851  0.00  0.00    +0.005 C 
ATOM      6  C   UNL     1      -2.672   1.466  24.179  0.00  0.00    +0.027 C 
ATOM     16  C   UNL     1      -2.293   1.478  23.446  0.00  0.00    -0.048 C 
ATOM     17  C   UNL     1      -2.703   1.724  22.773  0.00  0.00    +0.026 C 
ATOM     18  C   UNL     1      -1.505   1.243  23.387  0.00  0.00    -0.033 C 
ATOM     19  C   UNL     1      -1.096   0.996  24.059  0.00  0.00    +0.041 C 
ENDROOT
BRANCH   4   2
ATOM      1  C   UNL     1      -0.607   1.277  25.888  0.00  0.00    +0.000 C 
ATOM      2  C   UNL     1      -1.066   0.739  25.464  0.00  0.00    +0.000 C 
ATOM      3  C   UNL     1      -1.115  -0.046  25.713  0.00  0.00    +0.000 C 
ENDBRANCH   4   2
BRANCH   6   7
ATOM      7  C   UNL     1      -3.461   1.701  24.238  0.00  0.00    +0.089 C 
BRANCH   7   8
ATOM      8  C   UNL     1      -3.666   2.345  24.713  0.00  0.00    +0.226 C 
ATOM      9  O   UNL     1      -3.103   2.922  24.890  0.00  0.00    -0.275 OA
ATOM     10  N   UNL     1      -4.432   2.412  25.010  0.00  0.00    -0.274 N 
ATOM     11  C   UNL     1      -4.995   1.834  24.833  0.00  0.00    +0.125 C 
ATOM     12  C   UNL     1      -5.761   1.902  25.130  0.00  0.00    +0.164 C 
ATOM     13  O   UNL     1      -5.966   2.545  25.604  0.00  0.00    -0.350 OA
ATOM     14  C   UNL     1      -5.403   3.121  25.781  0.00  0.00    +0.164 C 
ATOM     15  C   UNL     1      -4.636   3.055  25.484  0.00  0.00    +0.125 C 
ENDBRANCH   7   8
ENDBRANCH   6   7
BRANCH  19  20
ATOM     20  C   UNL     1      -0.307   0.762  23.999  0.00  0.00    +0.120 C 
BRANCH  20  21
ATOM     21  N   UNL     1       0.003   0.538  23.267  0.00  0.00    -0.077 NA
BRANCH  21  22
ATOM     22  S   UNL     1       0.819   0.534  23.149  0.00  0.00    +0.077 S 
ATOM     23  O   UNL     1       0.797  -0.281  23.029  0.00  0.00    -0.152 OA
ATOM     24  O   UNL     1       0.841   1.350  23.269  0.00  0.00    -0.152 OA
BRANCH  22  25
ATOM     25  C   UNL     1       1.635   0.530  23.030  0.00  0.00    +0.124 A 
ATOM     26  C   UNL     1       2.105   1.116  23.373  0.00  0.00    +0.021 A 
ATOM     27  C   UNL     1       2.921   1.111  23.254  0.00  0.00    +0.018 A 
ATOM     28  C   UNL     1       3.268   0.521  22.792  0.00  0.00    +0.073 A 
ATOM     33  C   UNL     1       2.799  -0.064  22.450  0.00  0.00    +0.018 A 
ATOM     34  C   UNL     1       1.982  -0.060  22.568  0.00  0.00    +0.021 A 
BRANCH  28  29
ATOM     29  N   UNL     1       4.085   0.518  22.674  0.00  0.00    -0.179 NA
ATOM     30  C   UNL     1       4.573   0.089  23.182  0.00  0.00    +0.246 C 
ATOM     31  C   UNL     1       5.389   0.085  23.065  0.00  0.00    +0.097 C 
ATOM     32  O   UNL     1       4.244  -0.336  23.809  0.00  0.00    -0.273 OA
ENDBRANCH  28  29
ENDBRANCH  22  25
ENDBRANCH  21  22
ENDBRANCH  20  21
ENDBRANCH  19  20
TORSDOF 8
ENDMDL
MODEL 2
REMARK VINA RESULT:      -7.5      1.277      6.799
REMARK  Name = 
REMARK  8 active torsions:
REMARK  status: ('A' for Active; 'I' for Inactive)
REMARK    1  A    between atoms: C_2  and  C_4
REMARK    2  A    between atoms: C_6  and  C_7
REMARK    3  A    between atoms: C_7  and  C_8
REMARK    4  A    between atoms: C_19  and  C_20
REMARK    5  A    between atoms: C_20  and  N_21
REMARK    6  A    between atoms: N_21  and  S_22
REMARK    7  A    between atoms: S_22  and  C_25
REMARK    8  A    between atoms: C_28  and  N_29
REMARK                            x       y       z     vdW  Elec       q    Type
REMARK                         _______ _______ _______ _____ _____    ______ ____
ROOT
ATOM      4  C   UNL     1       0.309   1.369  24.149  0.00  0.00    +0.006 C 
ATOM      5  C   UNL     1       1.057   1.084  23.951  0.00  0.00    +0.005 C 
ATOM      6  C   UNL     1       1.130   0.425  23.460  0.00  0.00    +0.027 C 
ATOM     16  C   UNL     1       0.456   0.051  23.167  0.00  0.00    -0.048 C 
ATOM     17  C   UNL     1       0.530  -0.608  22.676  0.00  0.00    +0.026 C 
ATOM     18  C   UNL     1      -0.292   0.337  23.365  0.00  0.00    -0.033 C 
ATOM     19  C   UNL     1      -0.365   0.996  23.856  0.00  0.00    +0.041 C 
ENDROOT
BRANCH   4   2
ATOM      1  C   UNL     1       0.179   2.783  24.312  0.00  0.00    +0.000 C 
ATOM      2  C   UNL     1       0.236   2.028  24.640  0.00  0.00    +0.000 C 
ATOM      3  C   UNL     1       0.219   1.933  25.459  0.00  0.00    +0.000 C 
ENDBRANCH   4   2
BRANCH   6   7
ATOM      7  C   UNL     1       1.879   0.138  23.263  0.00  0.00    +0.089 C 
BRANCH   7   8
ATOM      8  C   UNL     1       2.473   0.662  23.029  0.00  0.00    +0.226 C 
ATOM      9  O   UNL     1       2.274   1.417  22.759  0.00  0.00    -0.275 OA
ATOM     10  N   UNL     1       3.264   0.432  23.064  0.00  0.00    -0.274 N 
ATOM     11  C   UNL     1       3.462  -0.323  23.333  0.00  0.00    +0.125 C 
ATOM     12  C   UNL     1       4.253  -0.554  23.368  0.00  0.00    +0.164 C 
ATOM     13  O   UNL     1       4.846  -0.030  23.134  0.00  0.00    -0.350 OA
ATOM     14  C   UNL     1       4.648   0.724  22.865  0.00  0.00    +0.164 C 
ATOM     15  C   UNL     1       3.857   0.955  22.830  0.00  0.00    +0.125 C 
ENDBRANCH   7   8
ENDBRANCH   6   7
BRANCH  19  20
ATOM     20  C   UNL     1      -1.114   1.282  24.053  0.00  0.00    +0.120 C 
BRANCH  20  21
ATOM     21  N   UNL     1      -1.789   0.906  23.764  0.00  0.00    -0.077 NA
BRANCH  21  22
ATOM     22  S   UNL     1      -2.537   1.170  23.989  0.00  0.00    +0.077 S 
ATOM     23  O   UNL     1      -2.488   0.718  24.678  0.00  0.00    -0.152 OA
ATOM     24  O   UNL     1      -2.585   1.621  23.301  0.00  0.00    -0.152 OA
BRANCH  22  25
ATOM     25  C   UNL     1      -3.285   1.434  24.214  0.00  0.00    +0.124 A 
ATOM     26  C   UNL     1      -3.786   0.938  24.644  0.00  0.00    +0.021 A 
ATOM     27  C   UNL     1      -4.534   1.202  24.869  0.00  0.00    +0.018 A 
ATOM     28  C   UNL     1      -4.782   1.963  24.665  0.00  0.00    +0.073 A 
ATOM     33  C   UNL     1      -4.281   2.458  24.236  0.00  0.00    +0.018 A 
ATOM     34  C   UNL     1      -3.533   2.195  24.010  0.00  0.00    +0.021 A 
BRANCH  28  29
ATOM     29  N   UNL     1      -5.531   2.227  24.891  0.00  0.00    -0.179 NA
ATOM     30  C   UNL     1      -5.615   2.702  25.560  0.00  0.00    +0.246 C 
ATOM     31  C   UNL     1      -6.363   2.966  25.786  0.00  0.00    +0.097 C 
ATOM     32  O   UNL     1      -4.952   2.913  26.003  0.00  0.00    -0.273 OA
ENDBRANCH  28  29
ENDBRANCH  22  25
ENDBRANCH  21  22
ENDBRANCH  20  21
ENDBRANCH  19  20
TORSDOF 8
ENDMDL
MODEL 3
REMARK VINA RESULT:      -5.8     15.662     16.552
REMARK  Name = 
REMARK  8 active torsions:
REMARK  status: ('A' for Active; 'I' for Inactive)
REMARK    1  A    between atoms: C_2  and  C_4
REMARK    2  A    between atoms: C_6  and  C_7
REMARK    3  A    between atoms: C_7  and  C_8
REMARK    4  A    between atoms: C_19  and  C_20
REMARK    5  A    between atoms: C_20  and  N_21
REMARK    6  A    between atoms: N_21  and  S_22
REMARK    7  A    between atoms: S_22  and  C_25
REMARK    8  A    between atoms: C_28  and  N_29
REMARK                            x       y       z     vdW  Elec       q    Type
REMARK                         _______ _______ _______ _____ _____    ______ ____
ROOT
ATOM      4  C   UNL     1      -7.912  -9.987  14.490  0.00  0.00    +0.006 C 
ATOM      5  C   UNL     1      -8.182  -9.981  15.269  0.00  0.00    +0.005 C 
ATOM      6  C   UNL     1      -7.644  -9.926  15.892  0.00  0.00    +0.027 C 
ATOM     16  C   UNL     1      -6.836  -9.877  15.737  0.00  0.00    -0.048 C 
ATOM     17  C   UNL     1      -6.298  -9.822  16.360  0.00  0.00    +0.026 C 
ATOM     18  C   UNL     1      -6.566  -9.883  14.957  0.00  0.00    -0.033 C 
ATOM     19  C   UNL     1      -7.104  -9.938  14.334  0.00  0.00    +0.041 C 
ENDROOT
BRANCH   4   2
ATOM      1  C   UNL     1      -8.693 -10.781  13.596  0.00  0.00    +0.000 C 
ATOM      2  C   UNL     1      -8.450 -10.041  13.867  0.00  0.00    +0.000 C 
ATOM      3  C   UNL     1      -8.745  -9.356  13.515  0.00  0.00    +0.000 C 
ENDBRANCH   4   2
BRANCH   6   7
ATOM      7  C   UNL     1      -7.915  -9.920  16.672  0.00  0.00    +0.089 C 
BRANCH   7   8
ATOM      8  C   UNL     1      -8.512  -9.398  16.898  0.00  0.00    +0.226 C 
ATOM      9  O   UNL     1      -8.553  -8.646  16.559  0.00  0.00    -0.275 OA
ATOM     10  N   UNL     1      -9.070  -9.626  17.461  0.00  0.00    -0.274 N 
ATOM     11  C   UNL     1      -9.029 -10.378  17.800  0.00  0.00    +0.125 C 
ATOM     12  C   UNL     1      -9.586 -10.606  18.364  0.00  0.00    +0.164 C 
ATOM     13  O   UNL     1     -10.184 -10.084  18.589  0.00  0.00    -0.350 OA
ATOM     14  C   UNL     1     -10.224  -9.333  18.251  0.00  0.00    +0.164 C 
ATOM     15  C   UNL     1      -9.667  -9.104  17.687  0.00  0.00    +0.125 C 
ENDBRANCH   7   8
ENDBRANCH   6   7
BRANCH  19  20
ATOM     20  C   UNL     1      -6.832  -9.944  13.555  0.00  0.00    +0.120 C 
BRANCH  20  21
ATOM     21  N   UNL     1      -6.025  -9.875  13.397  0.00  0.00    -0.077 NA
BRANCH  21  22
ATOM     22  S   UNL     1      -5.753  -9.896  12.619  0.00  0.00    +0.077 S 
ATOM     23  O   UNL     1      -5.590 -10.700  12.698  0.00  0.00    -0.152 OA
ATOM     24  O   UNL     1      -5.917  -9.091  12.541  0.00  0.00    -0.152 OA
BRANCH  22  25
ATOM     25  C   UNL     1      -5.481  -9.916  11.841  0.00  0.00    +0.124 A 
ATOM     26  C   UNL     1      -5.036  -9.289  11.542  0.00  0.00    +0.021 A 
ATOM     27  C   UNL     1      -4.764  -9.309  10.764  0.00  0.00    +0.018 A 
ATOM     28  C   UNL     1      -4.937  -9.958  10.284  0.00  0.00    +0.073 A 
ATOM     33  C   UNL     1      -5.382 -10.585  10.582  0.00  0.00    +0.018 A 
ATOM     34  C   UNL     1      -5.654 -10.565  11.360  0.00  0.00    +0.021 A 
BRANCH  28  29
ATOM     29  N   UNL     1      -4.665  -9.978   9.505  0.00  0.00    -0.179 NA
ATOM     30  C   UNL     1      -5.114  -9.638   8.902  0.00  0.00    +0.246 C 
ATOM     31  C   UNL     1      -4.843  -9.657   8.124  0.00  0.00    +0.097 C 
ATOM     32  O   UNL     1      -5.835  -9.277   9.079  0.00  0.00    -0.273 OA
ENDBRANCH  28  29
ENDBRANCH  22  25
ENDBRANCH  21  22
ENDBRANCH  20  21
ENDBRANCH  19  20
TORSDOF 8
ENDMDL
MODEL 4
REMARK VINA RESULT:      -5.7     16.202     18.056
REMARK  Name = 
REMARK  8 active torsions:
REMARK  status: ('A' for Active; 'I' for Inactive)
REMARK    1  A    between atoms: C_2  and  C_4
REMARK    2  A    between atoms: C_6  and  C_7
REMARK    3  A    between atoms: C_7  and  C_8
REMARK    4  A    between atoms: C_19  and  C_20
REMARK    5  A    between atoms: C_20  and  N_21
REMARK    6  A    between atoms: N_21  and  S_22
REMARK    7  A    between atoms: S_22  and  C_25
REMARK    8  A    between atoms: C_28  and  N_29
REMARK                            x       y       z     vdW  Elec       q    Type
REMARK                         _______ _______ _______ _____ _____    ______ ____
ROOT
ATOM      4  C   UNL     1      -3.836 -10.185  11.412  0.00  0.00    +0.006 C 
ATOM      5  C   UNL     1      -3.341 -10.446  12.017  0.00  0.00    +0.005 C 
ATOM      6  C   UNL     1      -3.633 -10.520  12.785  0.00  0.00    +0.027 C 
ATOM     16  C   UNL     1      -4.420 -10.334  12.948  0.00  0.00    -0.048 C 
ATOM     17  C   UNL     1      -4.712 -10.408  13.716  0.00  0.00    +0.026 C 
ATOM     18  C   UNL     1      -4.915 -10.073  12.341  0.00  0.00    -0.033 C 
ATOM     19  C   UNL     1      -4.623  -9.999  11.573  0.00  0.00    +0.041 C 
ENDROOT
BRANCH   4   2
ATOM      1  C   UNL     1      -3.259  -9.384  10.378  0.00  0.00    +0.000 C 
ATOM      2  C   UNL     1      -3.544 -10.111  10.644  0.00  0.00    +0.000 C 
ATOM      3  C   UNL     1      -3.537 -10.764  10.140  0.00  0.00    +0.000 C 
ENDBRANCH   4   2
BRANCH   6   7
ATOM      7  C   UNL     1      -3.137 -10.781  13.392  0.00  0.00    +0.089 C 
BRANCH   7   8
ATOM      8  C   UNL     1      -2.409 -10.414  13.516  0.00  0.00    +0.226 C 
ATOM      9  O   UNL     1      -2.018 -10.049  12.887  0.00  0.00    -0.275 OA
ATOM     10  N   UNL     1      -2.070 -10.413  14.268  0.00  0.00    -0.274 N 
ATOM     11  C   UNL     1      -2.460 -10.779  14.897  0.00  0.00    +0.125 C 
ATOM     12  C   UNL     1      -2.121 -10.778  15.649  0.00  0.00    +0.164 C 
ATOM     13  O   UNL     1      -1.393 -10.411  15.773  0.00  0.00    -0.350 OA
ATOM     14  C   UNL     1      -1.003 -10.046  15.145  0.00  0.00    +0.164 C 
ATOM     15  C   UNL     1      -1.341 -10.047  14.392  0.00  0.00    +0.125 C 
ENDBRANCH   7   8
ENDBRANCH   6   7
BRANCH  19  20
ATOM     20  C   UNL     1      -5.119  -9.738  10.967  0.00  0.00    +0.120 C 
BRANCH  20  21
ATOM     21  N   UNL     1      -5.937  -9.732  11.076  0.00  0.00    -0.077 NA
BRANCH  21  22
ATOM     22  S   UNL     1      -6.422  -9.337  10.539  0.00  0.00    +0.077 S 
ATOM     23  O   UNL     1      -6.398  -8.663  11.015  0.00  0.00    -0.152 OA
ATOM     24  O   UNL     1      -6.445 -10.010  10.064  0.00  0.00    -0.152 OA
BRANCH  22  25
ATOM     25  C   UNL     1      -6.906  -8.941  10.003  0.00  0.00    +0.124 A 
ATOM     26  C   UNL     1      -7.692  -9.175   9.904  0.00  0.00    +0.021 A 
ATOM     27  C   UNL     1      -8.176  -8.780   9.368  0.00  0.00    +0.018 A 
ATOM     28  C   UNL     1      -7.876  -8.148   8.928  0.00  0.00    +0.073 A 
ATOM     33  C   UNL     1      -7.092  -7.914   9.026  0.00  0.00    +0.018 A 
ATOM     34  C   UNL     1      -6.606  -8.309   9.563  0.00  0.00    +0.021 A 
BRANCH  28  29
ATOM     29  N   UNL     1      -8.362  -7.752   8.391  0.00  0.00    -0.179 NA
ATOM     30  C   UNL     1      -9.029  -7.348   8.660  0.00  0.00    +0.246 C 
ATOM     31  C   UNL     1      -9.515  -6.952   8.124  0.00  0.00    +0.097 C 
ATOM     32  O   UNL     1      -9.210  -7.338   9.465  0.00  0.00    -0.273 OA
ENDBRANCH  28  29
ENDBRANCH  22  25
ENDBRANCH  21  22
ENDBRANCH  20  21
ENDBRANCH  19  20
TORSDOF 8
ENDMDL
MODEL 5
REMARK VINA RESULT:      -5.2     15.567     17.383
REMARK  Name = 
REMARK  8 active torsions:
REMARK  status: ('A' for Active; 'I' for Inactive)
REMARK    1  A    between atoms: C_2  and  C_4
REMARK    2  A    between atoms: C_6  and  C_7
REMARK    3  A    between atoms: C_7  and  C_8
REMARK    4  A    between atoms: C_19  and  C_20
REMARK    5  A    between atoms: C_20  and  N_21
REMARK    6  A    between atoms: N_21  and  S_22
REMARK    7  A    between atoms: S_22  and  C_25
REMARK    8  A    between atoms: C_28  and  N_29
REMARK                            x       y       z     vdW  Elec       q    Type
REMARK                         _______ _______ _______ _____ _____    ______ ____
ROOT
ATOM      4  C   UNL     1      -6.703  -9.840  12.833  0.00  0.00    +0.006 C 
ATOM      5  C   UNL     1      -6.174  -9.901  12.204  0.00  0.00    +0.005 C 
ATOM      6  C   UNL     1      -5.371 -10.019  12.351  0.00  0.00    +0.027 C 
ATOM     16  C   UNL     1      -5.097 -10.075  13.127  0.00  0.00    -0.048 C 
ATOM     17  C   UNL     1      -4.293 -10.193  13.274  0.00  0.00    +0.026 C 
ATOM     18  C   UNL     1      -5.627 -10.013  13.756  0.00  0.00    -0.033 C 
ATOM     19  C   UNL     1      -6.430  -9.896  13.609  0.00  0.00    +0.041 C 
ENDROOT
BRANCH   4   2
ATOM      1  C   UNL     1      -7.818  -8.958  12.681  0.00  0.00    +0.000 C 
ATOM      2  C   UNL     1      -7.506  -9.722  12.686  0.00  0.00    +0.000 C 
ATOM      3  C   UNL     1      -7.999 -10.368  12.544  0.00  0.00    +0.000 C 
ENDBRANCH   4   2
BRANCH   6   7
ATOM      7  C   UNL     1      -4.840 -10.080  11.721  0.00  0.00    +0.089 C 
BRANCH   7   8
ATOM      8  C   UNL     1      -4.817  -9.493  11.142  0.00  0.00    +0.226 C 
ATOM      9  O   UNL     1      -5.055  -8.724  11.325  0.00  0.00    -0.275 OA
ATOM     10  N   UNL     1      -4.555  -9.673  10.381  0.00  0.00    -0.274 N 
ATOM     11  C   UNL     1      -4.316 -10.442  10.199  0.00  0.00    +0.125 C 
ATOM     12  C   UNL     1      -4.054 -10.622   9.438  0.00  0.00    +0.164 C 
ATOM     13  O   UNL     1      -4.031 -10.034   8.859  0.00  0.00    -0.350 OA
ATOM     14  C   UNL     1      -4.269  -9.266   9.042  0.00  0.00    +0.164 C 
ATOM     15  C   UNL     1      -4.531  -9.085   9.803  0.00  0.00    +0.125 C 
ENDBRANCH   7   8
ENDBRANCH   6   7
BRANCH  19  20
ATOM     20  C   UNL     1      -6.960  -9.834  14.239  0.00  0.00    +0.120 C 
BRANCH  20  21
ATOM     21  N   UNL     1      -6.703  -9.978  15.010  0.00  0.00    -0.077 NA
BRANCH  21  22
ATOM     22  S   UNL     1      -7.236  -9.932  15.637  0.00  0.00    +0.077 S 
ATOM     23  O   UNL     1      -7.120 -10.734  15.793  0.00  0.00    -0.152 OA
ATOM     24  O   UNL     1      -7.352  -9.131  15.481  0.00  0.00    -0.152 OA
BRANCH  22  25
ATOM     25  C   UNL     1      -7.769  -9.887  16.265  0.00  0.00    +0.124 A 
ATOM     26  C   UNL     1      -8.099 -10.575  16.578  0.00  0.00    +0.021 A 
ATOM     27  C   UNL     1      -8.632 -10.530  17.205  0.00  0.00    +0.018 A 
ATOM     28  C   UNL     1      -8.836  -9.795  17.521  0.00  0.00    +0.073 A 
ATOM     33  C   UNL     1      -8.507  -9.106  17.208  0.00  0.00    +0.018 A 
ATOM     34  C   UNL     1      -7.974  -9.151  16.580  0.00  0.00    +0.021 A 
BRANCH  28  29
ATOM     29  N   UNL     1      -9.370  -9.750  18.148  0.00  0.00    -0.179 NA
ATOM     30  C   UNL     1     -10.181  -9.753  18.000  0.00  0.00    +0.246 C 
ATOM     31  C   UNL     1     -10.716  -9.708  18.627  0.00  0.00    +0.097 C 
ATOM     32  O   UNL     1     -10.459  -9.801  17.224  0.00  0.00    -0.273 OA
ENDBRANCH  28  29
ENDBRANCH  22  25
ENDBRANCH  21  22
ENDBRANCH  20  21
ENDBRANCH  19  20
TORSDOF 8
ENDMDL
