MODEL 1
REMARK VINA RESULT:      -9.6      0.000      0.000
REMARK  Name = 
REMARK  5 active torsions:
REMARK  status: ('A' for Active; 'I' for Inactive)
REMARK    1  A    between atoms: O_2  and  C_3
REMARK    2  A    between atoms: N_8  and  C_9
REMARK    3  A    between atoms: C_9  and  C_10
REMARK    4  A    between atoms: C_13  and  O_14
REMARK    5  A    between atoms: O_14  and  C_15
REMARK                            x       y       z     vdW  Elec       q    Type
REMARK                         _______ _______ _______ _____ _____    ______ ____
ROOT
ATOM     10  C   UNL     1      -3.773   0.467  24.421  0.00  0.00    -0.006 A 
ATOM     11  C   UNL     1      -4.340  -0.105  24.239  0.00  0.00    +0.000 A 
ATOM     12  C   UNL     1      -4.274  -0.866  24.551  0.00  0.00    +0.037 A 
ATOM     13  C   UNL     1      -3.641  -1.055  25.046  0.00  0.00    +0.147 A 
ATOM     19  C   UNL     1      -3.075  -0.484  25.228  0.00  0.00    +0.037 A 
ATOM     20  C   UNL     1      -3.141   0.277  24.916  0.00  0.00    +0.000 A 
ENDROOT
BRANCH  10   9
ATOM      9  C   UNL     1      -3.840   1.228  24.109  0.00  0.00    +0.099 C 
BRANCH   9   8
ATOM      3  C   UNL     1      -3.822   3.103  25.245  0.00  0.00    +0.161 C 
ATOM      4  C   UNL     1      -4.541   3.341  25.573  0.00  0.00    +0.173 C 
ATOM      5  O   UNL     1      -5.274   2.965  25.531  0.00  0.00    -0.350 OA
ATOM      6  C   UNL     1      -5.470   2.258  25.152  0.00  0.00    +0.160 C 
ATOM      7  C   UNL     1      -4.980   1.754  24.721  0.00  0.00    +0.105 C 
ATOM      8  N   UNL     1      -4.174   1.831  24.561  0.00  0.00    -0.265 NA
ATOM     21  C   UNL     1      -3.658   2.431  24.795  0.00  0.00    +0.105 C 
BRANCH   3   2
ATOM      1  C   UNL     1      -3.097   3.970  26.120  0.00  0.00    +0.174 C 
ATOM      2  O   UNL     1      -3.182   3.604  25.385  0.00  0.00    -0.350 OA
ENDBRANCH   3   2
ENDBRANCH   9   8
ENDBRANCH  10   9
BRANCH  13  14
ATOM     14  O   UNL     1      -3.575  -1.816  25.358  0.00  0.00    -0.404 OA
BRANCH  14  15
ATOM     15  C   UNL     1      -3.287  -2.431  24.889  0.00  0.00    +0.575 C 
ATOM     16  F   UNL     1      -2.998  -3.045  24.420  0.00  0.00    -0.133 F 
ATOM     17  F   UNL     1      -4.056  -2.612  24.653  0.00  0.00    -0.133 F 
ATOM     18  F   UNL     1      -2.518  -2.249  25.124  0.00  0.00    -0.133 F 
ENDBRANCH  14  15
ENDBRANCH  13  14
TORSDOF 5
ENDMDL
MODEL 2
REMARK VINA RESULT:      -9.5      2.746      3.294
REMARK  Name = 
REMARK  5 active torsions:
REMARK  status: ('A' for Active; 'I' for Inactive)
REMARK    1  A    between atoms: O_2  and  C_3
REMARK    2  A    between atoms: N_8  and  C_9
REMARK    3  A    between atoms: C_9  and  C_10
REMARK    4  A    between atoms: C_13  and  O_14
REMARK    5  A    between atoms: O_14  and  C_15
REMARK                            x       y       z     vdW  Elec       q    Type
REMARK                         _______ _______ _______ _____ _____    ______ ____
ROOT
ATOM     10  C   UNL     1      -1.769  -1.182  25.358  0.00  0.00    -0.006 A 
ATOM     11  C   UNL     1      -2.468  -0.884  25.680  0.00  0.00    +0.000 A 
ATOM     12  C   UNL     1      -3.192  -1.230  25.488  0.00  0.00    +0.037 A 
ATOM     13  C   UNL     1      -3.216  -1.875  24.973  0.00  0.00    +0.147 A 
ATOM     19  C   UNL     1      -2.518  -2.173  24.652  0.00  0.00    +0.037 A 
ATOM     20  C   UNL     1      -1.794  -1.827  24.844  0.00  0.00    +0.000 A 
ENDROOT
BRANCH  10   9
ATOM      9  C   UNL     1      -1.045  -0.836  25.550  0.00  0.00    +0.099 C 
BRANCH   9   8
ATOM      3  C   UNL     1      -0.662   1.303  25.256  0.00  0.00    +0.161 C 
ATOM      4  C   UNL     1      -0.316   1.519  24.539  0.00  0.00    +0.173 C 
ATOM      5  O   UNL     1      -0.092   1.035  23.910  0.00  0.00    -0.350 OA
ATOM      6  C   UNL     1      -0.159   0.215  23.843  0.00  0.00    +0.160 C 
ATOM      7  C   UNL     1      -0.465  -0.322  24.388  0.00  0.00    +0.105 C 
ATOM      8  N   UNL     1      -0.782  -0.174  25.135  0.00  0.00    -0.265 NA
ATOM     21  C   UNL     1      -0.870   0.550  25.522  0.00  0.00    +0.105 C 
BRANCH   3   2
ATOM      1  C   UNL     1      -0.224   2.450  25.987  0.00  0.00    +0.174 C 
ATOM      2  O   UNL     1      -0.823   1.922  25.777  0.00  0.00    -0.350 OA
ENDBRANCH   3   2
ENDBRANCH   9   8
ENDBRANCH  10   9
BRANCH  13  14
ATOM     14  O   UNL     1      -3.940  -2.221  24.781  0.00  0.00    -0.404 OA
BRANCH  14  15
ATOM     15  C   UNL     1      -4.218  -2.192  24.004  0.00  0.00    +0.575 C 
ATOM     16  F   UNL     1      -4.496  -2.164  23.229  0.00  0.00    -0.133 F 
ATOM     17  F   UNL     1      -4.504  -1.430  24.136  0.00  0.00    -0.133 F 
ATOM     18  F   UNL     1      -3.932  -2.954  23.874  0.00  0.00    -0.133 F 
ENDBRANCH  14  15
ENDBRANCH  13  14
TORSDOF 5
ENDMDL
MODEL 3
REMARK VINA RESULT:      -9.3      3.153      4.770
REMARK  Name = 
REMARK  5 active torsions:
REMARK  status: ('A' for Active; 'I' for Inactive)
REMARK    1  A    between atoms: O_2  and  C_3
REMARK    2  A    between atoms: N_8  and  C_9
REMARK    3  A    between atoms: C_9  and  C_10
REMARK    4  A    between atoms: C_13  and  O_14
REMARK    5  A    between atoms: O_14  and  C_15
REMARK                            x       y       z     vdW  Elec       q    Type
REMARK                         _______ _______ _______ _____ _____    ______ ____
ROOT
ATOM     10  C   UNL     1      -3.142   3.031  24.324  0.00  0.00    -0.006 A 
ATOM     11  C   UNL     1      -3.359   3.698  24.759  0.00  0.00    +0.000 A 
ATOM     12  C   UNL     1      -2.784   4.141  25.151  0.00  0.00    +0.037 A 
ATOM     13  C   UNL     1      -1.991   3.915  25.109  0.00  0.00    +0.147 A 
ATOM     19  C   UNL     1      -1.774   3.249  24.675  0.00  0.00    +0.037 A 
ATOM     20  C   UNL     1      -2.349   2.806  24.283  0.00  0.00    +0.000 A 
ENDROOT
BRANCH  10   9
ATOM      9  C   UNL     1      -3.717   2.588  23.932  0.00  0.00    +0.099 C 
BRANCH   9   8
ATOM      3  C   UNL     1      -4.009   0.475  24.439  0.00  0.00    +0.161 C 
ATOM      4  C   UNL     1      -4.619   0.305  24.968  0.00  0.00    +0.173 C 
ATOM      5  O   UNL     1      -5.141   0.827  25.335  0.00  0.00    -0.350 OA
ATOM      6  C   UNL     1      -5.181   1.649  25.266  0.00  0.00    +0.160 C 
ATOM      7  C   UNL     1      -4.710   2.150  24.812  0.00  0.00    +0.105 C 
ATOM      8  N   UNL     1      -4.081   1.955  24.314  0.00  0.00    -0.265 NA
ATOM     21  C   UNL     1      -3.769   1.209  24.148  0.00  0.00    +0.105 C 
BRANCH   3   2
ATOM      1  C   UNL     1      -3.944  -0.913  24.105  0.00  0.00    +0.174 C 
ATOM      2  O   UNL     1      -3.581  -0.175  24.165  0.00  0.00    -0.350 OA
ENDBRANCH   3   2
ENDBRANCH   9   8
ENDBRANCH  10   9
BRANCH  13  14
ATOM     14  O   UNL     1      -1.416   4.358  25.501  0.00  0.00    -0.404 OA
BRANCH  14  15
ATOM     15  C   UNL     1      -1.056   4.996  25.121  0.00  0.00    +0.575 C 
ATOM     16  F   UNL     1      -0.696   5.634  24.742  0.00  0.00    -0.133 F 
ATOM     17  F   UNL     1      -1.623   5.504  25.438  0.00  0.00    -0.133 F 
ATOM     18  F   UNL     1      -0.489   4.488  24.804  0.00  0.00    -0.133 F 
ENDBRANCH  14  15
ENDBRANCH  13  14
TORSDOF 5
ENDMDL
