REMARK  Name = 
REMARK  8 active torsions:
REMARK  status: ('A' for Active; 'I' for Inactive)
REMARK    1  A    between atoms: N_3  and  C_4
REMARK    2  A    between atoms: C_8  and  N_12
REMARK    3  A    between atoms: C_16  and  O_17
REMARK    4  A    between atoms: O_17  and  C_18
REMARK    5  A    between atoms: C_21  and  N_24
REMARK    6  A    between atoms: N_29  and  C_30
REMARK    7  A    between atoms: C_33  and  O_34
REMARK    8  A    between atoms: O_34  and  C_35
REMARK                            x       y       z     vdW  Elec       q    Type
REMARK                         _______ _______ _______ _____ _____    ______ ____
ROOT
ATOM      4  C   UNL     1       1.270  -0.922   0.000  0.00  0.00    +0.156 C 
ATOM      5  C   UNL     1       0.785  -0.255   0.000  0.00  0.00    +0.166 C 
ATOM      6  O   UNL     1       1.270   0.412   0.000  0.00  0.00    -0.350 OA
ATOM      7  C   UNL     1       2.054   0.158   0.000  0.00  0.00    +0.169 C 
ATOM      8  C   UNL     1       2.839   0.412   0.000  0.00  0.00    +0.170 C 
ATOM      9  C   UNL     1       3.324  -0.255   0.000  0.00  0.00    +0.169 C 
ATOM     10  O   UNL     1       2.839  -0.922   0.000  0.00  0.00    -0.350 OA
ATOM     11  C   UNL     1       2.054  -0.667   0.000  0.00  0.00    +0.167 C 
ENDROOT
BRANCH   8  12
ATOM     12  N   UNL     1       3.094   1.197   0.000  0.00  0.00    -0.180 N 
ATOM     13  N   UNL     1       2.609   1.865   0.000  0.00  0.00    -0.040 NA
ATOM     14  N   UNL     1       3.094   2.532   0.000  0.00  0.00    -0.020 NA
ATOM     15  N   UNL     1       3.878   2.277   0.000  0.00  0.00    -0.071 NA
ATOM     16  C   UNL     1       3.878   1.452   0.000  0.00  0.00    +0.343 A 
BRANCH  16  17
ATOM     17  O   UNL     1       4.546   0.967   0.000  0.00  0.00    -0.421 OA
BRANCH  17  18
ATOM     18  C   UNL     1       5.300   1.303   0.000  0.00  0.00    +0.149 A 
ATOM     19  C   UNL     1       5.386   2.123   0.000  0.00  0.00    +0.039 A 
ATOM     20  C   UNL     1       6.139   2.459   0.000  0.00  0.00    +0.021 A 
ATOM     21  C   UNL     1       6.807   1.974   0.000  0.00  0.00    +0.066 A 
ATOM     22  C   UNL     1       6.721   1.153   0.000  0.00  0.00    +0.021 A 
ATOM     23  C   UNL     1       5.967   0.818   0.000  0.00  0.00    +0.039 A 
BRANCH  21  24
ATOM     24  N   UNL     1       7.561   2.309   0.000  0.00  0.00    -0.286 N 
ATOM     25  C   UNL     1       7.732   3.116   0.000  0.00  0.00    +0.102 A 
ATOM     26  C   UNL     1       8.553   3.203   0.000  0.00  0.00    +0.120 A 
ATOM     27  N   UNL     1       8.888   2.449   0.000  0.00  0.00    -0.222 NA
ATOM     28  C   UNL     1       8.275   1.897   0.000  0.00  0.00    +0.183 A 
ENDBRANCH  21  24
ENDBRANCH  17  18
ENDBRANCH  16  17
ENDBRANCH   8  12
BRANCH   4   3
ATOM      1  O   UNL     1      -0.344  -1.265   0.000  0.00  0.00    -0.249 OA
ATOM      2  C   UNL     1       0.208  -1.879   0.000  0.00  0.00    +0.344 C 
ATOM      3  N   UNL     1       1.015  -1.707   0.000  0.00  0.00    -0.184 NA
ATOM     29  N   UNL     1      -0.047  -2.663   0.000  0.00  0.00    -0.161 NA
BRANCH  29  30
ATOM     30  C   UNL     1      -0.854  -2.835   0.000  0.00  0.00    +0.075 A 
ATOM     31  C   UNL     1      -1.109  -3.619   0.000  0.00  0.00    +0.020 A 
ATOM     32  C   UNL     1      -1.916  -3.791   0.000  0.00  0.00    +0.039 A 
ATOM     33  C   UNL     1      -2.468  -3.178   0.000  0.00  0.00    +0.145 A 
ATOM     41  C   UNL     1      -2.213  -2.393   0.000  0.00  0.00    +0.039 A 
ATOM     42  C   UNL     1      -1.406  -2.222   0.000  0.00  0.00    +0.020 A 
BRANCH  33  34
ATOM     34  O   UNL     1      -3.275  -3.349   0.000  0.00  0.00    -0.453 OA
BRANCH  34  35
ATOM     35  C   UNL     1      -3.827  -2.736   0.000  0.00  0.00    +0.145 A 
ATOM     36  C   UNL     1      -4.634  -2.908   0.000  0.00  0.00    +0.037 A 
ATOM     37  C   UNL     1      -5.186  -2.295   0.000  0.00  0.00    +0.003 A 
ATOM     38  C   UNL     1      -4.931  -1.510   0.000  0.00  0.00    +0.000 A 
ATOM     39  C   UNL     1      -4.124  -1.338   0.000  0.00  0.00    +0.003 A 
ATOM     40  C   UNL     1      -3.572  -1.952   0.000  0.00  0.00    +0.037 A 
ENDBRANCH  34  35
ENDBRANCH  33  34
ENDBRANCH  29  30
ENDBRANCH   4   3
TORSDOF 8
