MODEL 1
REMARK VINA RESULT:      -9.6      0.000      0.000
REMARK  Name = 
REMARK  5 active torsions:
REMARK  status: ('A' for Active; 'I' for Inactive)
REMARK    1  A    between atoms: C_2  and  C_31
REMARK    2  A    between atoms: N_3  and  C_4
REMARK    3  A    between atoms: C_8  and  N_12
REMARK    4  A    between atoms: C_15  and  C_19
REMARK    5  A    between atoms: C_22  and  C_25
REMARK                            x       y       z     vdW  Elec       q    Type
REMARK                         _______ _______ _______ _____ _____    ______ ____
ROOT
ATOM     12  N   UNL     1       0.442   0.645  23.100  0.00  0.00    -0.200 NA
ATOM     13  C   UNL     1      -0.087   0.290  23.624  0.00  0.00    +0.237 A 
ATOM     14  N   UNL     1      -0.827   0.628  23.755  0.00  0.00    -0.212 NA
ATOM     15  C   UNL     1      -1.357   0.273  24.279  0.00  0.00    +0.086 A 
ATOM     16  C   UNL     1      -1.145  -0.421  24.672  0.00  0.00    +0.040 A 
ATOM     17  C   UNL     1      -0.404  -0.759  24.541  0.00  0.00    +0.103 A 
ATOM     18  N   UNL     1       0.125  -0.404  24.017  0.00  0.00    -0.211 NA
ENDROOT
BRANCH  12   8
ATOM      4  C   UNL     1       3.232   0.523  22.948  0.00  0.00    +0.154 C 
ATOM      5  C   UNL     1       3.089   1.300  23.185  0.00  0.00    +0.166 C 
ATOM      6  O   UNL     1       2.273   1.401  23.248  0.00  0.00    -0.350 OA
ATOM      7  C   UNL     1       1.911   0.687  23.052  0.00  0.00    +0.166 C 
ATOM      8  C   UNL     1       1.184   0.307  22.969  0.00  0.00    +0.154 C 
ATOM      9  C   UNL     1       1.326  -0.470  22.733  0.00  0.00    +0.166 C 
ATOM     10  O   UNL     1       2.142  -0.571  22.669  0.00  0.00    -0.350 OA
ATOM     11  C   UNL     1       2.504   0.144  22.866  0.00  0.00    +0.166 C 
BRANCH   4   3
ATOM      1  O   UNL     1       4.493   0.883  23.950  0.00  0.00    -0.273 OA
ATOM      2  C   UNL     1       4.603   0.364  23.318  0.00  0.00    +0.241 C 
ATOM      3  N   UNL     1       3.973   0.184  22.817  0.00  0.00    -0.202 NA
BRANCH   2  31
ATOM     31  C   UNL     1       5.344   0.026  23.187  0.00  0.00    +0.078 C 
ATOM     32  C   UNL     1       6.037  -0.312  23.480  0.00  0.00    +0.010 C 
ATOM     33  C   UNL     1       5.934  -0.223  22.667  0.00  0.00    +0.010 C 
ENDBRANCH   2  31
ENDBRANCH   4   3
ENDBRANCH  12   8
BRANCH  15  19
ATOM     19  C   UNL     1      -2.097   0.611  24.410  0.00  0.00    +0.018 A 
ATOM     20  C   UNL     1      -2.170   1.265  24.910  0.00  0.00    +0.001 A 
ATOM     21  C   UNL     1      -2.910   1.604  25.041  0.00  0.00    +0.000 A 
ATOM     22  C   UNL     1      -3.579   1.289  24.674  0.00  0.00    +0.000 A 
ATOM     23  C   UNL     1      -3.506   0.636  24.175  0.00  0.00    +0.000 A 
ATOM     24  C   UNL     1      -2.765   0.298  24.043  0.00  0.00    +0.001 A 
BRANCH  22  25
ATOM     25  C   UNL     1      -4.319   1.627  24.805  0.00  0.00    +0.000 A 
ATOM     26  C   UNL     1      -4.428   2.437  24.692  0.00  0.00    +0.000 A 
ATOM     27  C   UNL     1      -5.169   2.776  24.824  0.00  0.00    +0.000 A 
ATOM     28  C   UNL     1      -5.801   2.304  25.067  0.00  0.00    +0.000 A 
ATOM     29  C   UNL     1      -5.692   1.494  25.180  0.00  0.00    +0.000 A 
ATOM     30  C   UNL     1      -4.951   1.156  25.049  0.00  0.00    +0.000 A 
ENDBRANCH  22  25
ENDBRANCH  15  19
TORSDOF 5
ENDMDL
MODEL 2
REMARK VINA RESULT:      -6.4      2.311      7.326
REMARK  Name = 
REMARK  5 active torsions:
REMARK  status: ('A' for Active; 'I' for Inactive)
REMARK    1  A    between atoms: C_2  and  C_31
REMARK    2  A    between atoms: N_3  and  C_4
REMARK    3  A    between atoms: C_8  and  N_12
REMARK    4  A    between atoms: C_15  and  C_19
REMARK    5  A    between atoms: C_22  and  C_25
REMARK                            x       y       z     vdW  Elec       q    Type
REMARK                         _______ _______ _______ _____ _____    ______ ____
ROOT
ATOM     12  N   UNL     1      -1.402   2.004  23.418  0.00  0.00    -0.200 NA
ATOM     13  C   UNL     1      -0.994   1.310  23.595  0.00  0.00    +0.237 A 
ATOM     14  N   UNL     1      -0.187   1.253  23.438  0.00  0.00    -0.212 NA
ATOM     15  C   UNL     1       0.221   0.558  23.616  0.00  0.00    +0.086 A 
ATOM     16  C   UNL     1      -0.179  -0.080  23.951  0.00  0.00    +0.040 A 
ATOM     17  C   UNL     1      -0.988  -0.024  24.109  0.00  0.00    +0.103 A 
ATOM     18  N   UNL     1      -1.395   0.671  23.931  0.00  0.00    -0.211 NA
ENDROOT
BRANCH  12   8
ATOM      4  C   UNL     1      -3.748   3.054  24.520  0.00  0.00    +0.154 C 
ATOM      5  C   UNL     1      -3.162   3.561  24.803  0.00  0.00    +0.166 C 
ATOM      6  O   UNL     1      -2.437   3.301  24.510  0.00  0.00    -0.350 OA
ATOM      7  C   UNL     1      -2.573   2.634  24.045  0.00  0.00    +0.166 C 
ATOM      8  C   UNL     1      -2.211   2.061  23.576  0.00  0.00    +0.154 C 
ATOM      9  C   UNL     1      -2.796   1.554  23.292  0.00  0.00    +0.166 C 
ATOM     10  O   UNL     1      -3.521   1.814  23.586  0.00  0.00    -0.350 OA
ATOM     11  C   UNL     1      -3.384   2.482  24.051  0.00  0.00    +0.166 C 
BRANCH   4   3
ATOM      1  O   UNL     1      -4.267   3.482  26.027  0.00  0.00    -0.273 OA
ATOM      2  C   UNL     1      -4.815   3.324  25.431  0.00  0.00    +0.241 C 
ATOM      3  N   UNL     1      -4.556   3.110  24.678  0.00  0.00    -0.202 NA
BRANCH   2  31
ATOM     31  C   UNL     1      -5.623   3.381  25.589  0.00  0.00    +0.078 C 
ATOM     32  C   UNL     1      -6.306   3.837  25.669  0.00  0.00    +0.010 C 
ATOM     33  C   UNL     1      -6.340   3.021  25.781  0.00  0.00    +0.010 C 
ENDBRANCH   2  31
ENDBRANCH   4   3
ENDBRANCH  12   8
BRANCH  15  19
ATOM     19  C   UNL     1       1.028   0.502  23.458  0.00  0.00    +0.018 A 
ATOM     20  C   UNL     1       1.542   1.095  23.717  0.00  0.00    +0.001 A 
ATOM     21  C   UNL     1       2.349   1.038  23.560  0.00  0.00    +0.000 A 
ATOM     22  C   UNL     1       2.644   0.390  23.144  0.00  0.00    +0.000 A 
ATOM     23  C   UNL     1       2.132  -0.202  22.885  0.00  0.00    +0.000 A 
ATOM     24  C   UNL     1       1.323  -0.146  23.042  0.00  0.00    +0.001 A 
BRANCH  22  25
ATOM     25  C   UNL     1       3.452   0.333  22.986  0.00  0.00    +0.000 A 
ATOM     26  C   UNL     1       3.806   0.857  22.457  0.00  0.00    +0.000 A 
ATOM     27  C   UNL     1       4.614   0.801  22.299  0.00  0.00    +0.000 A 
ATOM     28  C   UNL     1       5.067   0.220  22.671  0.00  0.00    +0.000 A 
ATOM     29  C   UNL     1       4.713  -0.304  23.200  0.00  0.00    +0.000 A 
ATOM     30  C   UNL     1       3.905  -0.247  23.357  0.00  0.00    +0.000 A 
ENDBRANCH  22  25
ENDBRANCH  15  19
TORSDOF 5
ENDMDL
