MODEL 1
REMARK VINA RESULT:     -11.7      0.000      0.000
REMARK  Name = 
REMARK  7 active torsions:
REMARK  status: ('A' for Active; 'I' for Inactive)
REMARK    1  A    between atoms: C_4  and  C_7
REMARK    2  A    between atoms: N_9  and  C_10
REMARK    3  A    between atoms: C_10  and  C_11
REMARK    4  A    between atoms: C_13  and  C_14
REMARK    5  A    between atoms: C_18  and  N_19
REMARK    6  A    between atoms: N_22  and  C_25
REMARK    7  A    between atoms: C_27  and  C_31
REMARK                            x       y       z     vdW  Elec       q    Type
REMARK                         _______ _______ _______ _____ _____    ______ ____
ROOT
ATOM     11  C   UNL     1      -4.039   2.500  25.230  0.00  0.00    +0.154 C 
ATOM     12  O   UNL     1      -4.474   3.186  25.371  0.00  0.00    -0.350 OA
ATOM     13  C   UNL     1      -5.274   3.001  25.300  0.00  0.00    +0.180 C 
ATOM     16  C   UNL     1      -5.334   2.199  25.116  0.00  0.00    +0.198 C 
ATOM     17  O   UNL     1      -6.035   1.781  24.996  0.00  0.00    -0.219 OA
ATOM     18  C   UNL     1      -4.571   1.890  25.073  0.00  0.00    +0.120 C 
ENDROOT
BRANCH  18  19
ATOM     19  N   UNL     1      -4.374   1.107  24.902  0.00  0.00    -0.267 NA
ATOM     20  C   UNL     1      -4.165   0.892  24.133  0.00  0.00    +0.094 C 
ATOM     21  C   UNL     1      -3.969   0.108  23.964  0.00  0.00    +0.108 C 
ATOM     22  N   UNL     1      -3.982  -0.459  24.561  0.00  0.00    -0.305 N 
ATOM     23  C   UNL     1      -4.191  -0.245  25.330  0.00  0.00    +0.108 C 
ATOM     24  C   UNL     1      -4.388   0.538  25.500  0.00  0.00    +0.094 C 
BRANCH  22  25
ATOM     25  C   UNL     1      -3.786  -1.243  24.391  0.00  0.00    +0.048 A 
ATOM     26  C   UNL     1      -3.041  -1.534  24.592  0.00  0.00    +0.018 A 
ATOM     27  C   UNL     1      -2.844  -2.317  24.423  0.00  0.00    +0.073 A 
ATOM     28  C   UNL     1      -3.393  -2.809  24.052  0.00  0.00    +0.004 A 
ATOM     29  C   UNL     1      -4.138  -2.518  23.851  0.00  0.00    +0.001 A 
ATOM     30  C   UNL     1      -4.335  -1.735  24.021  0.00  0.00    +0.015 A 
BRANCH  27  31
ATOM     31  C   UNL     1      -2.098  -2.608  24.624  0.00  0.00    +0.419 C 
ATOM     32  F   UNL     1      -1.353  -2.899  24.824  0.00  0.00    -0.166 F 
ATOM     33  F   UNL     1      -2.392  -2.858  25.353  0.00  0.00    -0.166 F 
ATOM     34  F   UNL     1      -1.804  -2.357  23.895  0.00  0.00    -0.166 F 
ENDBRANCH  27  31
ENDBRANCH  22  25
ENDBRANCH  18  19
BRANCH  13  14
ATOM     14  C   UNL     1      -5.904   3.525  25.396  0.00  0.00    +0.214 C 
ATOM     15  O   UNL     1      -5.783   4.251  25.768  0.00  0.00    -0.218 OA
ENDBRANCH  13  14
BRANCH  11  10
ATOM     10  C   UNL     1      -3.217   2.434  25.244  0.00  0.00    +0.146 C 
BRANCH  10   9
ATOM      7  C   UNL     1      -1.943   3.084  25.264  0.00  0.00    +0.268 C 
ATOM      8  O   UNL     1      -1.609   2.416  25.615  0.00  0.00    -0.268 OA
ATOM      9  N   UNL     1      -2.748   3.093  25.079  0.00  0.00    -0.199 NA
BRANCH   7   4
ATOM      1  C   UNL     1      -1.044   5.829  24.964  0.00  0.00    +0.154 C 
ATOM      2  N   UNL     1      -1.061   5.004  24.961  0.00  0.00    -0.247 N 
ATOM      3  C   UNL     1      -1.697   4.531  25.190  0.00  0.00    +0.101 A 
ATOM      4  C   UNL     1      -1.474   3.742  25.099  0.00  0.00    +0.095 A 
ATOM      5  C   UNL     1      -0.701   3.727  24.813  0.00  0.00    +0.126 A 
ATOM      6  N   UNL     1      -0.445   4.507  24.728  0.00  0.00    -0.167 NA
ENDBRANCH   7   4
ENDBRANCH  10   9
ENDBRANCH  11  10
TORSDOF 7
ENDMDL
MODEL 2
REMARK VINA RESULT:     -10.7      3.185      6.318
REMARK  Name = 
REMARK  7 active torsions:
REMARK  status: ('A' for Active; 'I' for Inactive)
REMARK    1  A    between atoms: C_4  and  C_7
REMARK    2  A    between atoms: N_9  and  C_10
REMARK    3  A    between atoms: C_10  and  C_11
REMARK    4  A    between atoms: C_13  and  C_14
REMARK    5  A    between atoms: C_18  and  N_19
REMARK    6  A    between atoms: N_22  and  C_25
REMARK    7  A    between atoms: C_27  and  C_31
REMARK                            x       y       z     vdW  Elec       q    Type
REMARK                         _______ _______ _______ _____ _____    ______ ____
ROOT
ATOM     11  C   UNL     1      -0.369   0.009  24.186  0.00  0.00    +0.154 C 
ATOM     12  O   UNL     1       0.136  -0.524  23.808  0.00  0.00    -0.350 OA
ATOM     13  C   UNL     1       0.715  -0.091  23.411  0.00  0.00    +0.180 C 
ATOM     16  C   UNL     1       0.568   0.711  23.544  0.00  0.00    +0.198 C 
ATOM     17  O   UNL     1       1.013   1.339  23.249  0.00  0.00    -0.219 OA
ATOM     18  C   UNL     1      -0.101   0.772  24.022  0.00  0.00    +0.120 C 
ENDROOT
BRANCH  18  19
ATOM     19  N   UNL     1      -0.442   1.473  24.290  0.00  0.00    -0.267 NA
ATOM     20  C   UNL     1      -0.218   1.790  25.018  0.00  0.00    +0.094 C 
ATOM     21  C   UNL     1      -0.560   2.492  25.285  0.00  0.00    +0.108 C 
ATOM     22  N   UNL     1      -1.125   2.877  24.825  0.00  0.00    -0.305 N 
ATOM     23  C   UNL     1      -1.350   2.561  24.096  0.00  0.00    +0.108 C 
ATOM     24  C   UNL     1      -1.008   1.859  23.829  0.00  0.00    +0.094 C 
BRANCH  22  25
ATOM     25  C   UNL     1      -1.467   3.579  25.092  0.00  0.00    +0.048 A 
ATOM     26  C   UNL     1      -2.195   3.561  25.480  0.00  0.00    +0.018 A 
ATOM     27  C   UNL     1      -2.537   4.263  25.747  0.00  0.00    +0.073 A 
ATOM     28  C   UNL     1      -2.151   4.982  25.627  0.00  0.00    +0.004 A 
ATOM     29  C   UNL     1      -1.423   5.000  25.239  0.00  0.00    +0.001 A 
ATOM     30  C   UNL     1      -1.081   4.298  24.971  0.00  0.00    +0.015 A 
BRANCH  27  31
ATOM     31  C   UNL     1      -3.265   4.245  26.135  0.00  0.00    +0.419 C 
ATOM     32  F   UNL     1      -3.993   4.227  26.523  0.00  0.00    -0.166 F 
ATOM     33  F   UNL     1      -3.654   4.257  25.407  0.00  0.00    -0.166 F 
ATOM     34  F   UNL     1      -2.877   4.233  26.863  0.00  0.00    -0.166 F 
ENDBRANCH  27  31
ENDBRANCH  22  25
ENDBRANCH  18  19
BRANCH  13  14
ATOM     14  C   UNL     1       1.331  -0.403  22.961  0.00  0.00    +0.214 C 
ATOM     15  O   UNL     1       1.207  -0.596  22.169  0.00  0.00    -0.218 OA
ENDBRANCH  13  14
BRANCH  11  10
ATOM     10  C   UNL     1      -1.025  -0.186  24.646  0.00  0.00    +0.146 C 
BRANCH  10   9
ATOM      7  C   UNL     1      -2.117  -1.068  24.916  0.00  0.00    +0.268 C 
ATOM      8  O   UNL     1      -2.190  -0.746  25.672  0.00  0.00    -0.268 OA
ATOM      9  N   UNL     1      -1.534  -0.788  24.402  0.00  0.00    -0.199 NA
BRANCH   7   4
ATOM      1  C   UNL     1      -4.404  -2.467  23.800  0.00  0.00    +0.154 C 
ATOM      2  N   UNL     1      -3.678  -2.312  24.160  0.00  0.00    -0.247 N 
ATOM      3  C   UNL     1      -3.358  -1.566  24.305  0.00  0.00    +0.101 A 
ATOM      4  C   UNL     1      -2.627  -1.669  24.673  0.00  0.00    +0.095 A 
ATOM      5  C   UNL     1      -2.495  -2.480  24.755  0.00  0.00    +0.126 A 
ATOM      6  N   UNL     1      -3.145  -2.877  24.438  0.00  0.00    -0.167 NA
ENDBRANCH   7   4
ENDBRANCH  10   9
ENDBRANCH  11  10
TORSDOF 7
ENDMDL
MODEL 3
REMARK VINA RESULT:     -10.4      1.631      3.496
REMARK  Name = 
REMARK  7 active torsions:
REMARK  status: ('A' for Active; 'I' for Inactive)
REMARK    1  A    between atoms: C_4  and  C_7
REMARK    2  A    between atoms: N_9  and  C_10
REMARK    3  A    between atoms: C_10  and  C_11
REMARK    4  A    between atoms: C_13  and  C_14
REMARK    5  A    between atoms: C_18  and  N_19
REMARK    6  A    between atoms: N_22  and  C_25
REMARK    7  A    between atoms: C_27  and  C_31
REMARK                            x       y       z     vdW  Elec       q    Type
REMARK                         _______ _______ _______ _____ _____    ______ ____
ROOT
ATOM     11  C   UNL     1      -2.038   2.807  24.522  0.00  0.00    +0.154 C 
ATOM     12  O   UNL     1      -1.729   3.568  24.599  0.00  0.00    -0.350 OA
ATOM     13  C   UNL     1      -0.937   3.502  24.819  0.00  0.00    +0.180 C 
ATOM     16  C   UNL     1      -0.756   2.699  24.878  0.00  0.00    +0.198 C 
ATOM     17  O   UNL     1      -0.023   2.381  25.084  0.00  0.00    -0.219 OA
ATOM     18  C   UNL     1      -1.436   2.270  24.695  0.00  0.00    +0.120 C 
ENDROOT
BRANCH  18  19
ATOM     19  N   UNL     1      -1.503   1.448  24.685  0.00  0.00    -0.267 NA
ATOM     20  C   UNL     1      -1.443   1.037  23.973  0.00  0.00    +0.094 C 
ATOM     21  C   UNL     1      -1.510   0.214  23.965  0.00  0.00    +0.108 C 
ATOM     22  N   UNL     1      -1.635  -0.197  24.668  0.00  0.00    -0.305 N 
ATOM     23  C   UNL     1      -1.695   0.214  25.382  0.00  0.00    +0.108 C 
ATOM     24  C   UNL     1      -1.629   1.036  25.390  0.00  0.00    +0.094 C 
BRANCH  22  25
ATOM     25  C   UNL     1      -1.702  -1.019  24.660  0.00  0.00    +0.048 A 
ATOM     26  C   UNL     1      -2.447  -1.372  24.644  0.00  0.00    +0.018 A 
ATOM     27  C   UNL     1      -2.515  -2.195  24.636  0.00  0.00    +0.073 A 
ATOM     28  C   UNL     1      -1.836  -2.664  24.643  0.00  0.00    +0.004 A 
ATOM     29  C   UNL     1      -1.090  -2.311  24.659  0.00  0.00    +0.001 A 
ATOM     30  C   UNL     1      -1.023  -1.489  24.667  0.00  0.00    +0.015 A 
BRANCH  27  31
ATOM     31  C   UNL     1      -3.260  -2.548  24.621  0.00  0.00    +0.419 C 
ATOM     32  F   UNL     1      -4.005  -2.901  24.605  0.00  0.00    -0.166 F 
ATOM     33  F   UNL     1      -3.281  -2.470  23.799  0.00  0.00    -0.166 F 
ATOM     34  F   UNL     1      -3.240  -2.626  25.441  0.00  0.00    -0.166 F 
ENDBRANCH  27  31
ENDBRANCH  22  25
ENDBRANCH  18  19
BRANCH  13  14
ATOM     14  C   UNL     1      -0.417   4.128  24.956  0.00  0.00    +0.214 C 
ATOM     15  O   UNL     1      -0.695   4.904  24.942  0.00  0.00    -0.218 OA
ENDBRANCH  13  14
BRANCH  11  10
ATOM     10  C   UNL     1      -2.812   2.616  24.311  0.00  0.00    +0.146 C 
BRANCH  10   9
ATOM      7  C   UNL     1      -4.212   2.740  24.571  0.00  0.00    +0.268 C 
ATOM      8  O   UNL     1      -4.374   2.572  23.780  0.00  0.00    -0.268 OA
ATOM      9  N   UNL     1      -3.431   2.762  24.837  0.00  0.00    -0.199 NA
BRANCH   7   4
ATOM      1  C   UNL     1      -6.406   2.345  26.433  0.00  0.00    +0.154 C 
ATOM      2  N   UNL     1      -5.840   2.704  25.952  0.00  0.00    -0.247 N 
ATOM      3  C   UNL     1      -5.285   2.315  25.482  0.00  0.00    +0.101 A 
ATOM      4  C   UNL     1      -4.831   2.886  25.096  0.00  0.00    +0.095 A 
ATOM      5  C   UNL     1      -5.105   3.629  25.328  0.00  0.00    +0.126 A 
ATOM      6  N   UNL     1      -5.729   3.517  25.858  0.00  0.00    -0.167 NA
ENDBRANCH   7   4
ENDBRANCH  10   9
ENDBRANCH  11  10
TORSDOF 7
ENDMDL
MODEL 4
REMARK VINA RESULT:     -10.1      3.051      4.176
REMARK  Name = 
REMARK  7 active torsions:
REMARK  status: ('A' for Active; 'I' for Inactive)
REMARK    1  A    between atoms: C_4  and  C_7
REMARK    2  A    between atoms: N_9  and  C_10
REMARK    3  A    between atoms: C_10  and  C_11
REMARK    4  A    between atoms: C_13  and  C_14
REMARK    5  A    between atoms: C_18  and  N_19
REMARK    6  A    between atoms: N_22  and  C_25
REMARK    7  A    between atoms: C_27  and  C_31
REMARK                            x       y       z     vdW  Elec       q    Type
REMARK                         _______ _______ _______ _____ _____    ______ ____
ROOT
ATOM     11  C   UNL     1      -0.038   1.272  24.565  0.00  0.00    +0.154 C 
ATOM     12  O   UNL     1       0.413   1.892  24.871  0.00  0.00    -0.350 OA
ATOM     13  C   UNL     1      -0.041   2.282  25.439  0.00  0.00    +0.180 C 
ATOM     16  C   UNL     1      -0.773   1.903  25.485  0.00  0.00    +0.198 C 
ATOM     17  O   UNL     1      -1.396   2.111  25.982  0.00  0.00    -0.219 OA
ATOM     18  C   UNL     1      -0.770   1.279  24.945  0.00  0.00    +0.120 C 
ENDROOT
BRANCH  18  19
ATOM     19  N   UNL     1      -1.392   0.754  24.809  0.00  0.00    -0.267 NA
ATOM     20  C   UNL     1      -1.468   0.075  25.271  0.00  0.00    +0.094 C 
ATOM     21  C   UNL     1      -2.090  -0.449  25.134  0.00  0.00    +0.108 C 
ATOM     22  N   UNL     1      -2.636  -0.295  24.536  0.00  0.00    -0.305 N 
ATOM     23  C   UNL     1      -2.561   0.384  24.073  0.00  0.00    +0.108 C 
ATOM     24  C   UNL     1      -1.938   0.909  24.210  0.00  0.00    +0.094 C 
BRANCH  22  25
ATOM     25  C   UNL     1      -3.258  -0.819  24.399  0.00  0.00    +0.048 A 
ATOM     26  C   UNL     1      -3.150  -1.628  24.521  0.00  0.00    +0.018 A 
ATOM     27  C   UNL     1      -3.772  -2.153  24.385  0.00  0.00    +0.073 A 
ATOM     28  C   UNL     1      -4.502  -1.869  24.126  0.00  0.00    +0.004 A 
ATOM     29  C   UNL     1      -4.610  -1.060  24.004  0.00  0.00    +0.001 A 
ATOM     30  C   UNL     1      -3.989  -0.535  24.140  0.00  0.00    +0.015 A 
BRANCH  27  31
ATOM     31  C   UNL     1      -3.664  -2.962  24.507  0.00  0.00    +0.419 C 
ATOM     32  F   UNL     1      -3.556  -3.770  24.629  0.00  0.00    -0.166 F 
ATOM     33  F   UNL     1      -3.570  -3.073  23.694  0.00  0.00    -0.166 F 
ATOM     34  F   UNL     1      -3.757  -2.851  25.319  0.00  0.00    -0.166 F 
ENDBRANCH  27  31
ENDBRANCH  22  25
ENDBRANCH  18  19
BRANCH  13  14
ATOM     14  C   UNL     1       0.195   2.936  25.883  0.00  0.00    +0.214 C 
ATOM     15  O   UNL     1       0.772   2.852  26.465  0.00  0.00    -0.218 OA
ENDBRANCH  13  14
BRANCH  11  10
ATOM     10  C   UNL     1       0.201   0.739  23.983  0.00  0.00    +0.146 C 
BRANCH  10   9
ATOM      7  C   UNL     1       1.222   0.223  23.125  0.00  0.00    +0.268 C 
ATOM      8  O   UNL     1       0.726  -0.401  22.912  0.00  0.00    -0.268 OA
ATOM      9  N   UNL     1       0.959   0.793  23.661  0.00  0.00    -0.199 NA
BRANCH   7   4
ATOM      1  C   UNL     1       4.040   0.836  22.782  0.00  0.00    +0.154 C 
ATOM      2  N   UNL     1       3.274   0.559  22.645  0.00  0.00    -0.247 N 
ATOM      3  C   UNL     1       2.634   0.630  23.160  0.00  0.00    +0.101 A 
ATOM      4  C   UNL     1       1.979   0.277  22.803  0.00  0.00    +0.095 A 
ATOM      5  C   UNL     1       2.215  -0.012  22.067  0.00  0.00    +0.126 A 
ATOM      6  N   UNL     1       3.015   0.162  21.969  0.00  0.00    -0.167 NA
ENDBRANCH   7   4
ENDBRANCH  10   9
ENDBRANCH  11  10
TORSDOF 7
ENDMDL
MODEL 5
REMARK VINA RESULT:     -10.1      2.486      3.864
REMARK  Name = 
REMARK  7 active torsions:
REMARK  status: ('A' for Active; 'I' for Inactive)
REMARK    1  A    between atoms: C_4  and  C_7
REMARK    2  A    between atoms: N_9  and  C_10
REMARK    3  A    between atoms: C_10  and  C_11
REMARK    4  A    between atoms: C_13  and  C_14
REMARK    5  A    between atoms: C_18  and  N_19
REMARK    6  A    between atoms: N_22  and  C_25
REMARK    7  A    between atoms: C_27  and  C_31
REMARK                            x       y       z     vdW  Elec       q    Type
REMARK                         _______ _______ _______ _____ _____    ______ ____
ROOT
ATOM     11  C   UNL     1       0.320   1.388  24.391  0.00  0.00    +0.154 C 
ATOM     12  O   UNL     1       1.023   1.610  24.021  0.00  0.00    -0.350 OA
ATOM     13  C   UNL     1       1.235   1.012  23.494  0.00  0.00    +0.180 C 
ATOM     16  C   UNL     1       0.663   0.419  23.538  0.00  0.00    +0.198 C 
ATOM     17  O   UNL     1       0.657  -0.282  23.105  0.00  0.00    -0.219 OA
ATOM     18  C   UNL     1       0.097   0.652  24.092  0.00  0.00    +0.120 C 
ENDROOT
BRANCH  18  19
ATOM     19  N   UNL     1      -0.573   0.222  24.309  0.00  0.00    -0.267 NA
ATOM     20  C   UNL     1      -1.299   0.381  23.951  0.00  0.00    +0.094 C 
ATOM     21  C   UNL     1      -1.969  -0.048  24.169  0.00  0.00    +0.108 C 
ATOM     22  N   UNL     1      -1.913  -0.637  24.743  0.00  0.00    -0.305 N 
ATOM     23  C   UNL     1      -1.187  -0.797  25.102  0.00  0.00    +0.108 C 
ATOM     24  C   UNL     1      -0.517  -0.367  24.885  0.00  0.00    +0.094 C 
BRANCH  22  25
ATOM     25  C   UNL     1      -2.583  -1.067  24.961  0.00  0.00    +0.048 A 
ATOM     26  C   UNL     1      -2.977  -1.526  24.401  0.00  0.00    +0.018 A 
ATOM     27  C   UNL     1      -3.647  -1.957  24.617  0.00  0.00    +0.073 A 
ATOM     28  C   UNL     1      -3.923  -1.927  25.395  0.00  0.00    +0.004 A 
ATOM     29  C   UNL     1      -3.528  -1.467  25.955  0.00  0.00    +0.001 A 
ATOM     30  C   UNL     1      -2.858  -1.037  25.738  0.00  0.00    +0.015 A 
BRANCH  27  31
ATOM     31  C   UNL     1      -4.042  -2.416  24.057  0.00  0.00    +0.419 C 
ATOM     32  F   UNL     1      -4.436  -2.876  23.497  0.00  0.00    -0.166 F 
ATOM     33  F   UNL     1      -4.535  -1.778  23.880  0.00  0.00    -0.166 F 
ATOM     34  F   UNL     1      -3.550  -3.054  24.234  0.00  0.00    -0.166 F 
ENDBRANCH  27  31
ENDBRANCH  22  25
ENDBRANCH  18  19
BRANCH  13  14
ATOM     14  C   UNL     1       1.902   1.008  23.009  0.00  0.00    +0.214 C 
ATOM     15  O   UNL     1       2.631   1.251  23.308  0.00  0.00    -0.218 OA
ENDBRANCH  13  14
BRANCH  11  10
ATOM     10  C   UNL     1      -0.090   1.823  24.959  0.00  0.00    +0.146 C 
BRANCH  10   9
ATOM      7  C   UNL     1      -0.577   3.090  25.409  0.00  0.00    +0.268 C 
ATOM      8  O   UNL     1      -0.611   2.802  26.181  0.00  0.00    -0.268 OA
ATOM      9  N   UNL     1      -0.316   2.601  24.797  0.00  0.00    -0.199 NA
BRANCH   7   4
ATOM      1  C   UNL     1      -2.154   5.520  25.200  0.00  0.00    +0.154 C 
ATOM      2  N   UNL     1      -1.529   4.983  25.152  0.00  0.00    -0.247 N 
ATOM      3  C   UNL     1      -1.545   4.196  25.398  0.00  0.00    +0.101 A 
ATOM      4  C   UNL     1      -0.804   3.866  25.248  0.00  0.00    +0.095 A 
ATOM      5  C   UNL     1      -0.329   4.450  24.909  0.00  0.00    +0.126 A 
ATOM      6  N   UNL     1      -0.778   5.140  24.849  0.00  0.00    -0.167 NA
ENDBRANCH   7   4
ENDBRANCH  10   9
ENDBRANCH  11  10
TORSDOF 7
ENDMDL
MODEL 6
REMARK VINA RESULT:      -9.9      3.633      5.284
REMARK  Name = 
REMARK  7 active torsions:
REMARK  status: ('A' for Active; 'I' for Inactive)
REMARK    1  A    between atoms: C_4  and  C_7
REMARK    2  A    between atoms: N_9  and  C_10
REMARK    3  A    between atoms: C_10  and  C_11
REMARK    4  A    between atoms: C_13  and  C_14
REMARK    5  A    between atoms: C_18  and  N_19
REMARK    6  A    between atoms: N_22  and  C_25
REMARK    7  A    between atoms: C_27  and  C_31
REMARK                            x       y       z     vdW  Elec       q    Type
REMARK                         _______ _______ _______ _____ _____    ______ ____
ROOT
ATOM     11  C   UNL     1      -1.106  -0.494  24.327  0.00  0.00    +0.154 C 
ATOM     12  O   UNL     1      -0.918  -1.296  24.380  0.00  0.00    -0.350 OA
ATOM     13  C   UNL     1      -1.594  -1.702  24.622  0.00  0.00    +0.180 C 
ATOM     16  C   UNL     1      -2.201  -1.150  24.719  0.00  0.00    +0.198 C 
ATOM     17  O   UNL     1      -2.973  -1.316  24.957  0.00  0.00    -0.219 OA
ATOM     18  C   UNL     1      -1.899  -0.404  24.537  0.00  0.00    +0.120 C 
ENDROOT
BRANCH  18  19
ATOM     19  N   UNL     1      -2.317   0.306  24.560  0.00  0.00    -0.267 NA
ATOM     20  C   UNL     1      -2.265   0.795  25.223  0.00  0.00    +0.094 C 
ATOM     21  C   UNL     1      -2.683   1.505  25.245  0.00  0.00    +0.108 C 
ATOM     22  N   UNL     1      -3.154   1.727  24.606  0.00  0.00    -0.305 N 
ATOM     23  C   UNL     1      -3.207   1.239  23.942  0.00  0.00    +0.108 C 
ATOM     24  C   UNL     1      -2.788   0.528  23.920  0.00  0.00    +0.094 C 
BRANCH  22  25
ATOM     25  C   UNL     1      -3.573   2.438  24.628  0.00  0.00    +0.048 A 
ATOM     26  C   UNL     1      -4.261   2.497  25.080  0.00  0.00    +0.018 A 
ATOM     27  C   UNL     1      -4.680   3.207  25.104  0.00  0.00    +0.073 A 
ATOM     28  C   UNL     1      -4.411   3.859  24.674  0.00  0.00    +0.004 A 
ATOM     29  C   UNL     1      -3.724   3.800  24.222  0.00  0.00    +0.001 A 
ATOM     30  C   UNL     1      -3.304   3.090  24.199  0.00  0.00    +0.015 A 
BRANCH  27  31
ATOM     31  C   UNL     1      -5.367   3.266  25.556  0.00  0.00    +0.419 C 
ATOM     32  F   UNL     1      -6.055   3.325  26.008  0.00  0.00    -0.166 F 
ATOM     33  F   UNL     1      -4.949   3.672  26.140  0.00  0.00    -0.166 F 
ATOM     34  F   UNL     1      -5.786   2.860  24.972  0.00  0.00    -0.166 F 
ENDBRANCH  27  31
ENDBRANCH  22  25
ENDBRANCH  18  19
BRANCH  13  14
ATOM     14  C   UNL     1      -1.654  -2.515  24.746  0.00  0.00    +0.214 C 
ATOM     15  O   UNL     1      -1.584  -3.035  24.110  0.00  0.00    -0.218 OA
ENDBRANCH  13  14
BRANCH  11  10
ATOM     10  C   UNL     1      -0.593   0.111  24.103  0.00  0.00    +0.146 C 
BRANCH  10   9
ATOM      7  C   UNL     1       0.640   0.527  23.511  0.00  0.00    +0.268 C 
ATOM      8  O   UNL     1       0.519   1.291  23.797  0.00  0.00    -0.268 OA
ATOM      9  N   UNL     1       0.084  -0.063  23.664  0.00  0.00    -0.199 NA
BRANCH   7   4
ATOM      1  C   UNL     1       3.394   0.461  22.592  0.00  0.00    +0.154 C 
ATOM      2  N   UNL     1       2.583   0.323  22.650  0.00  0.00    -0.247 N 
ATOM      3  C   UNL     1       2.078   0.635  23.223  0.00  0.00    +0.101 A 
ATOM      4  C   UNL     1       1.317   0.353  23.072  0.00  0.00    +0.095 A 
ATOM      5  C   UNL     1       1.352  -0.133  22.407  0.00  0.00    +0.126 A 
ATOM      6  N   UNL     1       2.134  -0.152  22.146  0.00  0.00    -0.167 NA
ENDBRANCH   7   4
ENDBRANCH  10   9
ENDBRANCH  11  10
TORSDOF 7
ENDMDL
MODEL 7
REMARK VINA RESULT:      -9.9      2.204      5.208
REMARK  Name = 
REMARK  7 active torsions:
REMARK  status: ('A' for Active; 'I' for Inactive)
REMARK    1  A    between atoms: C_4  and  C_7
REMARK    2  A    between atoms: N_9  and  C_10
REMARK    3  A    between atoms: C_10  and  C_11
REMARK    4  A    between atoms: C_13  and  C_14
REMARK    5  A    between atoms: C_18  and  N_19
REMARK    6  A    between atoms: N_22  and  C_25
REMARK    7  A    between atoms: C_27  and  C_31
REMARK                            x       y       z     vdW  Elec       q    Type
REMARK                         _______ _______ _______ _____ _____    ______ ____
ROOT
ATOM     11  C   UNL     1      -4.892   1.529  25.057  0.00  0.00    +0.154 C 
ATOM     12  O   UNL     1      -5.655   1.305  25.275  0.00  0.00    -0.350 OA
ATOM     13  C   UNL     1      -5.996   1.928  25.695  0.00  0.00    +0.180 C 
ATOM     16  C   UNL     1      -5.442   2.539  25.737  0.00  0.00    +0.198 C 
ATOM     17  O   UNL     1      -5.551   3.267  26.107  0.00  0.00    -0.219 OA
ATOM     18  C   UNL     1      -4.760   2.292  25.343  0.00  0.00    +0.120 C 
ENDROOT
BRANCH  18  19
ATOM     19  N   UNL     1      -4.068   2.732  25.251  0.00  0.00    -0.267 NA
ATOM     20  C   UNL     1      -3.953   3.183  24.570  0.00  0.00    +0.094 C 
ATOM     21  C   UNL     1      -3.261   3.622  24.479  0.00  0.00    +0.108 C 
ATOM     22  N   UNL     1      -2.684   3.611  25.068  0.00  0.00    -0.305 N 
ATOM     23  C   UNL     1      -2.799   3.159  25.749  0.00  0.00    +0.108 C 
ATOM     24  C   UNL     1      -3.491   2.720  25.841  0.00  0.00    +0.094 C 
BRANCH  22  25
ATOM     25  C   UNL     1      -1.992   4.050  24.977  0.00  0.00    +0.048 A 
ATOM     26  C   UNL     1      -1.315   3.694  24.666  0.00  0.00    +0.018 A 
ATOM     27  C   UNL     1      -0.623   4.133  24.575  0.00  0.00    +0.073 A 
ATOM     28  C   UNL     1      -0.607   4.928  24.794  0.00  0.00    +0.004 A 
ATOM     29  C   UNL     1      -1.283   5.285  25.104  0.00  0.00    +0.001 A 
ATOM     30  C   UNL     1      -1.976   4.846  25.195  0.00  0.00    +0.015 A 
BRANCH  27  31
ATOM     31  C   UNL     1       0.054   3.777  24.265  0.00  0.00    +0.419 C 
ATOM     32  F   UNL     1       0.730   3.421  23.955  0.00  0.00    -0.166 F 
ATOM     33  F   UNL     1       0.155   3.355  24.968  0.00  0.00    -0.166 F 
ATOM     34  F   UNL     1      -0.047   4.197  23.562  0.00  0.00    -0.166 F 
ENDBRANCH  27  31
ENDBRANCH  22  25
ENDBRANCH  18  19
BRANCH  13  14
ATOM     14  C   UNL     1      -6.755   1.939  26.016  0.00  0.00    +0.214 C 
ATOM     15  O   UNL     1      -6.930   1.477  26.676  0.00  0.00    -0.218 OA
ENDBRANCH  13  14
BRANCH  11  10
ATOM     10  C   UNL     1      -4.355   1.073  24.630  0.00  0.00    +0.146 C 
BRANCH  10   9
ATOM      7  C   UNL     1      -3.876  -0.210  24.217  0.00  0.00    +0.268 C 
ATOM      8  O   UNL     1      -3.338   0.156  23.709  0.00  0.00    -0.268 OA
ATOM      9  N   UNL     1      -4.384   0.249  24.678  0.00  0.00    -0.199 NA
BRANCH   7   4
ATOM      1  C   UNL     1      -3.369  -2.948  25.041  0.00  0.00    +0.154 C 
ATOM      2  N   UNL     1      -3.671  -2.291  24.644  0.00  0.00    -0.247 N 
ATOM      3  C   UNL     1      -3.473  -1.504  24.786  0.00  0.00    +0.101 A 
ATOM      4  C   UNL     1      -3.905  -1.033  24.265  0.00  0.00    +0.095 A 
ATOM      5  C   UNL     1      -4.371  -1.529  23.799  0.00  0.00    +0.126 A 
ATOM      6  N   UNL     1      -4.227  -2.307  24.033  0.00  0.00    -0.167 NA
ENDBRANCH   7   4
ENDBRANCH  10   9
ENDBRANCH  11  10
TORSDOF 7
ENDMDL
MODEL 8
REMARK VINA RESULT:      -9.7      2.926      5.554
REMARK  Name = 
REMARK  7 active torsions:
REMARK  status: ('A' for Active; 'I' for Inactive)
REMARK    1  A    between atoms: C_4  and  C_7
REMARK    2  A    between atoms: N_9  and  C_10
REMARK    3  A    between atoms: C_10  and  C_11
REMARK    4  A    between atoms: C_13  and  C_14
REMARK    5  A    between atoms: C_18  and  N_19
REMARK    6  A    between atoms: N_22  and  C_25
REMARK    7  A    between atoms: C_27  and  C_31
REMARK                            x       y       z     vdW  Elec       q    Type
REMARK                         _______ _______ _______ _____ _____    ______ ____
ROOT
ATOM     11  C   UNL     1      -0.785   1.013  24.865  0.00  0.00    +0.154 C 
ATOM     12  O   UNL     1      -0.005   0.924  24.612  0.00  0.00    -0.350 OA
ATOM     13  C   UNL     1       0.219   1.618  24.224  0.00  0.00    +0.180 C 
ATOM     16  C   UNL     1      -0.424   2.135  24.239  0.00  0.00    +0.198 C 
ATOM     17  O   UNL     1      -0.443   2.893  23.914  0.00  0.00    -0.219 OA
ATOM     18  C   UNL     1      -1.044   1.761  24.634  0.00  0.00    +0.120 C 
ENDROOT
BRANCH  18  19
ATOM     19  N   UNL     1      -1.791   2.080  24.775  0.00  0.00    -0.267 NA
ATOM     20  C   UNL     1      -1.949   2.464  25.488  0.00  0.00    +0.094 C 
ATOM     21  C   UNL     1      -2.697   2.783  25.627  0.00  0.00    +0.108 C 
ATOM     22  N   UNL     1      -3.287   2.718  25.054  0.00  0.00    -0.305 N 
ATOM     23  C   UNL     1      -3.129   2.335  24.340  0.00  0.00    +0.108 C 
ATOM     24  C   UNL     1      -2.381   2.016  24.201  0.00  0.00    +0.094 C 
BRANCH  22  25
ATOM     25  C   UNL     1      -4.035   3.038  25.194  0.00  0.00    +0.048 A 
ATOM     26  C   UNL     1      -4.665   2.541  25.386  0.00  0.00    +0.018 A 
ATOM     27  C   UNL     1      -5.414   2.859  25.525  0.00  0.00    +0.073 A 
ATOM     28  C   UNL     1      -5.531   3.675  25.472  0.00  0.00    +0.004 A 
ATOM     29  C   UNL     1      -4.901   4.171  25.280  0.00  0.00    +0.001 A 
ATOM     30  C   UNL     1      -4.153   3.853  25.141  0.00  0.00    +0.015 A 
BRANCH  27  31
ATOM     31  C   UNL     1      -6.044   2.363  25.718  0.00  0.00    +0.419 C 
ATOM     32  F   UNL     1      -6.674   1.867  25.910  0.00  0.00    -0.166 F 
ATOM     33  F   UNL     1      -5.881   2.466  26.521  0.00  0.00    -0.166 F 
ATOM     34  F   UNL     1      -6.208   2.260  24.916  0.00  0.00    -0.166 F 
ENDBRANCH  27  31
ENDBRANCH  22  25
ENDBRANCH  18  19
BRANCH  13  14
ATOM     14  C   UNL     1       0.955   1.767  23.883  0.00  0.00    +0.214 C 
ATOM     15  O   UNL     1       1.387   1.150  23.549  0.00  0.00    -0.218 OA
ENDBRANCH  13  14
BRANCH  11  10
ATOM     10  C   UNL     1      -1.228   0.452  25.277  0.00  0.00    +0.146 C 
BRANCH  10   9
ATOM      7  C   UNL     1      -1.759  -0.873  25.351  0.00  0.00    +0.268 C 
ATOM      8  O   UNL     1      -1.847  -0.791  26.168  0.00  0.00    -0.268 OA
ATOM      9  N   UNL     1      -1.449  -0.251  24.906  0.00  0.00    -0.199 NA
BRANCH   7   4
ATOM      1  C   UNL     1      -3.366  -3.020  24.237  0.00  0.00    +0.154 C 
ATOM      2  N   UNL     1      -2.719  -2.563  24.469  0.00  0.00    -0.247 N 
ATOM      3  C   UNL     1      -2.754  -1.836  24.856  0.00  0.00    +0.101 A 
ATOM      4  C   UNL     1      -1.980  -1.576  24.981  0.00  0.00    +0.095 A 
ATOM      5  C   UNL     1      -1.468  -2.143  24.670  0.00  0.00    +0.126 A 
ATOM      6  N   UNL     1      -1.924  -2.753  24.354  0.00  0.00    -0.167 NA
ENDBRANCH   7   4
ENDBRANCH  10   9
ENDBRANCH  11  10
TORSDOF 7
ENDMDL
