MODEL 1
REMARK VINA RESULT:     -15.3      0.000      0.000
REMARK  Name = 
REMARK  4 active torsions:
REMARK  status: ('A' for Active; 'I' for Inactive)
REMARK    1  A    between atoms: C_2  and  C_3
REMARK    2  A    between atoms: C_11  and  C_12
REMARK    3  A    between atoms: C_12  and  C_13
REMARK    4  A    between atoms: C_28  and  C_30
REMARK                            x       y       z     vdW  Elec       q    Type
REMARK                         _______ _______ _______ _____ _____    ______ ____
ROOT
ATOM      1  C   UNL     1      -5.086   3.548  25.528  0.00  0.00    +0.005 C 
ATOM      2  C   UNL     1      -4.721   2.853  25.276  0.00  0.00    +0.059 C 
ATOM      5  C   UNL     1      -5.488   2.577  25.394  0.00  0.00    +0.154 C 
ATOM      6  O   UNL     1      -6.077   3.091  25.657  0.00  0.00    -0.223 OA
ATOM      7  C   UNL     1      -5.669   1.784  25.248  0.00  0.00    +0.033 C 
ATOM      8  C   UNL     1      -5.081   1.269  24.985  0.00  0.00    +0.003 C 
ATOM      9  C   UNL     1      -4.313   1.546  24.867  0.00  0.00    +0.006 C 
ATOM     10  C   UNL     1      -4.493   0.755  24.722  0.00  0.00    +0.000 C 
ATOM     11  C   UNL     1      -3.724   1.031  24.603  0.00  0.00    +0.050 C 
ATOM     21  C   UNL     1      -2.957   1.307  24.485  0.00  0.00    +0.063 A 
ATOM     22  C   UNL     1      -2.777   2.100  24.631  0.00  0.00    +0.023 A 
ATOM     23  C   UNL     1      -3.364   2.615  24.894  0.00  0.00    +0.034 C 
ATOM     24  C   UNL     1      -4.133   2.338  25.012  0.00  0.00    +0.010 C 
ATOM     25  S   UNL     1      -1.976   2.213  24.466  0.00  0.00    -0.054 S 
ATOM     26  C   UNL     1      -1.661   1.492  24.219  0.00  0.00    +0.186 A 
ATOM     27  N   UNL     1      -0.878   1.354  23.999  0.00  0.00    -0.148 NA
ATOM     28  C   UNL     1      -0.643   0.600  23.763  0.00  0.00    +0.305 C 
ATOM     29  O   UNL     1      -1.190  -0.018  23.747  0.00  0.00    -0.265 OA
ATOM     35  N   UNL     1      -2.267   0.932  24.231  0.00  0.00    -0.227 NA
ENDROOT
BRANCH  28  30
ATOM     30  C   UNL     1       0.140   0.462  23.542  0.00  0.00    +0.201 A 
ATOM     31  C   UNL     1       0.429  -0.220  23.179  0.00  0.00    +0.046 A 
ATOM     32  C   UNL     1       1.239  -0.122  23.058  0.00  0.00    +0.044 A 
ATOM     33  C   UNL     1       1.451   0.621  23.348  0.00  0.00    +0.180 A 
ATOM     34  O   UNL     1       0.772   0.982  23.647  0.00  0.00    -0.446 OA
ENDBRANCH  28  30
BRANCH   2   3
ATOM      3  C   UNL     1      -4.080   3.371  25.245  0.00  0.00    +0.184 C 
ATOM      4  O   UNL     1      -4.173   4.158  25.478  0.00  0.00    -0.220 OA
ENDBRANCH   2   3
BRANCH  11  12
ATOM     12  C   UNL     1      -3.905   0.239  24.458  0.00  0.00    +0.091 C 
BRANCH  12  13
ATOM     13  C   UNL     1      -3.663  -0.344  24.991  0.00  0.00    +0.226 C 
ATOM     14  O   UNL     1      -3.375  -0.129  25.733  0.00  0.00    -0.275 OA
ATOM     15  N   UNL     1      -3.709  -1.139  24.780  0.00  0.00    -0.280 N 
ATOM     16  C   UNL     1      -3.468  -1.722  25.312  0.00  0.00    +0.093 C 
ATOM     17  C   UNL     1      -3.514  -2.518  25.101  0.00  0.00    +0.022 C 
ATOM     18  C   UNL     1      -3.802  -2.732  24.359  0.00  0.00    +0.004 C 
ATOM     19  C   UNL     1      -4.044  -2.150  23.826  0.00  0.00    +0.022 C 
ATOM     20  C   UNL     1      -3.997  -1.354  24.037  0.00  0.00    +0.093 C 
ENDBRANCH  12  13
ENDBRANCH  11  12
TORSDOF 4
ENDMDL
MODEL 2
REMARK VINA RESULT:     -14.4      1.823      4.099
REMARK  Name = 
REMARK  4 active torsions:
REMARK  status: ('A' for Active; 'I' for Inactive)
REMARK    1  A    between atoms: C_2  and  C_3
REMARK    2  A    between atoms: C_11  and  C_12
REMARK    3  A    between atoms: C_12  and  C_13
REMARK    4  A    between atoms: C_28  and  C_30
REMARK                            x       y       z     vdW  Elec       q    Type
REMARK                         _______ _______ _______ _____ _____    ______ ____
ROOT
ATOM      1  C   UNL     1      -1.897  -2.531  24.481  0.00  0.00    +0.005 C 
ATOM      2  C   UNL     1      -2.253  -1.807  24.651  0.00  0.00    +0.059 C 
ATOM      5  C   UNL     1      -2.896  -2.311  24.760  0.00  0.00    +0.154 C 
ATOM      6  O   UNL     1      -2.807  -3.124  24.649  0.00  0.00    -0.223 OA
ATOM      7  C   UNL     1      -3.629  -2.003  24.981  0.00  0.00    +0.033 C 
ATOM      8  C   UNL     1      -3.718  -1.191  25.092  0.00  0.00    +0.003 C 
ATOM      9  C   UNL     1      -3.075  -0.686  24.982  0.00  0.00    +0.006 C 
ATOM     10  C   UNL     1      -3.807  -0.379  25.203  0.00  0.00    +0.000 C 
ATOM     11  C   UNL     1      -3.164   0.127  25.093  0.00  0.00    +0.050 C 
ATOM     21  C   UNL     1      -2.521   0.631  24.984  0.00  0.00    +0.063 A 
ATOM     22  C   UNL     1      -1.787   0.322  24.763  0.00  0.00    +0.023 A 
ATOM     23  C   UNL     1      -1.698  -0.490  24.652  0.00  0.00    +0.034 C 
ATOM     24  C   UNL     1      -2.342  -0.995  24.762  0.00  0.00    +0.010 C 
ATOM     25  S   UNL     1      -1.257   0.951  24.696  0.00  0.00    -0.054 S 
ATOM     26  C   UNL     1      -1.662   1.647  24.875  0.00  0.00    +0.186 A 
ATOM     27  N   UNL     1      -1.342   2.408  24.876  0.00  0.00    -0.148 NA
ATOM     28  C   UNL     1      -1.816   3.054  25.067  0.00  0.00    +0.305 C 
ATOM     29  O   UNL     1      -2.611   2.941  25.258  0.00  0.00    -0.265 OA
ATOM     35  N   UNL     1      -2.442   1.449  25.053  0.00  0.00    -0.227 NA
ENDROOT
BRANCH  28  30
ATOM     30  C   UNL     1      -1.496   3.814  25.068  0.00  0.00    +0.201 A 
ATOM     31  C   UNL     1      -1.920   4.519  25.141  0.00  0.00    +0.046 A 
ATOM     32  C   UNL     1      -1.382   5.144  25.114  0.00  0.00    +0.044 A 
ATOM     33  C   UNL     1      -0.626   4.826  25.025  0.00  0.00    +0.180 A 
ATOM     34  O   UNL     1      -0.697   4.004  24.997  0.00  0.00    -0.446 OA
ENDBRANCH  28  30
BRANCH   2   3
ATOM      3  C   UNL     1      -1.486  -1.554  24.482  0.00  0.00    +0.184 C 
ATOM      4  O   UNL     1      -0.907  -2.104  24.274  0.00  0.00    -0.220 OA
ENDBRANCH   2   3
BRANCH  11  12
ATOM     12  C   UNL     1      -3.897   0.435  25.314  0.00  0.00    +0.091 C 
BRANCH  12  13
ATOM     13  C   UNL     1      -4.368   0.819  24.756  0.00  0.00    +0.226 C 
ATOM     14  O   UNL     1      -4.192   0.753  23.952  0.00  0.00    -0.275 OA
ATOM     15  N   UNL     1      -5.014   1.269  25.001  0.00  0.00    -0.280 N 
ATOM     16  C   UNL     1      -5.485   1.654  24.443  0.00  0.00    +0.093 C 
ATOM     17  C   UNL     1      -6.131   2.104  24.689  0.00  0.00    +0.022 C 
ATOM     18  C   UNL     1      -6.306   2.170  25.492  0.00  0.00    +0.004 C 
ATOM     19  C   UNL     1      -5.835   1.786  26.050  0.00  0.00    +0.022 C 
ATOM     20  C   UNL     1      -5.189   1.335  25.805  0.00  0.00    +0.093 C 
ENDBRANCH  12  13
ENDBRANCH  11  12
TORSDOF 4
ENDMDL
MODEL 3
REMARK VINA RESULT:     -14.0      1.705      3.780
REMARK  Name = 
REMARK  4 active torsions:
REMARK  status: ('A' for Active; 'I' for Inactive)
REMARK    1  A    between atoms: C_2  and  C_3
REMARK    2  A    between atoms: C_11  and  C_12
REMARK    3  A    between atoms: C_12  and  C_13
REMARK    4  A    between atoms: C_28  and  C_30
REMARK                            x       y       z     vdW  Elec       q    Type
REMARK                         _______ _______ _______ _____ _____    ______ ____
ROOT
ATOM      1  C   UNL     1      -0.468   4.338  24.737  0.00  0.00    +0.005 C 
ATOM      2  C   UNL     1      -1.122   3.849  24.855  0.00  0.00    +0.059 C 
ATOM      5  C   UNL     1      -1.445   4.576  25.070  0.00  0.00    +0.154 C 
ATOM      6  O   UNL     1      -0.983   5.259  25.041  0.00  0.00    -0.223 OA
ATOM      7  C   UNL     1      -2.233   4.622  25.315  0.00  0.00    +0.033 C 
ATOM      8  C   UNL     1      -2.695   3.940  25.345  0.00  0.00    +0.003 C 
ATOM      9  C   UNL     1      -2.372   3.213  25.129  0.00  0.00    +0.006 C 
ATOM     10  C   UNL     1      -3.157   3.258  25.374  0.00  0.00    +0.000 C 
ATOM     11  C   UNL     1      -2.834   2.530  25.159  0.00  0.00    +0.050 C 
ATOM     21  C   UNL     1      -2.511   1.803  24.943  0.00  0.00    +0.063 A 
ATOM     22  C   UNL     1      -1.723   1.757  24.698  0.00  0.00    +0.023 A 
ATOM     23  C   UNL     1      -1.261   2.439  24.669  0.00  0.00    +0.034 C 
ATOM     24  C   UNL     1      -1.584   3.167  24.884  0.00  0.00    +0.010 C 
ATOM     25  S   UNL     1      -1.557   0.969  24.521  0.00  0.00    -0.054 S 
ATOM     26  C   UNL     1      -2.240   0.527  24.656  0.00  0.00    +0.186 A 
ATOM     27  N   UNL     1      -2.321  -0.287  24.548  0.00  0.00    -0.148 NA
ATOM     28  C   UNL     1      -3.042  -0.654  24.706  0.00  0.00    +0.305 C 
ATOM     29  O   UNL     1      -3.683  -0.209  24.972  0.00  0.00    -0.265 OA
ATOM     35  N   UNL     1      -2.829   1.042  24.917  0.00  0.00    -0.227 NA
ENDROOT
BRANCH  28  30
ATOM     30  C   UNL     1      -3.122  -1.468  24.599  0.00  0.00    +0.201 A 
ATOM     31  C   UNL     1      -3.769  -1.851  24.259  0.00  0.00    +0.046 A 
ATOM     32  C   UNL     1      -3.617  -2.662  24.262  0.00  0.00    +0.044 A 
ATOM     33  C   UNL     1      -2.875  -2.781  24.604  0.00  0.00    +0.180 A 
ATOM     34  O   UNL     1      -2.569  -2.042  24.812  0.00  0.00    -0.446 OA
ENDBRANCH  28  30
BRANCH   2   3
ATOM      3  C   UNL     1      -0.571   3.292  24.599  0.00  0.00    +0.184 C 
ATOM      4  O   UNL     1       0.170   3.537  24.330  0.00  0.00    -0.220 OA
ENDBRANCH   2   3
BRANCH  11  12
ATOM     12  C   UNL     1      -3.620   2.575  25.403  0.00  0.00    +0.091 C 
BRANCH  12  13
ATOM     13  C   UNL     1      -4.230   2.497  24.852  0.00  0.00    +0.226 C 
ATOM     14  O   UNL     1      -4.069   2.576  24.047  0.00  0.00    -0.275 OA
ATOM     15  N   UNL     1      -4.998   2.341  25.106  0.00  0.00    -0.280 N 
ATOM     16  C   UNL     1      -5.607   2.263  24.555  0.00  0.00    +0.093 C 
ATOM     17  C   UNL     1      -6.376   2.106  24.809  0.00  0.00    +0.022 C 
ATOM     18  C   UNL     1      -6.536   2.028  25.614  0.00  0.00    +0.004 C 
ATOM     19  C   UNL     1      -5.928   2.106  26.166  0.00  0.00    +0.022 C 
ATOM     20  C   UNL     1      -5.159   2.262  25.912  0.00  0.00    +0.093 C 
ENDBRANCH  12  13
ENDBRANCH  11  12
TORSDOF 4
ENDMDL
MODEL 4
REMARK VINA RESULT:     -13.8      1.618      5.042
REMARK  Name = 
REMARK  4 active torsions:
REMARK  status: ('A' for Active; 'I' for Inactive)
REMARK    1  A    between atoms: C_2  and  C_3
REMARK    2  A    between atoms: C_11  and  C_12
REMARK    3  A    between atoms: C_12  and  C_13
REMARK    4  A    between atoms: C_28  and  C_30
REMARK                            x       y       z     vdW  Elec       q    Type
REMARK                         _______ _______ _______ _____ _____    ______ ____
ROOT
ATOM      1  C   UNL     1      -3.316  -2.904  24.165  0.00  0.00    +0.005 C 
ATOM      2  C   UNL     1      -3.097  -2.141  24.388  0.00  0.00    +0.059 C 
ATOM      5  C   UNL     1      -2.365  -2.518  24.428  0.00  0.00    +0.154 C 
ATOM      6  O   UNL     1      -2.302  -3.320  24.246  0.00  0.00    -0.223 OA
ATOM      7  C   UNL     1      -1.693  -2.092  24.651  0.00  0.00    +0.033 C 
ATOM      8  C   UNL     1      -1.754  -1.291  24.833  0.00  0.00    +0.003 C 
ATOM      9  C   UNL     1      -2.486  -0.914  24.793  0.00  0.00    +0.006 C 
ATOM     10  C   UNL     1      -1.816  -0.489  25.016  0.00  0.00    +0.000 C 
ATOM     11  C   UNL     1      -2.549  -0.112  24.976  0.00  0.00    +0.050 C 
ATOM     21  C   UNL     1      -3.281   0.265  24.936  0.00  0.00    +0.063 A 
ATOM     22  C   UNL     1      -3.953  -0.160  24.713  0.00  0.00    +0.023 A 
ATOM     23  C   UNL     1      -3.891  -0.962  24.531  0.00  0.00    +0.034 C 
ATOM     24  C   UNL     1      -3.158  -1.340  24.571  0.00  0.00    +0.010 C 
ATOM     25  S   UNL     1      -4.596   0.357  24.723  0.00  0.00    -0.054 S 
ATOM     26  C   UNL     1      -4.323   1.101  24.951  0.00  0.00    +0.186 A 
ATOM     27  N   UNL     1      -4.781   1.781  25.034  0.00  0.00    -0.148 NA
ATOM     28  C   UNL     1      -4.429   2.489  25.267  0.00  0.00    +0.305 C 
ATOM     29  O   UNL     1      -3.619   2.518  25.419  0.00  0.00    -0.265 OA
ATOM     35  N   UNL     1      -3.510   1.044  25.083  0.00  0.00    -0.227 NA
ENDROOT
BRANCH  28  30
ATOM     30  C   UNL     1      -4.888   3.170  25.350  0.00  0.00    +0.201 A 
ATOM     31  C   UNL     1      -4.677   3.930  25.104  0.00  0.00    +0.046 A 
ATOM     32  C   UNL     1      -5.297   4.440  25.295  0.00  0.00    +0.044 A 
ATOM     33  C   UNL     1      -5.890   3.997  25.658  0.00  0.00    +0.180 A 
ATOM     34  O   UNL     1      -5.637   3.212  25.691  0.00  0.00    -0.446 OA
ENDBRANCH  28  30
BRANCH   2   3
ATOM      3  C   UNL     1      -3.905  -2.029  24.271  0.00  0.00    +0.184 C 
ATOM      4  O   UNL     1      -4.363  -2.635  23.945  0.00  0.00    -0.220 OA
ENDBRANCH   2   3
BRANCH  11  12
ATOM     12  C   UNL     1      -1.877   0.314  25.198  0.00  0.00    +0.091 C 
BRANCH  12  13
ATOM     13  C   UNL     1      -1.515   0.824  24.660  0.00  0.00    +0.226 C 
ATOM     14  O   UNL     1      -1.695   0.772  23.857  0.00  0.00    -0.275 OA
ATOM     15  N   UNL     1      -0.973   1.385  24.925  0.00  0.00    -0.280 N 
ATOM     16  C   UNL     1      -0.610   1.896  24.388  0.00  0.00    +0.093 C 
ATOM     17  C   UNL     1      -0.068   2.458  24.654  0.00  0.00    +0.022 C 
ATOM     18  C   UNL     1       0.112   2.509  25.457  0.00  0.00    +0.004 C 
ATOM     19  C   UNL     1      -0.250   2.000  25.995  0.00  0.00    +0.022 C 
ATOM     20  C   UNL     1      -0.793   1.438  25.729  0.00  0.00    +0.093 C 
ENDBRANCH  12  13
ENDBRANCH  11  12
TORSDOF 4
ENDMDL
MODEL 5
REMARK VINA RESULT:     -12.5      1.621      3.364
REMARK  Name = 
REMARK  4 active torsions:
REMARK  status: ('A' for Active; 'I' for Inactive)
REMARK    1  A    between atoms: C_2  and  C_3
REMARK    2  A    between atoms: C_11  and  C_12
REMARK    3  A    between atoms: C_12  and  C_13
REMARK    4  A    between atoms: C_28  and  C_30
REMARK                            x       y       z     vdW  Elec       q    Type
REMARK                         _______ _______ _______ _____ _____    ______ ____
ROOT
ATOM      1  C   UNL     1      -6.276   3.039  25.366  0.00  0.00    +0.005 C 
ATOM      2  C   UNL     1      -5.495   2.774  25.336  0.00  0.00    +0.059 C 
ATOM      5  C   UNL     1      -5.370   3.573  25.495  0.00  0.00    +0.154 C 
ATOM      6  O   UNL     1      -6.012   4.084  25.578  0.00  0.00    -0.223 OA
ATOM      7  C   UNL     1      -4.600   3.863  25.572  0.00  0.00    +0.033 C 
ATOM      8  C   UNL     1      -3.958   3.353  25.490  0.00  0.00    +0.003 C 
ATOM      9  C   UNL     1      -4.084   2.554  25.330  0.00  0.00    +0.006 C 
ATOM     10  C   UNL     1      -3.316   2.842  25.407  0.00  0.00    +0.000 C 
ATOM     11  C   UNL     1      -3.441   2.043  25.248  0.00  0.00    +0.050 C 
ATOM     21  C   UNL     1      -3.567   1.244  25.088  0.00  0.00    +0.063 A 
ATOM     22  C   UNL     1      -4.336   0.954  25.011  0.00  0.00    +0.023 A 
ATOM     23  C   UNL     1      -4.979   1.464  25.093  0.00  0.00    +0.034 C 
ATOM     24  C   UNL     1      -4.853   2.264  25.253  0.00  0.00    +0.010 C 
ATOM     25  S   UNL     1      -4.289   0.146  24.854  0.00  0.00    -0.054 S 
ATOM     26  C   UNL     1      -3.492  -0.065  24.834  0.00  0.00    +0.186 A 
ATOM     27  N   UNL     1      -3.194  -0.822  24.694  0.00  0.00    -0.148 NA
ATOM     28  C   UNL     1      -2.379  -0.949  24.691  0.00  0.00    +0.305 C 
ATOM     29  O   UNL     1      -1.862  -0.321  24.828  0.00  0.00    -0.265 OA
ATOM     35  N   UNL     1      -3.046   0.613  24.979  0.00  0.00    -0.227 NA
ENDROOT
BRANCH  28  30
ATOM     30  C   UNL     1      -2.081  -1.706  24.551  0.00  0.00    +0.201 A 
ATOM     31  C   UNL     1      -1.317  -1.965  24.726  0.00  0.00    +0.046 A 
ATOM     32  C   UNL     1      -1.258  -2.756  24.495  0.00  0.00    +0.044 A 
ATOM     33  C   UNL     1      -1.985  -2.984  24.178  0.00  0.00    +0.180 A 
ATOM     34  O   UNL     1      -2.493  -2.335  24.213  0.00  0.00    -0.446 OA
ENDBRANCH  28  30
BRANCH   2   3
ATOM      3  C   UNL     1      -5.893   2.067  25.187  0.00  0.00    +0.184 C 
ATOM      4  O   UNL     1      -6.717   2.059  25.134  0.00  0.00    -0.220 OA
ENDBRANCH   2   3
BRANCH  11  12
ATOM     12  C   UNL     1      -2.672   2.332  25.325  0.00  0.00    +0.091 C 
BRANCH  12  13
ATOM     13  C   UNL     1      -2.206   2.449  24.654  0.00  0.00    +0.226 C 
ATOM     14  O   UNL     1      -2.554   2.454  23.906  0.00  0.00    -0.275 OA
ATOM     15  N   UNL     1      -1.393   2.563  24.731  0.00  0.00    -0.280 N 
ATOM     16  C   UNL     1      -0.927   2.681  24.060  0.00  0.00    +0.093 C 
ATOM     17  C   UNL     1      -0.114   2.794  24.138  0.00  0.00    +0.022 C 
ATOM     18  C   UNL     1       0.234   2.789  24.885  0.00  0.00    +0.004 C 
ATOM     19  C   UNL     1      -0.232   2.672  25.557  0.00  0.00    +0.022 C 
ATOM     20  C   UNL     1      -1.045   2.558  25.479  0.00  0.00    +0.093 C 
ENDBRANCH  12  13
ENDBRANCH  11  12
TORSDOF 4
ENDMDL
MODEL 6
REMARK VINA RESULT:     -11.9      2.236      4.031
REMARK  Name = 
REMARK  4 active torsions:
REMARK  status: ('A' for Active; 'I' for Inactive)
REMARK    1  A    between atoms: C_2  and  C_3
REMARK    2  A    between atoms: C_11  and  C_12
REMARK    3  A    between atoms: C_12  and  C_13
REMARK    4  A    between atoms: C_28  and  C_30
REMARK                            x       y       z     vdW  Elec       q    Type
REMARK                         _______ _______ _______ _____ _____    ______ ____
ROOT
ATOM      1  C   UNL     1      -3.314  -2.032  25.210  0.00  0.00    +0.005 C 
ATOM      2  C   UNL     1      -2.849  -1.375  25.032  0.00  0.00    +0.059 C 
ATOM      5  C   UNL     1      -3.516  -1.000  25.339  0.00  0.00    +0.154 C 
ATOM      6  O   UNL     1      -4.157  -1.447  25.603  0.00  0.00    -0.223 OA
ATOM      7  C   UNL     1      -3.542  -0.175  25.382  0.00  0.00    +0.033 C 
ATOM      8  C   UNL     1      -2.902   0.272  25.118  0.00  0.00    +0.003 C 
ATOM      9  C   UNL     1      -2.236  -0.103  24.811  0.00  0.00    +0.006 C 
ATOM     10  C   UNL     1      -2.262   0.719  24.854  0.00  0.00    +0.000 C 
ATOM     11  C   UNL     1      -1.595   0.344  24.546  0.00  0.00    +0.050 C 
ATOM     21  C   UNL     1      -0.928  -0.031  24.239  0.00  0.00    +0.063 A 
ATOM     22  C   UNL     1      -0.901  -0.855  24.196  0.00  0.00    +0.023 A 
ATOM     23  C   UNL     1      -1.541  -1.302  24.460  0.00  0.00    +0.034 C 
ATOM     24  C   UNL     1      -2.209  -0.927  24.768  0.00  0.00    +0.010 C 
ATOM     25  S   UNL     1      -0.175  -1.069  23.868  0.00  0.00    -0.054 S 
ATOM     26  C   UNL     1       0.247  -0.378  23.709  0.00  0.00    +0.186 A 
ATOM     27  N   UNL     1       1.002  -0.337  23.379  0.00  0.00    -0.148 NA
ATOM     28  C   UNL     1       1.356   0.397  23.252  0.00  0.00    +0.305 C 
ATOM     29  O   UNL     1       0.956   1.090  23.454  0.00  0.00    -0.265 OA
ATOM     35  N   UNL     1      -0.218   0.263  23.938  0.00  0.00    -0.227 NA
ENDROOT
BRANCH  28  30
ATOM     30  C   UNL     1       2.111   0.439  22.922  0.00  0.00    +0.201 A 
ATOM     31  C   UNL     1       2.719   0.942  23.164  0.00  0.00    +0.046 A 
ATOM     32  C   UNL     1       3.375   0.799  22.683  0.00  0.00    +0.044 A 
ATOM     33  C   UNL     1       3.172   0.208  22.145  0.00  0.00    +0.180 A 
ATOM     34  O   UNL     1       2.391  -0.015  22.293  0.00  0.00    -0.446 OA
ENDBRANCH  28  30
BRANCH   2   3
ATOM      3  C   UNL     1      -2.344  -1.979  24.786  0.00  0.00    +0.184 C 
ATOM      4  O   UNL     1      -2.594  -2.765  24.818  0.00  0.00    -0.220 OA
ENDBRANCH   2   3
BRANCH  11  12
ATOM     12  C   UNL     1      -1.621   1.168  24.590  0.00  0.00    +0.091 C 
BRANCH  12  13
ATOM     13  C   UNL     1      -1.211   1.563  25.187  0.00  0.00    +0.226 C 
ATOM     14  O   UNL     1      -0.891   1.139  25.818  0.00  0.00    -0.275 OA
ATOM     15  N   UNL     1      -1.122   2.382  25.154  0.00  0.00    -0.280 N 
ATOM     16  C   UNL     1      -0.713   2.778  25.751  0.00  0.00    +0.093 C 
ATOM     17  C   UNL     1      -0.624   3.597  25.717  0.00  0.00    +0.022 C 
ATOM     18  C   UNL     1      -0.944   4.021  25.087  0.00  0.00    +0.004 C 
ATOM     19  C   UNL     1      -1.354   3.626  24.489  0.00  0.00    +0.022 C 
ATOM     20  C   UNL     1      -1.443   2.807  24.523  0.00  0.00    +0.093 C 
ENDBRANCH  12  13
ENDBRANCH  11  12
TORSDOF 4
ENDMDL
MODEL 7
REMARK VINA RESULT:     -11.8      1.285      3.782
REMARK  Name = 
REMARK  4 active torsions:
REMARK  status: ('A' for Active; 'I' for Inactive)
REMARK    1  A    between atoms: C_2  and  C_3
REMARK    2  A    between atoms: C_11  and  C_12
REMARK    3  A    between atoms: C_12  and  C_13
REMARK    4  A    between atoms: C_28  and  C_30
REMARK                            x       y       z     vdW  Elec       q    Type
REMARK                         _______ _______ _______ _____ _____    ______ ____
ROOT
ATOM      1  C   UNL     1      -2.865   4.498  25.649  0.00  0.00    +0.005 C 
ATOM      2  C   UNL     1      -2.554   3.768  25.425  0.00  0.00    +0.059 C 
ATOM      5  C   UNL     1      -1.863   4.217  25.445  0.00  0.00    +0.154 C 
ATOM      6  O   UNL     1      -1.896   5.016  25.649  0.00  0.00    -0.223 OA
ATOM      7  C   UNL     1      -1.138   3.868  25.261  0.00  0.00    +0.033 C 
ATOM      8  C   UNL     1      -1.104   3.070  25.057  0.00  0.00    +0.003 C 
ATOM      9  C   UNL     1      -1.795   2.620  25.037  0.00  0.00    +0.006 C 
ATOM     10  C   UNL     1      -1.071   2.272  24.854  0.00  0.00    +0.000 C 
ATOM     11  C   UNL     1      -1.762   1.821  24.833  0.00  0.00    +0.050 C 
ATOM     21  C   UNL     1      -2.452   1.372  24.813  0.00  0.00    +0.063 A 
ATOM     22  C   UNL     1      -3.178   1.721  24.997  0.00  0.00    +0.023 A 
ATOM     23  C   UNL     1      -3.211   2.519  25.201  0.00  0.00    +0.034 C 
ATOM     24  C   UNL     1      -2.520   2.969  25.221  0.00  0.00    +0.010 C 
ATOM     25  S   UNL     1      -3.762   1.142  24.931  0.00  0.00    -0.054 S 
ATOM     26  C   UNL     1      -3.400   0.436  24.706  0.00  0.00    +0.186 A 
ATOM     27  N   UNL     1      -3.779  -0.285  24.577  0.00  0.00    -0.148 NA
ATOM     28  C   UNL     1      -3.342  -0.946  24.353  0.00  0.00    +0.305 C 
ATOM     29  O   UNL     1      -2.524  -0.889  24.259  0.00  0.00    -0.265 OA
ATOM     35  N   UNL     1      -2.591   0.578  24.634  0.00  0.00    -0.227 NA
ENDROOT
BRANCH  28  30
ATOM     30  C   UNL     1      -3.722  -1.667  24.224  0.00  0.00    +0.201 A 
ATOM     31  C   UNL     1      -3.472  -2.404  24.502  0.00  0.00    +0.046 A 
ATOM     32  C   UNL     1      -4.014  -2.970  24.244  0.00  0.00    +0.044 A 
ATOM     33  C   UNL     1      -4.598  -2.585  23.807  0.00  0.00    +0.180 A 
ATOM     34  O   UNL     1      -4.417  -1.779  23.795  0.00  0.00    -0.446 OA
ENDBRANCH  28  30
BRANCH   2   3
ATOM      3  C   UNL     1      -3.353   3.572  25.483  0.00  0.00    +0.184 C 
ATOM      4  O   UNL     1      -3.897   4.132  25.749  0.00  0.00    -0.220 OA
ENDBRANCH   2   3
BRANCH  11  12
ATOM     12  C   UNL     1      -1.037   1.473  24.649  0.00  0.00    +0.091 C 
BRANCH  12  13
ATOM     13  C   UNL     1      -0.839   1.322  23.862  0.00  0.00    +0.226 C 
ATOM     14  O   UNL     1      -1.248   1.703  23.255  0.00  0.00    -0.275 OA
ATOM     15  N   UNL     1      -0.234   0.793  23.683  0.00  0.00    -0.280 N 
ATOM     16  C   UNL     1      -0.036   0.642  22.897  0.00  0.00    +0.093 C 
ATOM     17  C   UNL     1       0.571   0.112  22.718  0.00  0.00    +0.022 C 
ATOM     18  C   UNL     1       0.979  -0.268  23.325  0.00  0.00    +0.004 C 
ATOM     19  C   UNL     1       0.781  -0.118  24.112  0.00  0.00    +0.022 C 
ATOM     20  C   UNL     1       0.175   0.412  24.291  0.00  0.00    +0.093 C 
ENDBRANCH  12  13
ENDBRANCH  11  12
TORSDOF 4
ENDMDL
MODEL 8
REMARK VINA RESULT:     -11.5      1.012      4.423
REMARK  Name = 
REMARK  4 active torsions:
REMARK  status: ('A' for Active; 'I' for Inactive)
REMARK    1  A    between atoms: C_2  and  C_3
REMARK    2  A    between atoms: C_11  and  C_12
REMARK    3  A    between atoms: C_12  and  C_13
REMARK    4  A    between atoms: C_28  and  C_30
REMARK                            x       y       z     vdW  Elec       q    Type
REMARK                         _______ _______ _______ _____ _____    ______ ____
ROOT
ATOM      1  C   UNL     1       1.138   1.454  23.824  0.00  0.00    +0.005 C 
ATOM      2  C   UNL     1       0.378   1.153  23.934  0.00  0.00    +0.059 C 
ATOM      5  C   UNL     1       0.772   0.466  23.706  0.00  0.00    +0.154 C 
ATOM      6  O   UNL     1       1.578   0.491  23.529  0.00  0.00    -0.223 OA
ATOM      7  C   UNL     1       0.361  -0.249  23.654  0.00  0.00    +0.033 C 
ATOM      8  C   UNL     1      -0.444  -0.274  23.830  0.00  0.00    +0.003 C 
ATOM      9  C   UNL     1      -0.838   0.413  24.058  0.00  0.00    +0.006 C 
ATOM     10  C   UNL     1      -1.249  -0.300  24.006  0.00  0.00    +0.000 C 
ATOM     11  C   UNL     1      -1.644   0.388  24.234  0.00  0.00    +0.050 C 
ATOM     21  C   UNL     1      -2.038   1.075  24.462  0.00  0.00    +0.063 A 
ATOM     22  C   UNL     1      -1.627   1.789  24.514  0.00  0.00    +0.023 A 
ATOM     23  C   UNL     1      -0.822   1.815  24.338  0.00  0.00    +0.034 C 
ATOM     24  C   UNL     1      -0.427   1.127  24.110  0.00  0.00    +0.010 C 
ATOM     25  S   UNL     1      -2.159   2.373  24.753  0.00  0.00    -0.054 S 
ATOM     26  C   UNL     1      -2.899   2.021  24.848  0.00  0.00    +0.186 A 
ATOM     27  N   UNL     1      -3.592   2.403  25.081  0.00  0.00    -0.148 NA
ATOM     28  C   UNL     1      -4.294   1.976  25.153  0.00  0.00    +0.305 C 
ATOM     29  O   UNL     1      -4.304   1.167  24.991  0.00  0.00    -0.265 OA
ATOM     35  N   UNL     1      -2.824   1.219  24.668  0.00  0.00    -0.227 NA
ENDROOT
BRANCH  28  30
ATOM     30  C   UNL     1      -4.987   2.358  25.386  0.00  0.00    +0.201 A 
ATOM     31  C   UNL     1      -5.708   1.995  25.554  0.00  0.00    +0.046 A 
ATOM     32  C   UNL     1      -6.248   2.583  25.764  0.00  0.00    +0.044 A 
ATOM     33  C   UNL     1      -5.859   3.310  25.727  0.00  0.00    +0.180 A 
ATOM     34  O   UNL     1      -5.080   3.171  25.494  0.00  0.00    -0.446 OA
ENDBRANCH  28  30
BRANCH   2   3
ATOM      3  C   UNL     1       0.248   1.945  24.124  0.00  0.00    +0.184 C 
ATOM      4  O   UNL     1       0.886   2.466  24.181  0.00  0.00    -0.220 OA
ENDBRANCH   2   3
BRANCH  11  12
ATOM     12  C   UNL     1      -2.055  -0.325  24.182  0.00  0.00    +0.091 C 
BRANCH  12  13
ATOM     13  C   UNL     1      -2.237  -0.748  24.868  0.00  0.00    +0.226 C 
ATOM     14  O   UNL     1      -1.897  -0.532  25.587  0.00  0.00    -0.275 OA
ATOM     15  N   UNL     1      -2.759  -1.385  24.833  0.00  0.00    -0.280 N 
ATOM     16  C   UNL     1      -2.941  -1.808  25.517  0.00  0.00    +0.093 C 
ATOM     17  C   UNL     1      -3.463  -2.446  25.482  0.00  0.00    +0.022 C 
ATOM     18  C   UNL     1      -3.802  -2.661  24.763  0.00  0.00    +0.004 C 
ATOM     19  C   UNL     1      -3.621  -2.239  24.077  0.00  0.00    +0.022 C 
ATOM     20  C   UNL     1      -3.099  -1.601  24.112  0.00  0.00    +0.093 C 
ENDBRANCH  12  13
ENDBRANCH  11  12
TORSDOF 4
ENDMDL
