MODEL 1
REMARK VINA RESULT:     -13.2      0.000      0.000
REMARK  Name = 
REMARK  4 active torsions:
REMARK  status: ('A' for Active; 'I' for Inactive)
REMARK    1  A    between atoms: S_2  and  C_3
REMARK    2  A    between atoms: C_3  and  C_4
REMARK    3  A    between atoms: C_13  and  C_20
REMARK    4  A    between atoms: C_22  and  C_26
REMARK                            x       y       z     vdW  Elec       q    Type
REMARK                         _______ _______ _______ _____ _____    ______ ____
ROOT
ATOM      4  C   UNL     1      -4.129   2.913  24.398  0.00  0.00    +0.237 C 
ATOM      5  O   UNL     1      -4.223   3.722  24.267  0.00  0.00    -0.274 OA
ATOM      6  N   UNL     1      -3.468   2.521  24.097  0.00  0.00    -0.278 N 
ATOM      7  C   UNL     1      -2.744   2.409  23.695  0.00  0.00    +0.095 C 
ATOM      8  C   UNL     1      -2.620   1.440  23.844  0.00  0.00    +0.043 C 
ATOM      9  C   UNL     1      -2.374   0.664  23.877  0.00  0.00    +0.011 C 
ATOM     10  C   UNL     1      -2.914   1.048  24.109  0.00  0.00    +0.058 C 
ATOM     11  C   UNL     1      -3.021   1.985  23.956  0.00  0.00    +0.099 C 
ATOM     12  C   UNL     1      -3.696   0.977  24.587  0.00  0.00    +0.041 A 
ATOM     13  C   UNL     1      -4.154   0.420  24.986  0.00  0.00    +0.012 A 
ATOM     14  C   UNL     1      -4.858   0.649  25.350  0.00  0.00    +0.006 A 
ATOM     15  C   UNL     1      -5.104   1.436  25.314  0.00  0.00    +0.061 A 
ATOM     16  C   UNL     1      -4.646   1.994  24.915  0.00  0.00    +0.261 A 
ATOM     17  O   UNL     1      -5.239   2.518  25.144  0.00  0.00    -0.267 OA
ATOM     18  N   UNL     1      -3.942   1.764  24.551  0.00  0.00    -0.299 N 
ATOM     19  C   UNL     1      -3.438   1.376  24.342  0.00  0.00    +0.110 C 
ENDROOT
BRANCH  13  20
ATOM     20  C   UNL     1      -3.909  -0.367  25.022  0.00  0.00    +0.002 A 
ATOM     21  C   UNL     1      -4.159  -0.904  24.448  0.00  0.00    +0.010 A 
ATOM     22  C   UNL     1      -3.913  -1.691  24.484  0.00  0.00    +0.068 A 
ATOM     23  C   UNL     1      -3.417  -1.941  25.094  0.00  0.00    +0.010 A 
ATOM     24  C   UNL     1      -3.167  -1.404  25.668  0.00  0.00    +0.001 A 
ATOM     25  C   UNL     1      -3.413  -0.617  25.632  0.00  0.00    +0.000 A 
BRANCH  22  26
ATOM     26  C   UNL     1      -4.164  -2.227  23.910  0.00  0.00    +0.100 C 
ATOM     27  N   UNL     1      -4.414  -2.765  23.335  0.00  0.00    -0.191 NA
ENDBRANCH  22  26
ENDBRANCH  13  20
BRANCH   4   3
ATOM      3  C   UNL     1      -4.696   2.496  24.829  0.00  0.00    +0.143 C 
BRANCH   3   2
ATOM      1  C   UNL     1      -5.399   3.479  25.590  0.00  0.00    +0.070 C 
ATOM      2  S   UNL     1      -5.402   2.863  25.043  0.00  0.00    -0.130 S 
ENDBRANCH   3   2
ENDBRANCH   4   3
TORSDOF 4
ENDMDL
MODEL 2
REMARK VINA RESULT:     -12.7      1.232      2.126
REMARK  Name = 
REMARK  4 active torsions:
REMARK  status: ('A' for Active; 'I' for Inactive)
REMARK    1  A    between atoms: S_2  and  C_3
REMARK    2  A    between atoms: C_3  and  C_4
REMARK    3  A    between atoms: C_13  and  C_20
REMARK    4  A    between atoms: C_22  and  C_26
REMARK                            x       y       z     vdW  Elec       q    Type
REMARK                         _______ _______ _______ _____ _____    ______ ____
ROOT
ATOM      4  C   UNL     1      -4.024   3.403  25.327  0.00  0.00    +0.237 C 
ATOM      5  O   UNL     1      -4.066   4.202  25.528  0.00  0.00    -0.274 OA
ATOM      6  N   UNL     1      -4.701   2.931  25.369  0.00  0.00    -0.278 N 
ATOM      7  C   UNL     1      -5.499   2.724  25.504  0.00  0.00    +0.095 C 
ATOM      8  C   UNL     1      -5.463   1.766  25.265  0.00  0.00    +0.043 C 
ATOM      9  C   UNL     1      -5.599   0.978  25.108  0.00  0.00    +0.011 C 
ATOM     10  C   UNL     1      -5.058   1.425  25.090  0.00  0.00    +0.058 C 
ATOM     11  C   UNL     1      -5.109   2.349  25.324  0.00  0.00    +0.099 C 
ATOM     12  C   UNL     1      -4.161   1.463  24.893  0.00  0.00    +0.041 A 
ATOM     13  C   UNL     1      -3.541   0.984  24.635  0.00  0.00    +0.012 A 
ATOM     14  C   UNL     1      -2.787   1.303  24.538  0.00  0.00    +0.006 A 
ATOM     15  C   UNL     1      -2.652   2.102  24.699  0.00  0.00    +0.061 A 
ATOM     16  C   UNL     1      -3.272   2.580  24.956  0.00  0.00    +0.261 A 
ATOM     17  O   UNL     1      -2.698   3.171  24.966  0.00  0.00    -0.267 OA
ATOM     18  N   UNL     1      -4.027   2.261  25.053  0.00  0.00    -0.299 N 
ATOM     19  C   UNL     1      -4.526   1.815  25.061  0.00  0.00    +0.110 C 
ENDROOT
BRANCH  13  20
ATOM     20  C   UNL     1      -3.676   0.186  24.474  0.00  0.00    +0.002 A 
ATOM     21  C   UNL     1      -3.508  -0.384  25.047  0.00  0.00    +0.010 A 
ATOM     22  C   UNL     1      -3.643  -1.182  24.886  0.00  0.00    +0.068 A 
ATOM     23  C   UNL     1      -3.944  -1.410  24.153  0.00  0.00    +0.010 A 
ATOM     24  C   UNL     1      -4.111  -0.840  23.581  0.00  0.00    +0.001 A 
ATOM     25  C   UNL     1      -3.977  -0.042  23.741  0.00  0.00    +0.000 A 
BRANCH  22  26
ATOM     26  C   UNL     1      -3.476  -1.752  25.459  0.00  0.00    +0.100 C 
ATOM     27  N   UNL     1      -3.308  -2.322  26.031  0.00  0.00    -0.191 NA
ENDBRANCH  22  26
ENDBRANCH  13  20
BRANCH   4   3
ATOM      3  C   UNL     1      -3.307   3.075  25.083  0.00  0.00    +0.143 C 
BRANCH   3   2
ATOM      1  C   UNL     1      -2.303   3.987  25.533  0.00  0.00    +0.070 C 
ATOM      2  S   UNL     1      -2.664   3.565  24.923  0.00  0.00    -0.130 S 
ENDBRANCH   3   2
ENDBRANCH   4   3
TORSDOF 4
ENDMDL
MODEL 3
REMARK VINA RESULT:     -12.5      2.246      3.914
REMARK  Name = 
REMARK  4 active torsions:
REMARK  status: ('A' for Active; 'I' for Inactive)
REMARK    1  A    between atoms: S_2  and  C_3
REMARK    2  A    between atoms: C_3  and  C_4
REMARK    3  A    between atoms: C_13  and  C_20
REMARK    4  A    between atoms: C_22  and  C_26
REMARK                            x       y       z     vdW  Elec       q    Type
REMARK                         _______ _______ _______ _____ _____    ______ ____
ROOT
ATOM      4  C   UNL     1      -2.294  -1.637  24.864  0.00  0.00    +0.237 C 
ATOM      5  O   UNL     1      -1.938  -2.374  24.967  0.00  0.00    -0.274 OA
ATOM      6  N   UNL     1      -1.876  -0.949  25.044  0.00  0.00    -0.278 N 
ATOM      7  C   UNL     1      -1.243  -0.465  25.294  0.00  0.00    +0.095 C 
ATOM      8  C   UNL     1      -1.657   0.425  25.176  0.00  0.00    +0.043 C 
ATOM      9  C   UNL     1      -1.849   1.215  25.135  0.00  0.00    +0.011 C 
ATOM     10  C   UNL     1      -2.157   0.599  24.999  0.00  0.00    +0.058 C 
ATOM     11  C   UNL     1      -1.742  -0.253  25.119  0.00  0.00    +0.099 C 
ATOM     12  C   UNL     1      -2.946   0.238  24.696  0.00  0.00    +0.041 A 
ATOM     13  C   UNL     1      -3.693   0.465  24.430  0.00  0.00    +0.012 A 
ATOM     14  C   UNL     1      -4.242  -0.109  24.207  0.00  0.00    +0.006 A 
ATOM     15  C   UNL     1      -4.044  -0.909  24.249  0.00  0.00    +0.061 A 
ATOM     16  C   UNL     1      -3.297  -1.135  24.515  0.00  0.00    +0.261 A 
ATOM     17  O   UNL     1      -3.577  -1.899  24.383  0.00  0.00    -0.267 OA
ATOM     18  N   UNL     1      -2.747  -0.561  24.738  0.00  0.00    -0.299 N 
ATOM     19  C   UNL     1      -2.478   0.039  24.860  0.00  0.00    +0.110 C 
ENDROOT
BRANCH  13  20
ATOM     20  C   UNL     1      -3.891   1.265  24.388  0.00  0.00    +0.002 A 
ATOM     21  C   UNL     1      -4.351   1.608  24.980  0.00  0.00    +0.010 A 
ATOM     22  C   UNL     1      -4.549   2.407  24.938  0.00  0.00    +0.068 A 
ATOM     23  C   UNL     1      -4.287   2.865  24.303  0.00  0.00    +0.010 A 
ATOM     24  C   UNL     1      -3.826   2.522  23.711  0.00  0.00    +0.001 A 
ATOM     25  C   UNL     1      -3.628   1.722  23.753  0.00  0.00    +0.000 A 
BRANCH  22  26
ATOM     26  C   UNL     1      -5.009   2.750  25.530  0.00  0.00    +0.100 C 
ATOM     27  N   UNL     1      -5.470   3.094  26.123  0.00  0.00    -0.191 NA
ENDBRANCH  22  26
ENDBRANCH  13  20
BRANCH   4   3
ATOM      3  C   UNL     1      -3.068  -1.588  24.581  0.00  0.00    +0.143 C 
BRANCH   3   2
ATOM      1  C   UNL     1      -3.594  -2.907  24.744  0.00  0.00    +0.070 C 
ATOM      2  S   UNL     1      -3.434  -2.255  24.264  0.00  0.00    -0.130 S 
ENDBRANCH   3   2
ENDBRANCH   4   3
TORSDOF 4
ENDMDL
MODEL 4
REMARK VINA RESULT:     -12.5      2.264      4.123
REMARK  Name = 
REMARK  4 active torsions:
REMARK  status: ('A' for Active; 'I' for Inactive)
REMARK    1  A    between atoms: S_2  and  C_3
REMARK    2  A    between atoms: C_3  and  C_4
REMARK    3  A    between atoms: C_13  and  C_20
REMARK    4  A    between atoms: C_22  and  C_26
REMARK                            x       y       z     vdW  Elec       q    Type
REMARK                         _______ _______ _______ _____ _____    ______ ____
ROOT
ATOM      4  C   UNL     1      -2.212  -1.680  24.841  0.00  0.00    +0.237 C 
ATOM      5  O   UNL     1      -1.852  -2.416  24.936  0.00  0.00    -0.274 OA
ATOM      6  N   UNL     1      -2.991  -1.634  24.573  0.00  0.00    -0.278 N 
ATOM      7  C   UNL     1      -3.739  -1.890  24.302  0.00  0.00    +0.095 C 
ATOM      8  C   UNL     1      -4.182  -1.015  24.185  0.00  0.00    +0.043 C 
ATOM      9  C   UNL     1      -4.680  -0.387  24.039  0.00  0.00    +0.011 C 
ATOM     10  C   UNL     1      -4.023  -0.486  24.263  0.00  0.00    +0.058 C 
ATOM     11  C   UNL     1      -3.608  -1.340  24.371  0.00  0.00    +0.099 C 
ATOM     12  C   UNL     1      -3.278  -0.024  24.541  0.00  0.00    +0.041 A 
ATOM     13  C   UNL     1      -3.013   0.747  24.665  0.00  0.00    +0.012 A 
ATOM     14  C   UNL     1      -2.245   0.879  24.937  0.00  0.00    +0.006 A 
ATOM     15  C   UNL     1      -1.744   0.241  25.085  0.00  0.00    +0.061 A 
ATOM     16  C   UNL     1      -2.009  -0.530  24.960  0.00  0.00    +0.261 A 
ATOM     17  O   UNL     1      -1.253  -0.739  25.214  0.00  0.00    -0.267 OA
ATOM     18  N   UNL     1      -2.777  -0.662  24.688  0.00  0.00    -0.299 N 
ATOM     19  C   UNL     1      -3.400  -0.541  24.477  0.00  0.00    +0.110 C 
ENDROOT
BRANCH  13  20
ATOM     20  C   UNL     1      -3.515   1.385  24.518  0.00  0.00    +0.002 A 
ATOM     21  C   UNL     1      -4.013   1.664  25.113  0.00  0.00    +0.010 A 
ATOM     22  C   UNL     1      -4.515   2.302  24.965  0.00  0.00    +0.068 A 
ATOM     23  C   UNL     1      -4.518   2.661  24.223  0.00  0.00    +0.010 A 
ATOM     24  C   UNL     1      -4.019   2.383  23.628  0.00  0.00    +0.001 A 
ATOM     25  C   UNL     1      -3.518   1.744  23.775  0.00  0.00    +0.000 A 
BRANCH  22  26
ATOM     26  C   UNL     1      -5.013   2.581  25.560  0.00  0.00    +0.100 C 
ATOM     27  N   UNL     1      -5.513   2.860  26.155  0.00  0.00    -0.191 NA
ENDBRANCH  22  26
ENDBRANCH  13  20
BRANCH   4   3
ATOM      3  C   UNL     1      -1.794  -0.990  25.016  0.00  0.00    +0.143 C 
BRANCH   3   2
ATOM      1  C   UNL     1      -0.417  -1.372  25.019  0.00  0.00    +0.070 C 
ATOM      2  S   UNL     1      -1.066  -1.037  25.401  0.00  0.00    -0.130 S 
ENDBRANCH   3   2
ENDBRANCH   4   3
TORSDOF 4
ENDMDL
MODEL 5
REMARK VINA RESULT:     -12.1      2.204      3.667
REMARK  Name = 
REMARK  4 active torsions:
REMARK  status: ('A' for Active; 'I' for Inactive)
REMARK    1  A    between atoms: S_2  and  C_3
REMARK    2  A    between atoms: C_3  and  C_4
REMARK    3  A    between atoms: C_13  and  C_20
REMARK    4  A    between atoms: C_22  and  C_26
REMARK                            x       y       z     vdW  Elec       q    Type
REMARK                         _______ _______ _______ _____ _____    ______ ____
ROOT
ATOM      4  C   UNL     1      -4.976   2.291  24.651  0.00  0.00    +0.237 C 
ATOM      5  O   UNL     1      -5.727   1.974  24.527  0.00  0.00    -0.274 OA
ATOM      6  N   UNL     1      -4.354   2.084  24.149  0.00  0.00    -0.278 N 
ATOM      7  C   UNL     1      -3.953   1.712  23.518  0.00  0.00    +0.095 C 
ATOM      8  C   UNL     1      -3.047   2.084  23.655  0.00  0.00    +0.043 C 
ATOM      9  C   UNL     1      -2.262   2.297  23.632  0.00  0.00    +0.011 C 
ATOM     10  C   UNL     1      -2.825   2.437  24.025  0.00  0.00    +0.058 C 
ATOM     11  C   UNL     1      -3.695   2.069  23.880  0.00  0.00    +0.099 C 
ATOM     12  C   UNL     1      -3.090   2.926  24.757  0.00  0.00    +0.041 A 
ATOM     13  C   UNL     1      -2.792   3.451  25.319  0.00  0.00    +0.012 A 
ATOM     14  C   UNL     1      -3.289   3.757  25.902  0.00  0.00    +0.006 A 
ATOM     15  C   UNL     1      -4.084   3.539  25.922  0.00  0.00    +0.061 A 
ATOM     16  C   UNL     1      -4.383   3.015  25.360  0.00  0.00    +0.261 A 
ATOM     17  O   UNL     1      -5.093   3.121  25.765  0.00  0.00    -0.267 OA
ATOM     18  N   UNL     1      -3.886   2.709  24.777  0.00  0.00    -0.299 N 
ATOM     19  C   UNL     1      -3.334   2.592  24.418  0.00  0.00    +0.110 C 
ENDROOT
BRANCH  13  20
ATOM     20  C   UNL     1      -1.996   3.668  25.298  0.00  0.00    +0.002 A 
ATOM     21  C   UNL     1      -1.429   3.195  25.666  0.00  0.00    +0.010 A 
ATOM     22  C   UNL     1      -0.634   3.413  25.646  0.00  0.00    +0.068 A 
ATOM     23  C   UNL     1      -0.405   4.104  25.257  0.00  0.00    +0.010 A 
ATOM     24  C   UNL     1      -0.971   4.577  24.889  0.00  0.00    +0.001 A 
ATOM     25  C   UNL     1      -1.767   4.359  24.910  0.00  0.00    +0.000 A 
BRANCH  22  26
ATOM     26  C   UNL     1      -0.067   2.940  26.013  0.00  0.00    +0.100 C 
ATOM     27  N   UNL     1       0.500   2.466  26.381  0.00  0.00    -0.191 NA
ENDBRANCH  22  26
ENDBRANCH  13  20
BRANCH   4   3
ATOM      3  C   UNL     1      -4.846   2.814  25.276  0.00  0.00    +0.143 C 
BRANCH   3   2
ATOM      1  C   UNL     1      -5.968   2.580  26.129  0.00  0.00    +0.070 C 
ATOM      2  S   UNL     1      -5.484   3.101  25.712  0.00  0.00    -0.130 S 
ENDBRANCH   3   2
ENDBRANCH   4   3
TORSDOF 4
ENDMDL
