MODEL 1
REMARK VINA RESULT:      -8.5      0.000      0.000
REMARK  Name = 
REMARK  1 active torsions:
REMARK  status: ('A' for Active; 'I' for Inactive)
REMARK    1  A    between atoms: N_7  and  C_11
REMARK                            x       y       z     vdW  Elec       q    Type
REMARK                         _______ _______ _______ _____ _____    ______ ____
ROOT
ATOM      1  O   UNL     1      -4.161   3.323  24.339  0.00  0.00    -0.251 OA
ATOM      2  C   UNL     1      -4.548   2.660  24.643  0.00  0.00    +0.323 C 
ATOM      3  N   UNL     1      -5.266   2.660  25.049  0.00  0.00    -0.187 NA
ATOM      4  C   UNL     1      -5.446   1.880  25.250  0.00  0.00    +0.138 C 
ATOM      5  C   UNL     1      -4.839   1.399  24.968  0.00  0.00    +0.115 C 
ATOM      6  C   UNL     1      -4.720   0.583  25.004  0.00  0.00    +0.094 C 
ATOM      7  N   UNL     1      -4.046   0.249  24.666  0.00  0.00    -0.271 NA
ATOM      8  C   UNL     1      -3.491   0.730  24.291  0.00  0.00    +0.094 C 
ATOM      9  C   UNL     1      -3.610   1.546  24.254  0.00  0.00    +0.112 C 
ATOM     10  N   UNL     1      -4.284   1.880  24.593  0.00  0.00    -0.260 N 
ENDROOT
BRANCH   7  11
ATOM     11  C   UNL     1      -3.927  -0.567  24.702  0.00  0.00    +0.063 C 
ATOM     12  C   UNL     1      -3.573  -0.902  25.367  0.00  0.00    +0.048 C 
ATOM     13  C   UNL     1      -3.452  -1.717  25.405  0.00  0.00    +0.144 C 
ATOM     14  O   UNL     1      -3.687  -2.198  24.776  0.00  0.00    -0.354 OA
ATOM     15  C   UNL     1      -4.041  -1.862  24.110  0.00  0.00    +0.144 C 
ATOM     16  C   UNL     1      -4.160  -1.047  24.074  0.00  0.00    +0.048 C 
ENDBRANCH   7  11
TORSDOF 1
ENDMDL
MODEL 2
REMARK VINA RESULT:      -8.2      1.019      3.678
REMARK  Name = 
REMARK  1 active torsions:
REMARK  status: ('A' for Active; 'I' for Inactive)
REMARK    1  A    between atoms: N_7  and  C_11
REMARK                            x       y       z     vdW  Elec       q    Type
REMARK                         _______ _______ _______ _____ _____    ______ ____
ROOT
ATOM      1  O   UNL     1      -3.205  -2.803  25.402  0.00  0.00    -0.251 OA
ATOM      2  C   UNL     1      -3.583  -2.316  24.852  0.00  0.00    +0.323 C 
ATOM      3  N   UNL     1      -3.906  -2.557  24.133  0.00  0.00    -0.187 NA
ATOM      4  C   UNL     1      -4.227  -1.893  23.762  0.00  0.00    +0.138 C 
ATOM      5  C   UNL     1      -4.101  -1.242  24.253  0.00  0.00    +0.115 C 
ATOM      6  C   UNL     1      -4.298  -0.445  24.173  0.00  0.00    +0.094 C 
ATOM      7  N   UNL     1      -4.096   0.091  24.767  0.00  0.00    -0.271 NA
ATOM      8  C   UNL     1      -3.698  -0.170  25.440  0.00  0.00    +0.094 C 
ATOM      9  C   UNL     1      -3.501  -0.967  25.521  0.00  0.00    +0.112 C 
ATOM     10  N   UNL     1      -3.703  -1.504  24.926  0.00  0.00    -0.260 N 
ENDROOT
BRANCH   7  11
ATOM     11  C   UNL     1      -4.292   0.888  24.688  0.00  0.00    +0.063 C 
ATOM     12  C   UNL     1      -5.001   1.171  25.001  0.00  0.00    +0.048 C 
ATOM     13  C   UNL     1      -5.199   1.968  24.923  0.00  0.00    +0.144 C 
ATOM     14  O   UNL     1      -4.686   2.483  24.530  0.00  0.00    -0.354 OA
ATOM     15  C   UNL     1      -3.978   2.200  24.216  0.00  0.00    +0.144 C 
ATOM     16  C   UNL     1      -3.781   1.403  24.295  0.00  0.00    +0.048 C 
ENDBRANCH   7  11
TORSDOF 1
ENDMDL
MODEL 3
REMARK VINA RESULT:      -7.9      2.811      4.280
REMARK  Name = 
REMARK  1 active torsions:
REMARK  status: ('A' for Active; 'I' for Inactive)
REMARK    1  A    between atoms: N_7  and  C_11
REMARK                            x       y       z     vdW  Elec       q    Type
REMARK                         _______ _______ _______ _____ _____    ______ ____
ROOT
ATOM      1  O   UNL     1      -5.820   2.793  25.781  0.00  0.00    -0.251 OA
ATOM      2  C   UNL     1      -5.176   2.739  25.267  0.00  0.00    +0.323 C 
ATOM      3  N   UNL     1      -5.153   2.311  24.563  0.00  0.00    -0.187 NA
ATOM      4  C   UNL     1      -4.405   2.411  24.227  0.00  0.00    +0.138 C 
ATOM      5  C   UNL     1      -3.968   2.902  24.724  0.00  0.00    +0.115 C 
ATOM      6  C   UNL     1      -3.197   3.192  24.676  0.00  0.00    +0.094 C 
ATOM      7  N   UNL     1      -2.902   3.683  25.269  0.00  0.00    -0.271 NA
ATOM      8  C   UNL     1      -3.378   3.886  25.911  0.00  0.00    +0.094 C 
ATOM      9  C   UNL     1      -4.150   3.597  25.961  0.00  0.00    +0.112 C 
ATOM     10  N   UNL     1      -4.444   3.105  25.367  0.00  0.00    -0.260 N 
ENDROOT
BRANCH   7  11
ATOM     11  C   UNL     1      -2.131   3.972  25.221  0.00  0.00    +0.063 C 
ATOM     12  C   UNL     1      -1.492   3.456  25.294  0.00  0.00    +0.048 C 
ATOM     13  C   UNL     1      -0.720   3.744  25.245  0.00  0.00    +0.144 C 
ATOM     14  O   UNL     1      -0.588   4.550  25.124  0.00  0.00    -0.354 OA
ATOM     15  C   UNL     1      -1.227   5.066  25.051  0.00  0.00    +0.144 C 
ATOM     16  C   UNL     1      -1.998   4.777  25.099  0.00  0.00    +0.048 C 
ENDBRANCH   7  11
TORSDOF 1
ENDMDL
MODEL 4
REMARK VINA RESULT:      -7.4      2.291      2.679
REMARK  Name = 
REMARK  1 active torsions:
REMARK  status: ('A' for Active; 'I' for Inactive)
REMARK    1  A    between atoms: N_7  and  C_11
REMARK                            x       y       z     vdW  Elec       q    Type
REMARK                         _______ _______ _______ _____ _____    ______ ____
ROOT
ATOM      1  O   UNL     1      -5.741   3.778  25.799  0.00  0.00    -0.251 OA
ATOM      2  C   UNL     1      -5.471   3.058  25.500  0.00  0.00    +0.323 C 
ATOM      3  N   UNL     1      -5.922   2.374  25.402  0.00  0.00    -0.187 NA
ATOM      4  C   UNL     1      -5.432   1.788  25.088  0.00  0.00    +0.138 C 
ATOM      5  C   UNL     1      -4.680   2.111  24.992  0.00  0.00    +0.115 C 
ATOM      6  C   UNL     1      -3.974   1.792  24.706  0.00  0.00    +0.094 C 
ATOM      7  N   UNL     1      -3.294   2.256  24.674  0.00  0.00    -0.271 NA
ATOM      8  C   UNL     1      -3.318   3.040  24.929  0.00  0.00    +0.094 C 
ATOM      9  C   UNL     1      -4.022   3.360  25.215  0.00  0.00    +0.112 C 
ATOM     10  N   UNL     1      -4.703   2.895  25.247  0.00  0.00    -0.260 N 
ENDROOT
BRANCH   7  11
ATOM     11  C   UNL     1      -2.589   1.937  24.388  0.00  0.00    +0.063 C 
ATOM     12  C   UNL     1      -2.417   1.975  23.582  0.00  0.00    +0.048 C 
ATOM     13  C   UNL     1      -1.712   1.657  23.295  0.00  0.00    +0.144 C 
ATOM     14  O   UNL     1      -1.179   1.300  23.815  0.00  0.00    -0.354 OA
ATOM     15  C   UNL     1      -1.351   1.262  24.621  0.00  0.00    +0.144 C 
ATOM     16  C   UNL     1      -2.056   1.580  24.907  0.00  0.00    +0.048 C 
ENDBRANCH   7  11
TORSDOF 1
ENDMDL
MODEL 5
REMARK VINA RESULT:      -7.4      2.575      3.811
REMARK  Name = 
REMARK  1 active torsions:
REMARK  status: ('A' for Active; 'I' for Inactive)
REMARK    1  A    between atoms: N_7  and  C_11
REMARK                            x       y       z     vdW  Elec       q    Type
REMARK                         _______ _______ _______ _____ _____    ______ ____
ROOT
ATOM      1  O   UNL     1      -0.865   4.882  24.964  0.00  0.00    -0.251 OA
ATOM      2  C   UNL     1      -1.183   4.154  25.187  0.00  0.00    +0.323 C 
ATOM      3  N   UNL     1      -0.764   3.519  25.505  0.00  0.00    -0.187 NA
ATOM      4  C   UNL     1      -1.299   2.906  25.646  0.00  0.00    +0.138 C 
ATOM      5  C   UNL     1      -2.047   3.163  25.414  0.00  0.00    +0.115 C 
ATOM      6  C   UNL     1      -2.785   2.794  25.423  0.00  0.00    +0.094 C 
ATOM      7  N   UNL     1      -3.451   3.196  25.150  0.00  0.00    -0.271 NA
ATOM      8  C   UNL     1      -3.380   3.967  24.867  0.00  0.00    +0.094 C 
ATOM      9  C   UNL     1      -2.642   4.337  24.856  0.00  0.00    +0.112 C 
ATOM     10  N   UNL     1      -1.976   3.934  25.130  0.00  0.00    -0.260 N 
ENDROOT
BRANCH   7  11
ATOM     11  C   UNL     1      -4.189   2.827  25.160  0.00  0.00    +0.063 C 
ATOM     12  C   UNL     1      -4.331   2.177  24.673  0.00  0.00    +0.048 C 
ATOM     13  C   UNL     1      -5.069   1.807  24.682  0.00  0.00    +0.144 C 
ATOM     14  O   UNL     1      -5.665   2.089  25.179  0.00  0.00    -0.354 OA
ATOM     15  C   UNL     1      -5.523   2.740  25.666  0.00  0.00    +0.144 C 
ATOM     16  C   UNL     1      -4.785   3.109  25.656  0.00  0.00    +0.048 C 
ENDBRANCH   7  11
TORSDOF 1
ENDMDL
MODEL 6
REMARK VINA RESULT:      -7.3      2.138      3.456
REMARK  Name = 
REMARK  1 active torsions:
REMARK  status: ('A' for Active; 'I' for Inactive)
REMARK    1  A    between atoms: N_7  and  C_11
REMARK                            x       y       z     vdW  Elec       q    Type
REMARK                         _______ _______ _______ _____ _____    ______ ____
ROOT
ATOM      1  O   UNL     1      -1.003   1.237  23.232  0.00  0.00    -0.251 OA
ATOM      2  C   UNL     1      -1.490   1.103  23.885  0.00  0.00    +0.323 C 
ATOM      3  N   UNL     1      -1.328   0.593  24.513  0.00  0.00    -0.187 NA
ATOM      4  C   UNL     1      -1.962   0.629  25.041  0.00  0.00    +0.138 C 
ATOM      5  C   UNL     1      -2.514   1.162  24.738  0.00  0.00    +0.115 C 
ATOM      6  C   UNL     1      -3.246   1.419  25.020  0.00  0.00    +0.094 C 
ATOM      7  N   UNL     1      -3.685   1.967  24.590  0.00  0.00    -0.271 NA
ATOM      8  C   UNL     1      -3.393   2.260  23.875  0.00  0.00    +0.094 C 
ATOM      9  C   UNL     1      -2.662   2.004  23.592  0.00  0.00    +0.112 C 
ATOM     10  N   UNL     1      -2.222   1.454  24.024  0.00  0.00    -0.260 N 
ENDROOT
BRANCH   7  11
ATOM     11  C   UNL     1      -4.417   2.224  24.872  0.00  0.00    +0.063 C 
ATOM     12  C   UNL     1      -4.481   2.960  25.240  0.00  0.00    +0.048 C 
ATOM     13  C   UNL     1      -5.212   3.218  25.522  0.00  0.00    +0.144 C 
ATOM     14  O   UNL     1      -5.879   2.739  25.436  0.00  0.00    -0.354 OA
ATOM     15  C   UNL     1      -5.815   2.004  25.068  0.00  0.00    +0.144 C 
ATOM     16  C   UNL     1      -5.083   1.747  24.786  0.00  0.00    +0.048 C 
ENDBRANCH   7  11
TORSDOF 1
ENDMDL
MODEL 7
REMARK VINA RESULT:      -6.8     19.817     20.696
REMARK  Name = 
REMARK  1 active torsions:
REMARK  status: ('A' for Active; 'I' for Inactive)
REMARK    1  A    between atoms: N_7  and  C_11
REMARK                            x       y       z     vdW  Elec       q    Type
REMARK                         _______ _______ _______ _____ _____    ______ ____
ROOT
ATOM      1  O   UNL     1      12.085   7.444  17.677  0.00  0.00    -0.251 OA
ATOM      2  C   UNL     1      12.456   7.237  18.384  0.00  0.00    +0.323 C 
ATOM      3  N   UNL     1      12.080   6.988  19.075  0.00  0.00    -0.187 NA
ATOM      4  C   UNL     1      12.660   6.841  19.643  0.00  0.00    +0.138 C 
ATOM      5  C   UNL     1      13.395   6.999  19.303  0.00  0.00    +0.115 C 
ATOM      6  C   UNL     1      14.163   6.951  19.600  0.00  0.00    +0.094 C 
ATOM      7  N   UNL     1      14.804   7.149  19.121  0.00  0.00    -0.271 NA
ATOM      8  C   UNL     1      14.678   7.394  18.344  0.00  0.00    +0.094 C 
ATOM      9  C   UNL     1      13.911   7.441  18.045  0.00  0.00    +0.112 C 
ATOM     10  N   UNL     1      13.269   7.244  18.525  0.00  0.00    -0.260 N 
ENDROOT
BRANCH   7  11
ATOM     11  C   UNL     1      15.573   7.101  19.419  0.00  0.00    +0.063 C 
ATOM     12  C   UNL     1      15.876   7.717  19.876  0.00  0.00    +0.048 C 
ATOM     13  C   UNL     1      16.643   7.671  20.174  0.00  0.00    +0.144 C 
ATOM     14  O   UNL     1      17.109   7.008  20.014  0.00  0.00    -0.354 OA
ATOM     15  C   UNL     1      16.805   6.392  19.557  0.00  0.00    +0.144 C 
ATOM     16  C   UNL     1      16.037   6.439  19.259  0.00  0.00    +0.048 C 
ENDBRANCH   7  11
TORSDOF 1
ENDMDL
MODEL 8
REMARK VINA RESULT:      -6.7     18.035     18.991
REMARK  Name = 
REMARK  1 active torsions:
REMARK  status: ('A' for Active; 'I' for Inactive)
REMARK    1  A    between atoms: N_7  and  C_11
REMARK                            x       y       z     vdW  Elec       q    Type
REMARK                         _______ _______ _______ _____ _____    ______ ____
ROOT
ATOM      1  O   UNL     1      14.794   7.227  18.273  0.00  0.00    -0.251 OA
ATOM      2  C   UNL     1      14.627   7.090  19.069  0.00  0.00    +0.323 C 
ATOM      3  N   UNL     1      15.180   6.931  19.660  0.00  0.00    -0.187 NA
ATOM      4  C   UNL     1      14.772   6.831  20.371  0.00  0.00    +0.138 C 
ATOM      5  C   UNL     1      13.968   6.929  20.219  0.00  0.00    +0.115 C 
ATOM      6  C   UNL     1      13.305   6.893  20.708  0.00  0.00    +0.094 C 
ATOM      7  N   UNL     1      12.553   7.018  20.395  0.00  0.00    -0.271 NA
ATOM      8  C   UNL     1      12.463   7.178  19.590  0.00  0.00    +0.094 C 
ATOM      9  C   UNL     1      13.125   7.214  19.100  0.00  0.00    +0.112 C 
ATOM     10  N   UNL     1      13.878   7.089  19.415  0.00  0.00    -0.260 N 
ENDROOT
BRANCH   7  11
ATOM     11  C   UNL     1      11.889   6.982  20.884  0.00  0.00    +0.063 C 
ATOM     12  C   UNL     1      11.632   6.255  21.177  0.00  0.00    +0.048 C 
ATOM     13  C   UNL     1      10.969   6.218  21.666  0.00  0.00    +0.144 C 
ATOM     14  O   UNL     1      10.563   6.909  21.864  0.00  0.00    -0.354 OA
ATOM     15  C   UNL     1      10.821   7.636  21.571  0.00  0.00    +0.144 C 
ATOM     16  C   UNL     1      11.484   7.672  21.082  0.00  0.00    +0.048 C 
ENDBRANCH   7  11
TORSDOF 1
ENDMDL
MODEL 9
REMARK VINA RESULT:      -6.5     17.522     18.520
REMARK  Name = 
REMARK  1 active torsions:
REMARK  status: ('A' for Active; 'I' for Inactive)
REMARK    1  A    between atoms: N_7  and  C_11
REMARK                            x       y       z     vdW  Elec       q    Type
REMARK                         _______ _______ _______ _____ _____    ______ ____
ROOT
ATOM      1  O   UNL     1      10.213   7.678  22.037  0.00  0.00    -0.251 OA
ATOM      2  C   UNL     1      10.763   7.190  21.662  0.00  0.00    +0.323 C 
ATOM      3  N   UNL     1      10.931   6.407  21.860  0.00  0.00    -0.187 NA
ATOM      4  C   UNL     1      11.513   6.133  21.343  0.00  0.00    +0.138 C 
ATOM      5  C   UNL     1      11.704   6.746  20.826  0.00  0.00    +0.115 C 
ATOM      6  C   UNL     1      12.240   6.796  20.201  0.00  0.00    +0.094 C 
ATOM      7  N   UNL     1      12.313   7.497  19.773  0.00  0.00    -0.271 NA
ATOM      8  C   UNL     1      11.849   8.150  19.970  0.00  0.00    +0.094 C 
ATOM      9  C   UNL     1      11.313   8.102  20.595  0.00  0.00    +0.112 C 
ATOM     10  N   UNL     1      11.240   7.400  21.023  0.00  0.00    -0.260 N 
ENDROOT
BRANCH   7  11
ATOM     11  C   UNL     1      12.849   7.546  19.148  0.00  0.00    +0.063 C 
ATOM     12  C   UNL     1      12.579   7.500  18.370  0.00  0.00    +0.048 C 
ATOM     13  C   UNL     1      13.114   7.549  17.744  0.00  0.00    +0.144 C 
ATOM     14  O   UNL     1      13.920   7.644  17.897  0.00  0.00    -0.354 OA
ATOM     15  C   UNL     1      14.190   7.689  18.675  0.00  0.00    +0.144 C 
ATOM     16  C   UNL     1      13.653   7.640  19.300  0.00  0.00    +0.048 C 
ENDBRANCH   7  11
TORSDOF 1
ENDMDL
