MODEL 1
REMARK VINA RESULT:      -8.6      0.000      0.000
REMARK  Name = 
REMARK  3 active torsions:
REMARK  status: ('A' for Active; 'I' for Inactive)
REMARK    1  A    between atoms: C_2  and  C_3
REMARK    2  A    between atoms: C_2  and  C_28
REMARK    3  A    between atoms: C_14  and  C_16
REMARK                            x       y       z     vdW  Elec       q    Type
REMARK                         _______ _______ _______ _____ _____    ______ ____
ROOT
ATOM      3  C   UNL     1      -2.670   1.973  24.663  0.00  0.00    +0.039 C 
ATOM      4  C   UNL     1      -2.780   1.201  24.391  0.00  0.00    +0.003 C 
ATOM      5  C   UNL     1      -2.139   0.769  24.106  0.00  0.00    +0.001 C 
ATOM      6  C   UNL     1      -1.387   1.107  24.092  0.00  0.00    +0.007 C 
ATOM      7  C   UNL     1      -1.497   0.337  23.820  0.00  0.00    +0.000 C 
ATOM      8  C   UNL     1      -0.744   0.675  23.806  0.00  0.00    +0.034 C 
ATOM      9  C   UNL     1       0.007   1.014  23.792  0.00  0.00    +0.023 A 
ATOM     10  C   UNL     1       0.117   1.786  24.065  0.00  0.00    +0.063 A 
ATOM     11  N   UNL     1       0.917   1.972  23.984  0.00  0.00    -0.227 NA
ATOM     12  C   UNL     1       1.301   1.316  23.662  0.00  0.00    +0.185 A 
ATOM     13  N   UNL     1       2.106   1.262  23.489  0.00  0.00    -0.149 NA
ATOM     14  C   UNL     1       2.413   0.568  23.168  0.00  0.00    +0.287 C 
ATOM     15  O   UNL     1       1.915  -0.073  23.018  0.00  0.00    -0.266 OA
ATOM     22  S   UNL     1       0.739   0.725  23.544  0.00  0.00    -0.054 S 
ATOM     23  C   UNL     1      -0.524   2.217  24.350  0.00  0.00    +0.043 C 
ATOM     24  C   UNL     1      -0.414   2.989  24.622  0.00  0.00    +0.006 C 
ATOM     25  C   UNL     1      -1.277   1.879  24.364  0.00  0.00    +0.036 C 
ATOM     26  C   UNL     1      -1.918   2.311  24.649  0.00  0.00    +0.153 C 
ATOM     27  O   UNL     1      -1.808   3.082  24.921  0.00  0.00    -0.223 OA
ENDROOT
BRANCH  14  16
ATOM     16  C   UNL     1       3.218   0.514  22.995  0.00  0.00    +0.116 A 
ATOM     17  C   UNL     1       3.683   1.108  22.661  0.00  0.00    +0.023 A 
ATOM     18  C   UNL     1       4.452   0.818  22.585  0.00  0.00    +0.020 A 
ATOM     19  C   UNL     1       4.462   0.045  22.872  0.00  0.00    +0.076 A 
ATOM     20  N   UNL     1       3.699  -0.143  23.126  0.00  0.00    -0.320 N 
ATOM     21  C   UNL     1       3.459  -0.862  23.453  0.00  0.00    +0.131 C 
ENDBRANCH  14  16
BRANCH   3   2
ATOM      1  C   UNL     1      -3.261   2.791  25.676  0.00  0.00    +0.010 C 
ATOM      2  C   UNL     1      -3.312   2.405  24.949  0.00  0.00    +0.079 C 
BRANCH   2  28
ATOM     28  C   UNL     1      -4.007   2.450  24.507  0.00  0.00    +0.225 C 
ATOM     29  O   UNL     1      -3.975   2.648  23.706  0.00  0.00    -0.275 OA
ATOM     30  N   UNL     1      -4.736   2.298  24.865  0.00  0.00    -0.278 N 
ATOM     31  C   UNL     1      -5.430   2.343  24.424  0.00  0.00    +0.105 C 
ATOM     32  C   UNL     1      -6.157   2.191  24.781  0.00  0.00    +0.079 C 
ATOM     33  S   UNL     1      -6.189   1.994  25.582  0.00  0.00    -0.137 S 
ATOM     34  C   UNL     1      -5.495   1.949  26.023  0.00  0.00    +0.079 C 
ATOM     35  C   UNL     1      -4.767   2.101  25.666  0.00  0.00    +0.105 C 
ENDBRANCH   2  28
ENDBRANCH   3   2
TORSDOF 3
ENDMDL
MODEL 2
REMARK VINA RESULT:      -7.5      1.355      6.753
REMARK  Name = 
REMARK  3 active torsions:
REMARK  status: ('A' for Active; 'I' for Inactive)
REMARK    1  A    between atoms: C_2  and  C_3
REMARK    2  A    between atoms: C_2  and  C_28
REMARK    3  A    between atoms: C_14  and  C_16
REMARK                            x       y       z     vdW  Elec       q    Type
REMARK                         _______ _______ _______ _____ _____    ______ ____
ROOT
ATOM      3  C   UNL     1       0.638   0.390  23.560  0.00  0.00    +0.039 C 
ATOM      4  C   UNL     1       0.711   1.212  23.522  0.00  0.00    +0.003 C 
ATOM      5  C   UNL     1       0.064   1.691  23.700  0.00  0.00    +0.001 C 
ATOM      6  C   UNL     1      -0.655   1.350  23.917  0.00  0.00    +0.007 C 
ATOM      7  C   UNL     1      -0.582   2.170  23.879  0.00  0.00    +0.000 C 
ATOM      8  C   UNL     1      -1.302   1.830  24.095  0.00  0.00    +0.034 C 
ATOM      9  C   UNL     1      -2.021   1.489  24.311  0.00  0.00    +0.023 A 
ATOM     10  C   UNL     1      -2.094   0.667  24.350  0.00  0.00    +0.063 A 
ATOM     11  N   UNL     1      -2.866   0.491  24.578  0.00  0.00    -0.227 NA
ATOM     12  C   UNL     1      -3.272   1.201  24.681  0.00  0.00    +0.185 A 
ATOM     13  N   UNL     1      -4.061   1.281  24.909  0.00  0.00    -0.149 NA
ATOM     14  C   UNL     1      -4.392   2.032  24.990  0.00  0.00    +0.287 C 
ATOM     15  O   UNL     1      -3.935   2.703  24.843  0.00  0.00    -0.266 OA
ATOM     22  S   UNL     1      -2.749   1.818  24.517  0.00  0.00    -0.054 S 
ATOM     23  C   UNL     1      -1.447   0.188  24.171  0.00  0.00    +0.043 C 
ATOM     24  C   UNL     1      -1.519  -0.633  24.209  0.00  0.00    +0.006 C 
ATOM     25  C   UNL     1      -0.727   0.528  23.955  0.00  0.00    +0.036 C 
ATOM     26  C   UNL     1      -0.081   0.049  23.777  0.00  0.00    +0.153 C 
ATOM     27  O   UNL     1      -0.153  -0.772  23.815  0.00  0.00    -0.223 OA
ENDROOT
BRANCH  14  16
ATOM     16  C   UNL     1      -5.181   2.112  25.218  0.00  0.00    +0.116 A 
ATOM     17  C   UNL     1      -5.806   1.630  24.977  0.00  0.00    +0.023 A 
ATOM     18  C   UNL     1      -6.495   1.908  25.337  0.00  0.00    +0.020 A 
ATOM     19  C   UNL     1      -6.295   2.561  25.800  0.00  0.00    +0.076 A 
ATOM     20  N   UNL     1      -5.483   2.687  25.726  0.00  0.00    -0.320 N 
ATOM     21  C   UNL     1      -5.049   3.283  26.096  0.00  0.00    +0.131 C 
ENDBRANCH  14  16
BRANCH   3   2
ATOM      1  C   UNL     1       1.565  -0.631  23.938  0.00  0.00    +0.010 C 
ATOM      2  C   UNL     1       1.286  -0.090  23.382  0.00  0.00    +0.079 C 
BRANCH   2  28
ATOM     28  C   UNL     1       1.654  -0.027  22.646  0.00  0.00    +0.225 C 
ATOM     29  O   UNL     1       1.213  -0.120  21.954  0.00  0.00    -0.275 OA
ATOM     30  N   UNL     1       2.464   0.128  22.602  0.00  0.00    -0.278 N 
ATOM     31  C   UNL     1       2.832   0.190  21.867  0.00  0.00    +0.105 C 
ATOM     32  C   UNL     1       3.641   0.345  21.822  0.00  0.00    +0.079 C 
ATOM     33  S   UNL     1       4.081   0.437  22.514  0.00  0.00    -0.137 S 
ATOM     34  C   UNL     1       3.713   0.374  23.248  0.00  0.00    +0.079 C 
ATOM     35  C   UNL     1       2.904   0.220  23.293  0.00  0.00    +0.105 C 
ENDBRANCH   2  28
ENDBRANCH   3   2
TORSDOF 3
ENDMDL
MODEL 3
REMARK VINA RESULT:      -6.7      1.433      6.766
REMARK  Name = 
REMARK  3 active torsions:
REMARK  status: ('A' for Active; 'I' for Inactive)
REMARK    1  A    between atoms: C_2  and  C_3
REMARK    2  A    between atoms: C_2  and  C_28
REMARK    3  A    between atoms: C_14  and  C_16
REMARK                            x       y       z     vdW  Elec       q    Type
REMARK                         _______ _______ _______ _____ _____    ______ ____
ROOT
ATOM      3  C   UNL     1       1.956   0.309  23.032  0.00  0.00    +0.039 C 
ATOM      4  C   UNL     1       1.532  -0.318  22.701  0.00  0.00    +0.003 C 
ATOM      5  C   UNL     1       0.713  -0.353  22.785  0.00  0.00    +0.001 C 
ATOM      6  C   UNL     1       0.316   0.239  23.200  0.00  0.00    +0.007 C 
ATOM      7  C   UNL     1      -0.106  -0.387  22.870  0.00  0.00    +0.000 C 
ATOM      8  C   UNL     1      -0.504   0.205  23.286  0.00  0.00    +0.034 C 
ATOM      9  C   UNL     1      -0.901   0.796  23.701  0.00  0.00    +0.023 A 
ATOM     10  C   UNL     1      -0.478   1.423  24.032  0.00  0.00    +0.063 A 
ATOM     11  N   UNL     1      -1.016   1.922  24.408  0.00  0.00    -0.227 NA
ATOM     12  C   UNL     1      -1.771   1.605  24.311  0.00  0.00    +0.185 A 
ATOM     13  N   UNL     1      -2.474   1.927  24.599  0.00  0.00    -0.149 NA
ATOM     14  C   UNL     1      -3.190   1.545  24.457  0.00  0.00    +0.287 C 
ATOM     15  O   UNL     1      -3.206   0.842  24.027  0.00  0.00    -0.266 OA
ATOM     22  S   UNL     1      -1.700   0.909  23.874  0.00  0.00    -0.054 S 
ATOM     23  C   UNL     1       0.342   1.458  23.947  0.00  0.00    +0.043 C 
ATOM     24  C   UNL     1       0.765   2.084  24.278  0.00  0.00    +0.006 C 
ATOM     25  C   UNL     1       0.739   0.866  23.532  0.00  0.00    +0.036 C 
ATOM     26  C   UNL     1       1.559   0.900  23.447  0.00  0.00    +0.153 C 
ATOM     27  O   UNL     1       1.982   1.527  23.778  0.00  0.00    -0.223 OA
ENDROOT
BRANCH  14  16
ATOM     16  C   UNL     1      -3.893   1.867  24.746  0.00  0.00    +0.116 A 
ATOM     17  C   UNL     1      -4.098   2.667  24.743  0.00  0.00    +0.023 A 
ATOM     18  C   UNL     1      -4.846   2.740  25.084  0.00  0.00    +0.020 A 
ATOM     19  C   UNL     1      -5.103   1.986  25.298  0.00  0.00    +0.076 A 
ATOM     20  N   UNL     1      -4.514   1.447  25.089  0.00  0.00    -0.320 N 
ATOM     21  C   UNL     1      -4.542   0.630  25.203  0.00  0.00    +0.131 C 
ENDBRANCH  14  16
BRANCH   3   2
ATOM      1  C   UNL     1       3.127   0.993  22.580  0.00  0.00    +0.010 C 
ATOM      2  C   UNL     1       2.776   0.343  22.947  0.00  0.00    +0.079 C 
BRANCH   2  28
ATOM     28  C   UNL     1       3.245  -0.275  23.228  0.00  0.00    +0.225 C 
ATOM     29  O   UNL     1       2.910  -1.015  23.373  0.00  0.00    -0.275 OA
ATOM     30  N   UNL     1       4.050  -0.152  23.365  0.00  0.00    -0.278 N 
ATOM     31  C   UNL     1       4.519  -0.769  23.646  0.00  0.00    +0.105 C 
ATOM     32  C   UNL     1       5.323  -0.647  23.783  0.00  0.00    +0.079 C 
ATOM     33  S   UNL     1       5.657   0.093  23.638  0.00  0.00    -0.137 S 
ATOM     34  C   UNL     1       5.189   0.709  23.356  0.00  0.00    +0.079 C 
ATOM     35  C   UNL     1       4.385   0.588  23.220  0.00  0.00    +0.105 C 
ENDBRANCH   2  28
ENDBRANCH   3   2
TORSDOF 3
ENDMDL
