REMARK  Name = 
REMARK  8 active torsions:
REMARK  status: ('A' for Active; 'I' for Inactive)
REMARK    1  A    between atoms: O_2  and  C_3
REMARK    2  A    between atoms: C_3  and  C_4
REMARK    3  A    between atoms: C_4  and  O_5
REMARK    4  A    between atoms: O_5  and  C_6
REMARK    5  A    between atoms: C_9  and  C_12
REMARK    6  A    between atoms: C_15  and  C_17
REMARK    7  A    between atoms: N_21  and  C_22
REMARK    8  A    between atoms: C_22  and  C_23
REMARK                            x       y       z     vdW  Elec       q    Type
REMARK                         _______ _______ _______ _____ _____    ______ ____
ROOT
ATOM     12  C   UNL     1       5.716  -4.125   0.000  0.00  0.00    +0.205 A 
ATOM     13  N   UNL     1       6.469  -3.789   0.000  0.00  0.00    -0.056 NA
ATOM     14  O   UNL     1       7.021  -4.402   0.000  0.00  0.00    -0.336 OA
ATOM     15  C   UNL     1       6.609  -5.117   0.000  0.00  0.00    +0.251 A 
ATOM     16  N   UNL     1       5.802  -4.946   0.000  0.00  0.00    -0.190 NA
ENDROOT
BRANCH  12   9
ATOM      6  C   UNL     1       3.572  -2.888   0.000  0.00  0.00    +0.225 A 
ATOM      7  C   UNL     1       4.287  -2.475   0.000  0.00  0.00    +0.058 A 
ATOM      8  C   UNL     1       5.001  -2.888   0.000  0.00  0.00    +0.010 A 
ATOM      9  C   UNL     1       5.001  -3.712   0.000  0.00  0.00    +0.058 A 
ATOM     10  C   UNL     1       4.287  -4.125   0.000  0.00  0.00    +0.105 A 
ATOM     11  N   UNL     1       3.572  -3.712   0.000  0.00  0.00    -0.210 NA
BRANCH   6   5
ATOM      5  O   UNL     1       2.858  -2.475   0.000  0.00  0.00    -0.457 OA
BRANCH   5   4
ATOM      4  C   UNL     1       2.143  -2.888   0.000  0.00  0.00    +0.239 C 
BRANCH   4   3
ATOM      3  C   UNL     1       1.429  -2.475   0.000  0.00  0.00    +0.189 C 
BRANCH   3   2
ATOM      1  C   UNL     1       0.000  -2.475   0.000  0.00  0.00    +0.174 C 
ATOM      2  O   UNL     1       0.715  -2.888   0.000  0.00  0.00    -0.347 OA
ENDBRANCH   3   2
ENDBRANCH   4   3
ENDBRANCH   5   4
ENDBRANCH   6   5
ENDBRANCH  12   9
BRANCH  15  17
ATOM     17  C   UNL     1       6.944  -5.871   0.000  0.00  0.00    +0.138 C 
ATOM     18  C   UNL     1       7.752  -6.042   0.000  0.00  0.00    +0.027 C 
ATOM     19  C   UNL     1       7.838  -6.863   0.000  0.00  0.00    +0.019 C 
ATOM     20  C   UNL     1       7.084  -7.198   0.000  0.00  0.00    +0.073 C 
ATOM     21  N   UNL     1       6.532  -6.585   0.000  0.00  0.00    -0.266 NA
BRANCH  21  22
ATOM     22  C   UNL     1       5.712  -6.671   0.000  0.00  0.00    +0.072 C 
BRANCH  22  23
ATOM     23  C   UNL     1       5.376  -7.425   0.000  0.00  0.00    +0.016 C 
ATOM     24  C   UNL     1       4.556  -7.511   0.000  0.00  0.00    +0.001 C 
ATOM     25  C   UNL     1       5.861  -8.092   0.000  0.00  0.00    +0.001 C 
ENDBRANCH  22  23
ENDBRANCH  21  22
ENDBRANCH  15  17
TORSDOF 8
