MODEL 1
REMARK VINA RESULT:      -9.2      0.000      0.000
REMARK  Name = 
REMARK  9 active torsions:
REMARK  status: ('A' for Active; 'I' for Inactive)
REMARK    1  A    between atoms: C_2  and  C_4
REMARK    2  A    between atoms: C_6  and  C_7
REMARK    3  A    between atoms: C_7  and  C_8
REMARK    4  A    between atoms: N_10  and  C_11
REMARK    5  A    between atoms: C_20  and  C_21
REMARK    6  A    between atoms: C_21  and  N_22
REMARK    7  A    between atoms: C_23  and  C_25
REMARK    8  A    between atoms: C_25  and  O_26
REMARK    9  A    between atoms: O_26  and  C_27
REMARK                            x       y       z     vdW  Elec       q    Type
REMARK                         _______ _______ _______ _____ _____    ______ ____
ROOT
ATOM      4  C   UNL     1      -1.210   0.970  24.670  0.00  0.00    +0.006 C 
ATOM      5  C   UNL     1      -1.709   1.537  25.001  0.00  0.00    +0.005 C 
ATOM      6  C   UNL     1      -1.551   2.339  24.893  0.00  0.00    +0.027 C 
ATOM     17  C   UNL     1      -0.893   2.574  24.453  0.00  0.00    -0.048 C 
ATOM     18  C   UNL     1      -0.734   3.377  24.344  0.00  0.00    +0.026 C 
ATOM     19  C   UNL     1      -0.394   2.006  24.122  0.00  0.00    -0.033 C 
ATOM     20  C   UNL     1      -0.553   1.204  24.231  0.00  0.00    +0.043 C 
ENDROOT
BRANCH   4   2
ATOM      1  C   UNL     1      -1.826  -0.242  24.227  0.00  0.00    +0.000 C 
ATOM      2  C   UNL     1      -1.368   0.168  24.779  0.00  0.00    +0.000 C 
ATOM      3  C   UNL     1      -1.068  -0.226  25.440  0.00  0.00    +0.000 C 
ENDBRANCH   4   2
BRANCH   6   7
ATOM      7  C   UNL     1      -2.049   2.908  25.224  0.00  0.00    +0.091 C 
BRANCH   7   8
ATOM      8  C   UNL     1      -2.859   2.885  25.072  0.00  0.00    +0.247 C 
ATOM      9  O   UNL     1      -3.136   2.956  24.298  0.00  0.00    -0.273 OA
ATOM     10  N   UNL     1      -3.393   2.792  25.693  0.00  0.00    -0.160 NA
BRANCH  10  11
ATOM     11  C   UNL     1      -4.204   2.769  25.541  0.00  0.00    +0.154 A 
ATOM     12  C   UNL     1      -4.567   2.056  25.340  0.00  0.00    +0.036 A 
ATOM     13  C   UNL     1      -5.377   2.034  25.188  0.00  0.00    +0.005 A 
ATOM     14  C   UNL     1      -5.825   2.725  25.238  0.00  0.00    +0.021 A 
ATOM     15  C   UNL     1      -5.462   3.438  25.440  0.00  0.00    +0.100 A 
ATOM     16  N   UNL     1      -4.652   3.460  25.591  0.00  0.00    -0.227 NA
ENDBRANCH  10  11
ENDBRANCH   7   8
ENDBRANCH   6   7
BRANCH  20  21
ATOM     21  C   UNL     1      -0.053   0.637  23.900  0.00  0.00    +0.120 C 
BRANCH  21  22
ATOM     22  N   UNL     1       0.731   0.829  23.727  0.00  0.00    -0.202 NA
ATOM     23  C   UNL     1       1.164   0.360  23.205  0.00  0.00    +0.286 C 
ATOM     24  O   UNL     1       0.815  -0.299  22.856  0.00  0.00    -0.269 OA
BRANCH  23  25
ATOM     25  C   UNL     1       1.949   0.552  23.033  0.00  0.00    +0.291 C 
BRANCH  25  26
ATOM     26  O   UNL     1       2.491  -0.046  22.864  0.00  0.00    -0.466 OA
BRANCH  26  27
ATOM     27  C   UNL     1       3.300   0.097  22.947  0.00  0.00    +0.139 A 
ATOM     28  C   UNL     1       3.628   0.793  22.651  0.00  0.00    +0.037 A 
ATOM     29  C   UNL     1       4.437   0.936  22.734  0.00  0.00    +0.003 A 
ATOM     30  C   UNL     1       4.917   0.382  23.112  0.00  0.00    +0.000 A 
ATOM     31  C   UNL     1       4.588  -0.315  23.408  0.00  0.00    +0.003 A 
ATOM     32  C   UNL     1       3.780  -0.457  23.326  0.00  0.00    +0.037 A 
ENDBRANCH  26  27
ENDBRANCH  25  26
ENDBRANCH  23  25
ENDBRANCH  21  22
ENDBRANCH  20  21
TORSDOF 9
ENDMDL
MODEL 2
REMARK VINA RESULT:      -9.0      3.812      5.545
REMARK  Name = 
REMARK  9 active torsions:
REMARK  status: ('A' for Active; 'I' for Inactive)
REMARK    1  A    between atoms: C_2  and  C_4
REMARK    2  A    between atoms: C_6  and  C_7
REMARK    3  A    between atoms: C_7  and  C_8
REMARK    4  A    between atoms: N_10  and  C_11
REMARK    5  A    between atoms: C_20  and  C_21
REMARK    6  A    between atoms: C_21  and  N_22
REMARK    7  A    between atoms: C_23  and  C_25
REMARK    8  A    between atoms: C_25  and  O_26
REMARK    9  A    between atoms: O_26  and  C_27
REMARK                            x       y       z     vdW  Elec       q    Type
REMARK                         _______ _______ _______ _____ _____    ______ ____
ROOT
ATOM      4  C   UNL     1      -4.841   1.464  24.787  0.00  0.00    +0.006 C 
ATOM      5  C   UNL     1      -4.732   0.757  24.377  0.00  0.00    +0.005 C 
ATOM      6  C   UNL     1      -4.060   0.650  23.910  0.00  0.00    +0.027 C 
ATOM     17  C   UNL     1      -3.497   1.251  23.854  0.00  0.00    -0.048 C 
ATOM     18  C   UNL     1      -2.824   1.144  23.388  0.00  0.00    +0.026 C 
ATOM     19  C   UNL     1      -3.606   1.959  24.265  0.00  0.00    -0.033 C 
ATOM     20  C   UNL     1      -4.278   2.065  24.731  0.00  0.00    +0.043 C 
ENDROOT
BRANCH   4   2
ATOM      1  C   UNL     1      -5.516   1.316  26.038  0.00  0.00    +0.000 C 
ATOM      2  C   UNL     1      -5.513   1.571  25.253  0.00  0.00    +0.000 C 
ATOM      3  C   UNL     1      -6.183   1.934  24.934  0.00  0.00    +0.000 C 
ENDBRANCH   4   2
BRANCH   6   7
ATOM      7  C   UNL     1      -3.950  -0.057  23.500  0.00  0.00    +0.091 C 
BRANCH   7   8
ATOM      8  C   UNL     1      -3.968  -0.776  23.903  0.00  0.00    +0.247 C 
ATOM      9  O   UNL     1      -4.691  -1.133  24.076  0.00  0.00    -0.273 OA
ATOM     10  N   UNL     1      -3.264  -1.138  24.133  0.00  0.00    -0.160 NA
BRANCH  10  11
ATOM     11  C   UNL     1      -3.282  -1.858  24.536  0.00  0.00    +0.154 A 
ATOM     12  C   UNL     1      -3.222  -1.872  25.358  0.00  0.00    +0.036 A 
ATOM     13  C   UNL     1      -3.240  -2.591  25.762  0.00  0.00    +0.005 A 
ATOM     14  C   UNL     1      -3.318  -3.297  25.342  0.00  0.00    +0.021 A 
ATOM     15  C   UNL     1      -3.378  -3.283  24.519  0.00  0.00    +0.100 A 
ATOM     16  N   UNL     1      -3.360  -2.564  24.116  0.00  0.00    -0.227 NA
ENDBRANCH  10  11
ENDBRANCH   7   8
ENDBRANCH   6   7
BRANCH  20  21
ATOM     21  C   UNL     1      -4.387   2.772  25.141  0.00  0.00    +0.120 C 
BRANCH  21  22
ATOM     22  N   UNL     1      -3.842   3.386  25.055  0.00  0.00    -0.202 NA
ATOM     23  C   UNL     1      -3.700   3.902  25.683  0.00  0.00    +0.286 C 
ATOM     24  O   UNL     1      -4.101   3.804  26.396  0.00  0.00    -0.269 OA
BRANCH  23  25
ATOM     25  C   UNL     1      -3.155   4.516  25.597  0.00  0.00    +0.291 C 
BRANCH  25  26
ATOM     26  O   UNL     1      -2.402   4.448  25.928  0.00  0.00    -0.466 OA
BRANCH  26  27
ATOM     27  C   UNL     1      -1.737   4.662  25.487  0.00  0.00    +0.139 A 
ATOM     28  C   UNL     1      -1.678   5.423  25.175  0.00  0.00    +0.037 A 
ATOM     29  C   UNL     1      -1.014   5.638  24.735  0.00  0.00    +0.003 A 
ATOM     30  C   UNL     1      -0.409   5.091  24.607  0.00  0.00    +0.000 A 
ATOM     31  C   UNL     1      -0.470   4.330  24.919  0.00  0.00    +0.003 A 
ATOM     32  C   UNL     1      -1.133   4.115  25.359  0.00  0.00    +0.037 A 
ENDBRANCH  26  27
ENDBRANCH  25  26
ENDBRANCH  23  25
ENDBRANCH  21  22
ENDBRANCH  20  21
TORSDOF 9
ENDMDL
MODEL 3
REMARK VINA RESULT:      -8.5      2.530      4.964
REMARK  Name = 
REMARK  9 active torsions:
REMARK  status: ('A' for Active; 'I' for Inactive)
REMARK    1  A    between atoms: C_2  and  C_4
REMARK    2  A    between atoms: C_6  and  C_7
REMARK    3  A    between atoms: C_7  and  C_8
REMARK    4  A    between atoms: N_10  and  C_11
REMARK    5  A    between atoms: C_20  and  C_21
REMARK    6  A    between atoms: C_21  and  N_22
REMARK    7  A    between atoms: C_23  and  C_25
REMARK    8  A    between atoms: C_25  and  O_26
REMARK    9  A    between atoms: O_26  and  C_27
REMARK                            x       y       z     vdW  Elec       q    Type
REMARK                         _______ _______ _______ _____ _____    ______ ____
ROOT
ATOM      4  C   UNL     1      -0.154  -0.241  24.018  0.00  0.00    +0.006 C 
ATOM      5  C   UNL     1      -0.496  -0.949  24.265  0.00  0.00    +0.005 C 
ATOM      6  C   UNL     1      -0.902  -0.983  24.983  0.00  0.00    +0.027 C 
ATOM     17  C   UNL     1      -0.965  -0.308  25.453  0.00  0.00    -0.048 C 
ATOM     18  C   UNL     1      -1.371  -0.341  26.171  0.00  0.00    +0.026 C 
ATOM     19  C   UNL     1      -0.622   0.401  25.205  0.00  0.00    -0.033 C 
ATOM     20  C   UNL     1      -0.217   0.434  24.488  0.00  0.00    +0.043 C 
ENDROOT
BRANCH   4   2
ATOM      1  C   UNL     1      -0.155  -0.041  22.603  0.00  0.00    +0.000 C 
ATOM      2  C   UNL     1       0.252  -0.208  23.301  0.00  0.00    +0.000 C 
ATOM      3  C   UNL     1       1.067  -0.341  23.281  0.00  0.00    +0.000 C 
ENDBRANCH   4   2
BRANCH   6   7
ATOM      7  C   UNL     1      -1.245  -1.692  25.231  0.00  0.00    +0.091 C 
BRANCH   7   8
ATOM      8  C   UNL     1      -1.868  -2.021  24.803  0.00  0.00    +0.247 C 
ATOM      9  O   UNL     1      -1.712  -2.532  24.175  0.00  0.00    -0.273 OA
ATOM     10  N   UNL     1      -2.647  -1.839  25.002  0.00  0.00    -0.160 NA
BRANCH  10  11
ATOM     11  C   UNL     1      -3.271  -2.169  24.574  0.00  0.00    +0.154 A 
ATOM     12  C   UNL     1      -3.765  -1.685  24.126  0.00  0.00    +0.036 A 
ATOM     13  C   UNL     1      -4.389  -2.014  23.698  0.00  0.00    +0.005 A 
ATOM     14  C   UNL     1      -4.518  -2.829  23.719  0.00  0.00    +0.021 A 
ATOM     15  C   UNL     1      -4.023  -3.314  24.168  0.00  0.00    +0.100 A 
ATOM     16  N   UNL     1      -3.400  -2.984  24.595  0.00  0.00    -0.227 NA
ENDBRANCH  10  11
ENDBRANCH   7   8
ENDBRANCH   6   7
BRANCH  20  21
ATOM     21  C   UNL     1       0.126   1.143  24.241  0.00  0.00    +0.120 C 
BRANCH  21  22
ATOM     22  N   UNL     1      -0.298   1.848  24.303  0.00  0.00    -0.202 NA
ATOM     23  C   UNL     1       0.104   2.567  24.351  0.00  0.00    +0.286 C 
ATOM     24  O   UNL     1       0.928   2.581  24.338  0.00  0.00    -0.269 OA
BRANCH  23  25
ATOM     25  C   UNL     1      -0.320   3.273  24.413  0.00  0.00    +0.291 C 
BRANCH  25  26
ATOM     26  O   UNL     1      -0.488   3.589  25.156  0.00  0.00    -0.466 OA
BRANCH  26  27
ATOM     27  C   UNL     1      -1.089   4.149  25.240  0.00  0.00    +0.139 A 
ATOM     28  C   UNL     1      -0.970   4.923  24.981  0.00  0.00    +0.037 A 
ATOM     29  C   UNL     1      -1.571   5.483  25.065  0.00  0.00    +0.003 A 
ATOM     30  C   UNL     1      -2.290   5.268  25.407  0.00  0.00    +0.000 A 
ATOM     31  C   UNL     1      -2.408   4.493  25.665  0.00  0.00    +0.003 A 
ATOM     32  C   UNL     1      -1.808   3.934  25.582  0.00  0.00    +0.037 A 
ENDBRANCH  26  27
ENDBRANCH  25  26
ENDBRANCH  23  25
ENDBRANCH  21  22
ENDBRANCH  20  21
TORSDOF 9
ENDMDL
MODEL 4
REMARK VINA RESULT:      -8.1      1.352      2.037
REMARK  Name = 
REMARK  9 active torsions:
REMARK  status: ('A' for Active; 'I' for Inactive)
REMARK    1  A    between atoms: C_2  and  C_4
REMARK    2  A    between atoms: C_6  and  C_7
REMARK    3  A    between atoms: C_7  and  C_8
REMARK    4  A    between atoms: N_10  and  C_11
REMARK    5  A    between atoms: C_20  and  C_21
REMARK    6  A    between atoms: C_21  and  N_22
REMARK    7  A    between atoms: C_23  and  C_25
REMARK    8  A    between atoms: C_25  and  O_26
REMARK    9  A    between atoms: O_26  and  C_27
REMARK                            x       y       z     vdW  Elec       q    Type
REMARK                         _______ _______ _______ _____ _____    ______ ____
ROOT
ATOM      4  C   UNL     1      -1.697   2.955  24.645  0.00  0.00    +0.006 C 
ATOM      5  C   UNL     1      -2.499   3.013  24.465  0.00  0.00    +0.005 C 
ATOM      6  C   UNL     1      -2.814   2.579  23.837  0.00  0.00    +0.027 C 
ATOM     17  C   UNL     1      -2.325   2.088  23.390  0.00  0.00    -0.048 C 
ATOM     18  C   UNL     1      -2.639   1.654  22.761  0.00  0.00    +0.026 C 
ATOM     19  C   UNL     1      -1.521   2.031  23.570  0.00  0.00    -0.033 C 
ATOM     20  C   UNL     1      -1.208   2.465  24.198  0.00  0.00    +0.043 C 
ENDROOT
BRANCH   4   2
ATOM      1  C   UNL     1      -1.093   4.150  25.145  0.00  0.00    +0.000 C 
ATOM      2  C   UNL     1      -1.383   3.388  25.273  0.00  0.00    +0.000 C 
ATOM      3  C   UNL     1      -1.359   3.060  26.030  0.00  0.00    +0.000 C 
ENDBRANCH   4   2
BRANCH   6   7
ATOM      7  C   UNL     1      -3.617   2.636  23.657  0.00  0.00    +0.091 C 
BRANCH   7   8
ATOM      8  C   UNL     1      -4.181   2.347  24.184  0.00  0.00    +0.247 C 
ATOM      9  O   UNL     1      -4.138   1.566  24.447  0.00  0.00    -0.273 OA
ATOM     10  N   UNL     1      -4.787   2.838  24.450  0.00  0.00    -0.160 NA
BRANCH  10  11
ATOM     11  C   UNL     1      -5.351   2.549  24.978  0.00  0.00    +0.154 A 
ATOM     12  C   UNL     1      -5.328   2.774  25.771  0.00  0.00    +0.036 A 
ATOM     13  C   UNL     1      -5.892   2.485  26.300  0.00  0.00    +0.005 A 
ATOM     14  C   UNL     1      -6.480   1.971  26.034  0.00  0.00    +0.021 A 
ATOM     15  C   UNL     1      -6.504   1.746  25.240  0.00  0.00    +0.100 A 
ATOM     16  N   UNL     1      -5.939   2.036  24.713  0.00  0.00    -0.227 NA
ENDBRANCH  10  11
ENDBRANCH   7   8
ENDBRANCH   6   7
BRANCH  20  21
ATOM     21  C   UNL     1      -0.405   2.407  24.377  0.00  0.00    +0.120 C 
BRANCH  21  22
ATOM     22  N   UNL     1       0.087   1.928  23.919  0.00  0.00    -0.202 NA
ATOM     23  C   UNL     1       0.815   1.680  24.217  0.00  0.00    +0.286 C 
ATOM     24  O   UNL     1       1.052   1.910  24.971  0.00  0.00    -0.269 OA
BRANCH  23  25
ATOM     25  C   UNL     1       1.306   1.201  23.758  0.00  0.00    +0.291 C 
BRANCH  25  26
ATOM     26  O   UNL     1       2.012   1.503  23.457  0.00  0.00    -0.466 OA
BRANCH  26  27
ATOM     27  C   UNL     1       2.530   1.009  23.045  0.00  0.00    +0.139 A 
ATOM     28  C   UNL     1       3.339   1.169  23.043  0.00  0.00    +0.037 A 
ATOM     29  C   UNL     1       3.856   0.676  22.631  0.00  0.00    +0.003 A 
ATOM     30  C   UNL     1       3.564   0.023  22.220  0.00  0.00    +0.000 A 
ATOM     31  C   UNL     1       2.754  -0.137  22.222  0.00  0.00    +0.003 A 
ATOM     32  C   UNL     1       2.237   0.356  22.634  0.00  0.00    +0.037 A 
ENDBRANCH  26  27
ENDBRANCH  25  26
ENDBRANCH  23  25
ENDBRANCH  21  22
ENDBRANCH  20  21
TORSDOF 9
ENDMDL
MODEL 5
REMARK VINA RESULT:      -7.9      1.262      2.086
REMARK  Name = 
REMARK  9 active torsions:
REMARK  status: ('A' for Active; 'I' for Inactive)
REMARK    1  A    between atoms: C_2  and  C_4
REMARK    2  A    between atoms: C_6  and  C_7
REMARK    3  A    between atoms: C_7  and  C_8
REMARK    4  A    between atoms: N_10  and  C_11
REMARK    5  A    between atoms: C_20  and  C_21
REMARK    6  A    between atoms: C_21  and  N_22
REMARK    7  A    between atoms: C_23  and  C_25
REMARK    8  A    between atoms: C_25  and  O_26
REMARK    9  A    between atoms: O_26  and  C_27
REMARK                            x       y       z     vdW  Elec       q    Type
REMARK                         _______ _______ _______ _____ _____    ______ ____
ROOT
ATOM      4  C   UNL     1      -0.522   0.864  23.999  0.00  0.00    +0.006 C 
ATOM      5  C   UNL     1      -1.191   0.677  24.444  0.00  0.00    +0.005 C 
ATOM      6  C   UNL     1      -1.359  -0.110  24.626  0.00  0.00    +0.027 C 
ATOM     17  C   UNL     1      -0.859  -0.710  24.362  0.00  0.00    -0.048 C 
ATOM     18  C   UNL     1      -1.027  -1.498  24.543  0.00  0.00    +0.026 C 
ATOM     19  C   UNL     1      -0.189  -0.523  23.916  0.00  0.00    -0.033 C 
ATOM     20  C   UNL     1      -0.022   0.264  23.735  0.00  0.00    +0.043 C 
ENDROOT
BRANCH   4   2
ATOM      1  C   UNL     1       0.122   2.098  24.322  0.00  0.00    +0.000 C 
ATOM      2  C   UNL     1      -0.354   1.650  23.818  0.00  0.00    +0.000 C 
ATOM      3  C   UNL     1      -0.663   1.991  23.132  0.00  0.00    +0.000 C 
ENDBRANCH   4   2
BRANCH   6   7
ATOM      7  C   UNL     1      -2.028  -0.298  25.072  0.00  0.00    +0.091 C 
BRANCH   7   8
ATOM      8  C   UNL     1      -2.759   0.029  24.877  0.00  0.00    +0.247 C 
ATOM      9  O   UNL     1      -3.106  -0.141  24.148  0.00  0.00    -0.273 OA
ATOM     10  N   UNL     1      -3.143   0.527  25.410  0.00  0.00    -0.160 NA
BRANCH  10  11
ATOM     11  C   UNL     1      -3.875   0.855  25.216  0.00  0.00    +0.154 A 
ATOM     12  C   UNL     1      -4.563   0.408  25.300  0.00  0.00    +0.036 A 
ATOM     13  C   UNL     1      -5.295   0.736  25.106  0.00  0.00    +0.005 A 
ATOM     14  C   UNL     1      -5.338   1.511  24.827  0.00  0.00    +0.021 A 
ATOM     15  C   UNL     1      -4.650   1.959  24.743  0.00  0.00    +0.100 A 
ATOM     16  N   UNL     1      -3.919   1.630  24.938  0.00  0.00    -0.227 NA
ENDBRANCH  10  11
ENDBRANCH   7   8
ENDBRANCH   6   7
BRANCH  20  21
ATOM     21  C   UNL     1       0.647   0.450  23.289  0.00  0.00    +0.120 C 
BRANCH  21  22
ATOM     22  N   UNL     1       1.383   0.142  23.502  0.00  0.00    -0.202 NA
ATOM     23  C   UNL     1       1.963   0.027  22.927  0.00  0.00    +0.286 C 
ATOM     24  O   UNL     1       1.808   0.219  22.141  0.00  0.00    -0.269 OA
BRANCH  23  25
ATOM     25  C   UNL     1       2.698  -0.282  23.139  0.00  0.00    +0.291 C 
BRANCH  25  26
ATOM     26  O   UNL     1       3.385   0.016  22.792  0.00  0.00    -0.466 OA
BRANCH  26  27
ATOM     27  C   UNL     1       4.113  -0.080  23.171  0.00  0.00    +0.139 A 
ATOM     28  C   UNL     1       4.640   0.553  23.216  0.00  0.00    +0.037 A 
ATOM     29  C   UNL     1       5.367   0.457  23.594  0.00  0.00    +0.003 A 
ATOM     30  C   UNL     1       5.567  -0.271  23.927  0.00  0.00    +0.000 A 
ATOM     31  C   UNL     1       5.039  -0.903  23.881  0.00  0.00    +0.003 A 
ATOM     32  C   UNL     1       4.312  -0.808  23.503  0.00  0.00    +0.037 A 
ENDBRANCH  26  27
ENDBRANCH  25  26
ENDBRANCH  23  25
ENDBRANCH  21  22
ENDBRANCH  20  21
TORSDOF 9
ENDMDL
MODEL 6
REMARK VINA RESULT:      -7.7      2.423      3.746
REMARK  Name = 
REMARK  9 active torsions:
REMARK  status: ('A' for Active; 'I' for Inactive)
REMARK    1  A    between atoms: C_2  and  C_4
REMARK    2  A    between atoms: C_6  and  C_7
REMARK    3  A    between atoms: C_7  and  C_8
REMARK    4  A    between atoms: N_10  and  C_11
REMARK    5  A    between atoms: C_20  and  C_21
REMARK    6  A    between atoms: C_21  and  N_22
REMARK    7  A    between atoms: C_23  and  C_25
REMARK    8  A    between atoms: C_25  and  O_26
REMARK    9  A    between atoms: O_26  and  C_27
REMARK                            x       y       z     vdW  Elec       q    Type
REMARK                         _______ _______ _______ _____ _____    ______ ____
ROOT
ATOM      4  C   UNL     1      -1.157   1.926  24.718  0.00  0.00    +0.006 C 
ATOM      5  C   UNL     1      -1.645   2.579  24.602  0.00  0.00    +0.005 C 
ATOM      6  C   UNL     1      -2.150   2.607  23.949  0.00  0.00    +0.027 C 
ATOM     17  C   UNL     1      -2.165   1.981  23.413  0.00  0.00    -0.048 C 
ATOM     18  C   UNL     1      -2.669   2.008  22.760  0.00  0.00    +0.026 C 
ATOM     19  C   UNL     1      -1.675   1.326  23.529  0.00  0.00    -0.033 C 
ATOM     20  C   UNL     1      -1.171   1.299  24.181  0.00  0.00    +0.043 C 
ENDROOT
BRANCH   4   2
ATOM      1  C   UNL     1      -0.913   1.568  26.080  0.00  0.00    +0.000 C 
ATOM      2  C   UNL     1      -0.653   1.898  25.370  0.00  0.00    +0.000 C 
ATOM      3  C   UNL     1       0.114   2.200  25.312  0.00  0.00    +0.000 C 
ENDBRANCH   4   2
BRANCH   6   7
ATOM      7  C   UNL     1      -2.640   3.261  23.833  0.00  0.00    +0.091 C 
BRANCH   7   8
ATOM      8  C   UNL     1      -3.233   3.435  24.378  0.00  0.00    +0.247 C 
ATOM      9  O   UNL     1      -3.074   3.931  25.017  0.00  0.00    -0.273 OA
ATOM     10  N   UNL     1      -3.986   3.113  24.284  0.00  0.00    -0.160 NA
BRANCH  10  11
ATOM     11  C   UNL     1      -4.581   3.287  24.829  0.00  0.00    +0.154 A 
ATOM     12  C   UNL     1      -4.896   2.688  25.301  0.00  0.00    +0.036 A 
ATOM     13  C   UNL     1      -5.490   2.862  25.846  0.00  0.00    +0.005 A 
ATOM     14  C   UNL     1      -5.770   3.635  25.918  0.00  0.00    +0.021 A 
ATOM     15  C   UNL     1      -5.455   4.234  25.446  0.00  0.00    +0.100 A 
ATOM     16  N   UNL     1      -4.861   4.059  24.901  0.00  0.00    -0.227 NA
ENDBRANCH  10  11
ENDBRANCH   7   8
ENDBRANCH   6   7
BRANCH  20  21
ATOM     21  C   UNL     1      -0.683   0.645  24.296  0.00  0.00    +0.120 C 
BRANCH  21  22
ATOM     22  N   UNL     1      -1.006  -0.115  24.307  0.00  0.00    -0.202 NA
ATOM     23  C   UNL     1      -0.516  -0.773  24.224  0.00  0.00    +0.286 C 
ATOM     24  O   UNL     1       0.297  -0.672  24.130  0.00  0.00    -0.269 OA
BRANCH  23  25
ATOM     25  C   UNL     1      -0.839  -1.532  24.235  0.00  0.00    +0.291 C 
BRANCH  25  26
ATOM     26  O   UNL     1      -1.267  -1.788  24.892  0.00  0.00    -0.466 OA
BRANCH  26  27
ATOM     27  C   UNL     1      -1.988  -2.177  24.789  0.00  0.00    +0.139 A 
ATOM     28  C   UNL     1      -2.654  -1.928  25.207  0.00  0.00    +0.037 A 
ATOM     29  C   UNL     1      -3.374  -2.317  25.103  0.00  0.00    +0.003 A 
ATOM     30  C   UNL     1      -3.428  -2.955  24.583  0.00  0.00    +0.000 A 
ATOM     31  C   UNL     1      -2.761  -3.204  24.166  0.00  0.00    +0.003 A 
ATOM     32  C   UNL     1      -2.041  -2.815  24.268  0.00  0.00    +0.037 A 
ENDBRANCH  26  27
ENDBRANCH  25  26
ENDBRANCH  23  25
ENDBRANCH  21  22
ENDBRANCH  20  21
TORSDOF 9
ENDMDL
MODEL 7
REMARK VINA RESULT:      -5.7     15.186     16.284
REMARK  Name = 
REMARK  9 active torsions:
REMARK  status: ('A' for Active; 'I' for Inactive)
REMARK    1  A    between atoms: C_2  and  C_4
REMARK    2  A    between atoms: C_6  and  C_7
REMARK    3  A    between atoms: C_7  and  C_8
REMARK    4  A    between atoms: N_10  and  C_11
REMARK    5  A    between atoms: C_20  and  C_21
REMARK    6  A    between atoms: C_21  and  N_22
REMARK    7  A    between atoms: C_23  and  C_25
REMARK    8  A    between atoms: C_25  and  O_26
REMARK    9  A    between atoms: O_26  and  C_27
REMARK                            x       y       z     vdW  Elec       q    Type
REMARK                         _______ _______ _______ _____ _____    ______ ____
ROOT
ATOM      4  C   UNL     1      -7.568 -10.042  14.003  0.00  0.00    +0.006 C 
ATOM      5  C   UNL     1      -7.802 -10.039  14.793  0.00  0.00    +0.005 C 
ATOM      6  C   UNL     1      -7.235 -10.023  15.392  0.00  0.00    +0.027 C 
ATOM     17  C   UNL     1      -6.433 -10.010  15.200  0.00  0.00    -0.048 C 
ATOM     18  C   UNL     1      -5.865  -9.994  15.799  0.00  0.00    +0.026 C 
ATOM     19  C   UNL     1      -6.198 -10.012  14.408  0.00  0.00    -0.033 C 
ATOM     20  C   UNL     1      -6.766 -10.028  13.810  0.00  0.00    +0.043 C 
ENDROOT
BRANCH   4   2
ATOM      1  C   UNL     1      -8.399 -10.779  13.105  0.00  0.00    +0.000 C 
ATOM      2  C   UNL     1      -8.135 -10.057  13.405  0.00  0.00    +0.000 C 
ATOM      3  C   UNL     1      -8.438  -9.350  13.105  0.00  0.00    +0.000 C 
ENDBRANCH   4   2
BRANCH   6   7
ATOM      7  C   UNL     1      -7.469 -10.021  16.184  0.00  0.00    +0.091 C 
BRANCH   7   8
ATOM      8  C   UNL     1      -8.205  -9.716  16.396  0.00  0.00    +0.247 C 
ATOM      9  O   UNL     1      -8.893 -10.125  16.196  0.00  0.00    -0.273 OA
ATOM     10  N   UNL     1      -8.254  -9.004  16.807  0.00  0.00    -0.160 NA
BRANCH  10  11
ATOM     11  C   UNL     1      -8.991  -8.698  17.019  0.00  0.00    +0.154 A 
ATOM     12  C   UNL     1      -9.438  -9.069  17.604  0.00  0.00    +0.036 A 
ATOM     13  C   UNL     1     -10.175  -8.764  17.817  0.00  0.00    +0.005 A 
ATOM     14  C   UNL     1     -10.464  -8.088  17.443  0.00  0.00    +0.021 A 
ATOM     15  C   UNL     1     -10.016  -7.716  16.857  0.00  0.00    +0.100 A 
ATOM     16  N   UNL     1      -9.280  -8.022  16.645  0.00  0.00    -0.227 NA
ENDBRANCH  10  11
ENDBRANCH   7   8
ENDBRANCH   6   7
BRANCH  20  21
ATOM     21  C   UNL     1      -6.530 -10.031  13.020  0.00  0.00    +0.120 C 
BRANCH  21  22
ATOM     22  N   UNL     1      -5.760  -9.811  12.818  0.00  0.00    -0.202 NA
ATOM     23  C   UNL     1      -5.464  -9.989  12.069  0.00  0.00    +0.286 C 
ATOM     24  O   UNL     1      -5.937 -10.384  11.522  0.00  0.00    -0.269 OA
BRANCH  23  25
ATOM     25  C   UNL     1      -4.694  -9.770  11.868  0.00  0.00    +0.291 C 
BRANCH  25  26
ATOM     26  O   UNL     1      -4.204 -10.303  11.473  0.00  0.00    -0.466 OA
BRANCH  26  27
ATOM     27  C   UNL     1      -3.407 -10.123  11.358  0.00  0.00    +0.139 A 
ATOM     28  C   UNL     1      -3.184  -9.606  10.756  0.00  0.00    +0.037 A 
ATOM     29  C   UNL     1      -2.386  -9.426  10.641  0.00  0.00    +0.003 A 
ATOM     30  C   UNL     1      -1.813  -9.763  11.129  0.00  0.00    +0.000 A 
ATOM     31  C   UNL     1      -2.037 -10.280  11.732  0.00  0.00    +0.003 A 
ATOM     32  C   UNL     1      -2.833 -10.460  11.846  0.00  0.00    +0.037 A 
ENDBRANCH  26  27
ENDBRANCH  25  26
ENDBRANCH  23  25
ENDBRANCH  21  22
ENDBRANCH  20  21
TORSDOF 9
ENDMDL
MODEL 8
REMARK VINA RESULT:      -5.3     14.949     16.103
REMARK  Name = 
REMARK  9 active torsions:
REMARK  status: ('A' for Active; 'I' for Inactive)
REMARK    1  A    between atoms: C_2  and  C_4
REMARK    2  A    between atoms: C_6  and  C_7
REMARK    3  A    between atoms: C_7  and  C_8
REMARK    4  A    between atoms: N_10  and  C_11
REMARK    5  A    between atoms: C_20  and  C_21
REMARK    6  A    between atoms: C_21  and  N_22
REMARK    7  A    between atoms: C_23  and  C_25
REMARK    8  A    between atoms: C_25  and  O_26
REMARK    9  A    between atoms: O_26  and  C_27
REMARK                            x       y       z     vdW  Elec       q    Type
REMARK                         _______ _______ _______ _____ _____    ______ ____
ROOT
ATOM      4  C   UNL     1      -6.477 -10.260  15.699  0.00  0.00    +0.006 C 
ATOM      5  C   UNL     1      -7.282 -10.216  15.871  0.00  0.00    +0.005 C 
ATOM      6  C   UNL     1      -7.840 -10.377  15.284  0.00  0.00    +0.027 C 
ATOM     17  C   UNL     1      -7.590 -10.582  14.524  0.00  0.00    -0.048 C 
ATOM     18  C   UNL     1      -8.147 -10.743  13.936  0.00  0.00    +0.026 C 
ATOM     19  C   UNL     1      -6.784 -10.626  14.352  0.00  0.00    -0.033 C 
ATOM     20  C   UNL     1      -6.228 -10.465  14.940  0.00  0.00    +0.043 C 
ENDROOT
BRANCH   4   2
ATOM      1  C   UNL     1      -5.649 -10.706  16.775  0.00  0.00    +0.000 C 
ATOM      2  C   UNL     1      -5.921 -10.099  16.286  0.00  0.00    +0.000 C 
ATOM      3  C   UNL     1      -5.636  -9.330  16.385  0.00  0.00    +0.000 C 
ENDBRANCH   4   2
BRANCH   6   7
ATOM      7  C   UNL     1      -8.646 -10.333  15.455  0.00  0.00    +0.091 C 
BRANCH   7   8
ATOM      8  C   UNL     1      -8.980  -9.617  15.689  0.00  0.00    +0.247 C 
ATOM      9  O   UNL     1      -8.821  -8.929  15.263  0.00  0.00    -0.273 OA
ATOM     10  N   UNL     1      -9.472  -9.588  16.350  0.00  0.00    -0.160 NA
BRANCH  10  11
ATOM     11  C   UNL     1      -9.807  -8.871  16.585  0.00  0.00    +0.154 A 
ATOM     12  C   UNL     1      -9.565  -8.513  17.286  0.00  0.00    +0.036 A 
ATOM     13  C   UNL     1      -9.899  -7.796  17.521  0.00  0.00    +0.005 A 
ATOM     14  C   UNL     1     -10.477  -7.438  17.053  0.00  0.00    +0.021 A 
ATOM     15  C   UNL     1     -10.720  -7.797  16.350  0.00  0.00    +0.100 A 
ATOM     16  N   UNL     1     -10.384  -8.513  16.117  0.00  0.00    -0.227 NA
ENDBRANCH  10  11
ENDBRANCH   7   8
ENDBRANCH   6   7
BRANCH  20  21
ATOM     21  C   UNL     1      -5.423 -10.509  14.767  0.00  0.00    +0.120 C 
BRANCH  21  22
ATOM     22  N   UNL     1      -5.172 -10.559  13.982  0.00  0.00    -0.202 NA
ATOM     23  C   UNL     1      -4.369 -10.645  13.811  0.00  0.00    +0.286 C 
ATOM     24  O   UNL     1      -3.819 -10.681  14.423  0.00  0.00    -0.269 OA
BRANCH  23  25
ATOM     25  C   UNL     1      -4.118 -10.696  13.026  0.00  0.00    +0.291 C 
BRANCH  25  26
ATOM     26  O   UNL     1      -3.618 -10.118  12.716  0.00  0.00    -0.466 OA
BRANCH  26  27
ATOM     27  C   UNL     1      -3.483 -10.084  11.902  0.00  0.00    +0.139 A 
ATOM     28  C   UNL     1      -2.816 -10.446  11.579  0.00  0.00    +0.037 A 
ATOM     29  C   UNL     1      -2.681 -10.411  10.765  0.00  0.00    +0.003 A 
ATOM     30  C   UNL     1      -3.214 -10.014  10.276  0.00  0.00    +0.000 A 
ATOM     31  C   UNL     1      -3.881  -9.652  10.600  0.00  0.00    +0.003 A 
ATOM     32  C   UNL     1      -4.016  -9.687  11.412  0.00  0.00    +0.037 A 
ENDBRANCH  26  27
ENDBRANCH  25  26
ENDBRANCH  23  25
ENDBRANCH  21  22
ENDBRANCH  20  21
TORSDOF 9
ENDMDL
