MODEL 1
REMARK VINA RESULT:     -11.5      0.000      0.000
REMARK  Name = 
REMARK  7 active torsions:
REMARK  status: ('A' for Active; 'I' for Inactive)
REMARK    1  A    between atoms: N_7  and  C_8
REMARK    2  A    between atoms: C_8  and  C_9
REMARK    3  A    between atoms: C_9  and  C_10
REMARK    4  A    between atoms: C_15  and  C_16
REMARK    5  A    between atoms: C_16  and  C_17
REMARK    6  A    between atoms: C_20  and  C_22
REMARK    7  A    between atoms: C_22  and  C_23
REMARK                            x       y       z     vdW  Elec       q    Type
REMARK                         _______ _______ _______ _____ _____    ______ ____
ROOT
ATOM     10  C   UNL     1      -4.166   1.836  25.062  0.00  0.00    +0.022 C 
ATOM     11  C   UNL     1      -3.553   2.370  25.206  0.00  0.00    +0.093 C 
ATOM     12  N   UNL     1      -3.723   3.158  25.378  0.00  0.00    -0.279 N 
ATOM     13  C   UNL     1      -4.508   3.413  25.407  0.00  0.00    +0.093 C 
ATOM     14  C   UNL     1      -5.121   2.881  25.264  0.00  0.00    +0.022 C 
ATOM     15  C   UNL     1      -4.950   2.092  25.091  0.00  0.00    +0.015 C 
ATOM     20  C   UNL     1      -3.110   3.691  25.521  0.00  0.00    +0.230 C 
ATOM     21  O   UNL     1      -3.280   4.480  25.694  0.00  0.00    -0.275 OA
ENDROOT
BRANCH  10   9
ATOM      9  C   UNL     1      -3.996   1.049  24.890  0.00  0.00    +0.019 C 
BRANCH   9   8
ATOM      8  C   UNL     1      -3.322   0.693  25.206  0.00  0.00    +0.072 C 
BRANCH   8   7
ATOM      1  C   UNL     1      -3.191  -3.053  24.709  0.00  0.00    +0.095 C 
ATOM      2  C   UNL     1      -2.644  -2.463  24.525  0.00  0.00    +0.226 C 
ATOM      3  O   UNL     1      -1.927  -2.665  24.169  0.00  0.00    -0.275 OA
ATOM      4  N   UNL     1      -2.814  -1.674  24.695  0.00  0.00    -0.277 N 
ATOM      5  C   UNL     1      -2.266  -1.086  24.510  0.00  0.00    +0.111 C 
ATOM      6  C   UNL     1      -2.436  -0.296  24.681  0.00  0.00    +0.094 C 
ATOM      7  N   UNL     1      -3.152  -0.096  25.036  0.00  0.00    -0.270 NA
ATOM     29  C   UNL     1      -3.700  -0.684  25.221  0.00  0.00    +0.094 C 
ATOM     30  C   UNL     1      -3.530  -1.474  25.050  0.00  0.00    +0.111 C 
ENDBRANCH   8   7
ENDBRANCH   9   8
ENDBRANCH  10   9
BRANCH  15  16
ATOM     16  C   UNL     1      -5.563   1.559  24.948  0.00  0.00    +0.114 C 
BRANCH  16  17
ATOM     17  C   UNL     1      -6.336   1.753  25.161  0.00  0.00    +0.365 C 
ATOM     18  O   UNL     1      -6.567   1.716  25.952  0.00  0.00    -0.246 OA
ATOM     19  O   UNL     1      -6.877   1.983  24.583  0.00  0.00    -0.246 OA
ENDBRANCH  16  17
ENDBRANCH  15  16
BRANCH  20  22
ATOM     22  C   UNL     1      -2.326   3.436  25.493  0.00  0.00    +0.112 C 
BRANCH  22  23
ATOM     23  C   UNL     1      -1.735   3.947  25.230  0.00  0.00    -0.013 A 
ATOM     24  C   UNL     1      -1.075   3.647  24.837  0.00  0.00    -0.004 A 
ATOM     25  C   UNL     1      -0.484   4.158  24.574  0.00  0.00    -0.000 A 
ATOM     26  C   UNL     1      -0.553   4.970  24.703  0.00  0.00    -0.000 A 
ATOM     27  C   UNL     1      -1.213   5.271  25.096  0.00  0.00    -0.000 A 
ATOM     28  C   UNL     1      -1.805   4.759  25.359  0.00  0.00    -0.004 A 
ENDBRANCH  22  23
ENDBRANCH  20  22
TORSDOF 7
ENDMDL
MODEL 2
REMARK VINA RESULT:     -11.4      1.700      5.679
REMARK  Name = 
REMARK  7 active torsions:
REMARK  status: ('A' for Active; 'I' for Inactive)
REMARK    1  A    between atoms: N_7  and  C_8
REMARK    2  A    between atoms: C_8  and  C_9
REMARK    3  A    between atoms: C_9  and  C_10
REMARK    4  A    between atoms: C_15  and  C_16
REMARK    5  A    between atoms: C_16  and  C_17
REMARK    6  A    between atoms: C_20  and  C_22
REMARK    7  A    between atoms: C_22  and  C_23
REMARK                            x       y       z     vdW  Elec       q    Type
REMARK                         _______ _______ _______ _____ _____    ______ ____
ROOT
ATOM     10  C   UNL     1      -1.842   1.179  24.962  0.00  0.00    +0.022 C 
ATOM     11  C   UNL     1      -2.179   0.426  25.000  0.00  0.00    +0.093 C 
ATOM     12  N   UNL     1      -1.700  -0.243  24.938  0.00  0.00    -0.279 N 
ATOM     13  C   UNL     1      -0.886  -0.159  24.838  0.00  0.00    +0.093 C 
ATOM     14  C   UNL     1      -0.549   0.592  24.800  0.00  0.00    +0.022 C 
ATOM     15  C   UNL     1      -1.027   1.262  24.862  0.00  0.00    +0.015 C 
ATOM     20  C   UNL     1      -2.038  -0.995  24.976  0.00  0.00    +0.230 C 
ATOM     21  O   UNL     1      -1.559  -1.665  24.915  0.00  0.00    -0.275 OA
ENDROOT
BRANCH  10   9
ATOM      9  C   UNL     1      -2.320   1.848  25.023  0.00  0.00    +0.019 C 
BRANCH   9   8
ATOM      8  C   UNL     1      -2.995   1.918  24.554  0.00  0.00    +0.072 C 
BRANCH   8   7
ATOM      1  C   UNL     1      -5.427   4.649  25.515  0.00  0.00    +0.095 C 
ATOM      2  C   UNL     1      -5.500   3.828  25.539  0.00  0.00    +0.226 C 
ATOM      3  O   UNL     1      -6.199   3.484  25.809  0.00  0.00    -0.275 OA
ATOM      4  N   UNL     1      -4.873   3.350  25.293  0.00  0.00    -0.277 N 
ATOM      5  C   UNL     1      -4.947   2.530  25.317  0.00  0.00    +0.111 C 
ATOM      6  C   UNL     1      -4.320   2.052  25.070  0.00  0.00    +0.094 C 
ATOM      7  N   UNL     1      -3.621   2.396  24.800  0.00  0.00    -0.270 NA
ATOM     29  C   UNL     1      -3.547   3.216  24.776  0.00  0.00    +0.094 C 
ATOM     30  C   UNL     1      -4.174   3.694  25.023  0.00  0.00    +0.111 C 
ENDBRANCH   8   7
ENDBRANCH   9   8
ENDBRANCH  10   9
BRANCH  15  16
ATOM     16  C   UNL     1      -0.692   2.014  24.823  0.00  0.00    +0.114 C 
BRANCH  16  17
ATOM     17  C   UNL     1       0.126   2.104  24.893  0.00  0.00    +0.365 C 
ATOM     18  O   UNL     1       0.465   2.239  25.633  0.00  0.00    -0.246 OA
ATOM     19  O   UNL     1       0.604   2.060  24.222  0.00  0.00    -0.246 OA
ENDBRANCH  16  17
ENDBRANCH  15  16
BRANCH  20  22
ATOM     22  C   UNL     1      -2.852  -1.078  25.076  0.00  0.00    +0.112 C 
BRANCH  22  23
ATOM     23  C   UNL     1      -3.246  -1.717  24.737  0.00  0.00    -0.013 A 
ATOM     24  C   UNL     1      -3.132  -2.479  25.034  0.00  0.00    -0.004 A 
ATOM     25  C   UNL     1      -3.527  -3.118  24.694  0.00  0.00    -0.000 A 
ATOM     26  C   UNL     1      -4.035  -2.997  24.056  0.00  0.00    -0.000 A 
ATOM     27  C   UNL     1      -4.150  -2.236  23.758  0.00  0.00    -0.000 A 
ATOM     28  C   UNL     1      -3.755  -1.596  24.099  0.00  0.00    -0.004 A 
ENDBRANCH  22  23
ENDBRANCH  20  22
TORSDOF 7
ENDMDL
MODEL 3
REMARK VINA RESULT:     -11.0      1.058      4.915
REMARK  Name = 
REMARK  7 active torsions:
REMARK  status: ('A' for Active; 'I' for Inactive)
REMARK    1  A    between atoms: N_7  and  C_8
REMARK    2  A    between atoms: C_8  and  C_9
REMARK    3  A    between atoms: C_9  and  C_10
REMARK    4  A    between atoms: C_15  and  C_16
REMARK    5  A    between atoms: C_16  and  C_17
REMARK    6  A    between atoms: C_20  and  C_22
REMARK    7  A    between atoms: C_22  and  C_23
REMARK                            x       y       z     vdW  Elec       q    Type
REMARK                         _______ _______ _______ _____ _____    ______ ____
ROOT
ATOM     10  C   UNL     1      -3.928   1.460  24.885  0.00  0.00    +0.022 C 
ATOM     11  C   UNL     1      -3.484   0.773  24.769  0.00  0.00    +0.093 C 
ATOM     12  N   UNL     1      -3.855   0.037  24.769  0.00  0.00    -0.279 N 
ATOM     13  C   UNL     1      -4.671  -0.014  24.885  0.00  0.00    +0.093 C 
ATOM     14  C   UNL     1      -5.114   0.671  25.001  0.00  0.00    +0.022 C 
ATOM     15  C   UNL     1      -4.743   1.408  25.001  0.00  0.00    +0.015 C 
ATOM     20  C   UNL     1      -3.411  -0.649  24.653  0.00  0.00    +0.230 C 
ATOM     21  O   UNL     1      -3.782  -1.386  24.653  0.00  0.00    -0.275 OA
ENDROOT
BRANCH  10   9
ATOM      9  C   UNL     1      -3.557   2.196  24.885  0.00  0.00    +0.019 C 
BRANCH   9   8
ATOM      8  C   UNL     1      -2.810   2.281  25.223  0.00  0.00    +0.072 C 
BRANCH   8   7
ATOM      1  C   UNL     1      -0.467   5.181  24.591  0.00  0.00    +0.095 C 
ATOM      2  C   UNL     1      -1.200   5.151  24.968  0.00  0.00    +0.226 C 
ATOM      3  O   UNL     1      -1.531   5.839  25.280  0.00  0.00    -0.275 OA
ATOM      4  N   UNL     1      -1.603   4.434  25.031  0.00  0.00    -0.277 N 
ATOM      5  C   UNL     1      -2.335   4.404  25.408  0.00  0.00    +0.111 C 
ATOM      6  C   UNL     1      -2.738   3.686  25.472  0.00  0.00    +0.094 C 
ATOM      7  N   UNL     1      -2.407   2.999  25.159  0.00  0.00    -0.270 NA
ATOM     29  C   UNL     1      -1.675   3.028  24.782  0.00  0.00    +0.094 C 
ATOM     30  C   UNL     1      -1.272   3.747  24.718  0.00  0.00    +0.111 C 
ENDBRANCH   8   7
ENDBRANCH   9   8
ENDBRANCH  10   9
BRANCH  15  16
ATOM     16  C   UNL     1      -5.186   2.094  25.117  0.00  0.00    +0.114 C 
BRANCH  16  17
ATOM     17  C   UNL     1      -5.981   2.039  25.335  0.00  0.00    +0.365 C 
ATOM     18  O   UNL     1      -6.567   2.011  24.755  0.00  0.00    -0.246 OA
ATOM     19  O   UNL     1      -6.188   2.013  26.133  0.00  0.00    -0.246 OA
ENDBRANCH  16  17
ENDBRANCH  15  16
BRANCH  20  22
ATOM     22  C   UNL     1      -2.596  -0.598  24.537  0.00  0.00    +0.112 C 
BRANCH  22  23
ATOM     23  C   UNL     1      -2.118  -1.256  24.671  0.00  0.00    -0.013 A 
ATOM     24  C   UNL     1      -1.514  -1.222  25.232  0.00  0.00    -0.004 A 
ATOM     25  C   UNL     1      -1.037  -1.881  25.365  0.00  0.00    -0.000 A 
ATOM     26  C   UNL     1      -1.163  -2.575  24.938  0.00  0.00    -0.000 A 
ATOM     27  C   UNL     1      -1.766  -2.610  24.377  0.00  0.00    -0.000 A 
ATOM     28  C   UNL     1      -2.244  -1.951  24.243  0.00  0.00    -0.004 A 
ENDBRANCH  22  23
ENDBRANCH  20  22
TORSDOF 7
ENDMDL
MODEL 4
REMARK VINA RESULT:     -10.9      2.174      3.915
REMARK  Name = 
REMARK  7 active torsions:
REMARK  status: ('A' for Active; 'I' for Inactive)
REMARK    1  A    between atoms: N_7  and  C_8
REMARK    2  A    between atoms: C_8  and  C_9
REMARK    3  A    between atoms: C_9  and  C_10
REMARK    4  A    between atoms: C_15  and  C_16
REMARK    5  A    between atoms: C_16  and  C_17
REMARK    6  A    between atoms: C_20  and  C_22
REMARK    7  A    between atoms: C_22  and  C_23
REMARK                            x       y       z     vdW  Elec       q    Type
REMARK                         _______ _______ _______ _____ _____    ______ ____
ROOT
ATOM     10  C   UNL     1      -2.785  -0.495  24.529  0.00  0.00    +0.022 C 
ATOM     11  C   UNL     1      -3.098   0.265  24.604  0.00  0.00    +0.093 C 
ATOM     12  N   UNL     1      -3.895   0.367  24.792  0.00  0.00    -0.279 N 
ATOM     13  C   UNL     1      -4.379  -0.292  24.904  0.00  0.00    +0.093 C 
ATOM     14  C   UNL     1      -4.067  -1.051  24.828  0.00  0.00    +0.022 C 
ATOM     15  C   UNL     1      -3.270  -1.153  24.641  0.00  0.00    +0.015 C 
ATOM     20  C   UNL     1      -4.207   1.127  24.868  0.00  0.00    +0.230 C 
ATOM     21  O   UNL     1      -5.004   1.228  25.055  0.00  0.00    -0.275 OA
ENDROOT
BRANCH  10   9
ATOM      9  C   UNL     1      -1.989  -0.596  24.341  0.00  0.00    +0.019 C 
BRANCH   9   8
ATOM      8  C   UNL     1      -1.420  -0.104  24.678  0.00  0.00    +0.072 C 
BRANCH   8   7
ATOM      1  C   UNL     1       1.821  -0.241  22.735  0.00  0.00    +0.095 C 
ATOM      2  C   UNL     1       1.463   0.378  23.146  0.00  0.00    +0.226 C 
ATOM      3  O   UNL     1       1.827   1.118  23.174  0.00  0.00    -0.275 OA
ATOM      4  N   UNL     1       0.743   0.258  23.529  0.00  0.00    -0.277 N 
ATOM      5  C   UNL     1       0.386   0.877  23.940  0.00  0.00    +0.111 C 
ATOM      6  C   UNL     1      -0.336   0.756  24.323  0.00  0.00    +0.094 C 
ATOM      7  N   UNL     1      -0.699   0.017  24.295  0.00  0.00    -0.270 NA
ATOM     29  C   UNL     1      -0.342  -0.603  23.885  0.00  0.00    +0.094 C 
ATOM     30  C   UNL     1       0.380  -0.482  23.501  0.00  0.00    +0.111 C 
ENDBRANCH   8   7
ENDBRANCH   9   8
ENDBRANCH  10   9
BRANCH  15  16
ATOM     16  C   UNL     1      -2.957  -1.912  24.565  0.00  0.00    +0.114 C 
BRANCH  16  17
ATOM     17  C   UNL     1      -3.442  -2.571  24.677  0.00  0.00    +0.365 C 
ATOM     18  O   UNL     1      -3.860  -2.889  24.040  0.00  0.00    -0.246 OA
ATOM     19  O   UNL     1      -3.508  -2.911  25.425  0.00  0.00    -0.246 OA
ENDBRANCH  16  17
ENDBRANCH  15  16
BRANCH  20  22
ATOM     22  C   UNL     1      -3.723   1.785  24.756  0.00  0.00    +0.112 C 
BRANCH  22  23
ATOM     23  C   UNL     1      -4.028   2.544  24.859  0.00  0.00    -0.013 A 
ATOM     24  C   UNL     1      -4.183   3.020  24.203  0.00  0.00    -0.004 A 
ATOM     25  C   UNL     1      -4.489   3.778  24.306  0.00  0.00    -0.000 A 
ATOM     26  C   UNL     1      -4.639   4.063  25.065  0.00  0.00    -0.000 A 
ATOM     27  C   UNL     1      -4.485   3.588  25.722  0.00  0.00    -0.000 A 
ATOM     28  C   UNL     1      -4.179   2.828  25.618  0.00  0.00    -0.004 A 
ENDBRANCH  22  23
ENDBRANCH  20  22
TORSDOF 7
ENDMDL
MODEL 5
REMARK VINA RESULT:     -10.8      1.715      4.534
REMARK  Name = 
REMARK  7 active torsions:
REMARK  status: ('A' for Active; 'I' for Inactive)
REMARK    1  A    between atoms: N_7  and  C_8
REMARK    2  A    between atoms: C_8  and  C_9
REMARK    3  A    between atoms: C_9  and  C_10
REMARK    4  A    between atoms: C_15  and  C_16
REMARK    5  A    between atoms: C_16  and  C_17
REMARK    6  A    between atoms: C_20  and  C_22
REMARK    7  A    between atoms: C_22  and  C_23
REMARK                            x       y       z     vdW  Elec       q    Type
REMARK                         _______ _______ _______ _____ _____    ______ ____
ROOT
ATOM     10  C   UNL     1      -4.068   1.986  24.980  0.00  0.00    +0.022 C 
ATOM     11  C   UNL     1      -4.020   1.190  24.764  0.00  0.00    +0.093 C 
ATOM     12  N   UNL     1      -4.708   0.745  24.672  0.00  0.00    -0.279 N 
ATOM     13  C   UNL     1      -5.445   1.096  24.795  0.00  0.00    +0.093 C 
ATOM     14  C   UNL     1      -5.494   1.890  25.011  0.00  0.00    +0.022 C 
ATOM     15  C   UNL     1      -4.805   2.335  25.103  0.00  0.00    +0.015 C 
ATOM     20  C   UNL     1      -4.659  -0.050  24.456  0.00  0.00    +0.230 C 
ATOM     21  O   UNL     1      -5.347  -0.495  24.364  0.00  0.00    -0.275 OA
ENDROOT
BRANCH  10   9
ATOM      9  C   UNL     1      -3.381   2.431  25.073  0.00  0.00    +0.019 C 
BRANCH   9   8
ATOM      8  C   UNL     1      -2.753   2.334  24.547  0.00  0.00    +0.072 C 
BRANCH   8   7
ATOM      1  C   UNL     1       0.527   2.793  26.371  0.00  0.00    +0.095 C 
ATOM      2  C   UNL     1       0.356   2.432  25.649  0.00  0.00    +0.226 C 
ATOM      3  O   UNL     1       0.963   2.096  25.203  0.00  0.00    -0.275 OA
ATOM      4  N   UNL     1      -0.421   2.408  25.373  0.00  0.00    -0.277 N 
ATOM      5  C   UNL     1      -0.591   2.047  24.652  0.00  0.00    +0.111 C 
ATOM      6  C   UNL     1      -1.369   2.023  24.376  0.00  0.00    +0.094 C 
ATOM      7  N   UNL     1      -1.975   2.359  24.822  0.00  0.00    -0.270 NA
ATOM     29  C   UNL     1      -1.805   2.719  25.544  0.00  0.00    +0.094 C 
ATOM     30  C   UNL     1      -1.027   2.744  25.820  0.00  0.00    +0.111 C 
ENDBRANCH   8   7
ENDBRANCH   9   8
ENDBRANCH  10   9
BRANCH  15  16
ATOM     16  C   UNL     1      -4.853   3.130  25.319  0.00  0.00    +0.114 C 
BRANCH  16  17
ATOM     17  C   UNL     1      -5.505   3.402  25.746  0.00  0.00    +0.365 C 
ATOM     18  O   UNL     1      -5.620   3.157  26.525  0.00  0.00    -0.246 OA
ATOM     19  O   UNL     1      -6.041   3.920  25.393  0.00  0.00    -0.246 OA
ENDBRANCH  16  17
ENDBRANCH  15  16
BRANCH  20  22
ATOM     22  C   UNL     1      -3.922  -0.399  24.333  0.00  0.00    +0.112 C 
BRANCH  22  23
ATOM     23  C   UNL     1      -3.839  -1.217  24.394  0.00  0.00    -0.013 A 
ATOM     24  C   UNL     1      -4.084  -1.705  23.776  0.00  0.00    -0.004 A 
ATOM     25  C   UNL     1      -4.000  -2.523  23.837  0.00  0.00    -0.000 A 
ATOM     26  C   UNL     1      -3.671  -2.854  24.517  0.00  0.00    -0.000 A 
ATOM     27  C   UNL     1      -3.425  -2.367  25.136  0.00  0.00    -0.000 A 
ATOM     28  C   UNL     1      -3.509  -1.548  25.075  0.00  0.00    -0.004 A 
ENDBRANCH  22  23
ENDBRANCH  20  22
TORSDOF 7
ENDMDL
MODEL 6
REMARK VINA RESULT:     -10.8      2.435      4.801
REMARK  Name = 
REMARK  7 active torsions:
REMARK  status: ('A' for Active; 'I' for Inactive)
REMARK    1  A    between atoms: N_7  and  C_8
REMARK    2  A    between atoms: C_8  and  C_9
REMARK    3  A    between atoms: C_9  and  C_10
REMARK    4  A    between atoms: C_15  and  C_16
REMARK    5  A    between atoms: C_16  and  C_17
REMARK    6  A    between atoms: C_20  and  C_22
REMARK    7  A    between atoms: C_22  and  C_23
REMARK                            x       y       z     vdW  Elec       q    Type
REMARK                         _______ _______ _______ _____ _____    ______ ____
ROOT
ATOM     10  C   UNL     1      -2.384   1.628  24.499  0.00  0.00    +0.022 C 
ATOM     11  C   UNL     1      -2.729   0.894  24.346  0.00  0.00    +0.093 C 
ATOM     12  N   UNL     1      -3.533   0.777  24.491  0.00  0.00    -0.279 N 
ATOM     13  C   UNL     1      -3.992   1.395  24.789  0.00  0.00    +0.093 C 
ATOM     14  C   UNL     1      -3.648   2.128  24.942  0.00  0.00    +0.022 C 
ATOM     15  C   UNL     1      -2.844   2.245  24.796  0.00  0.00    +0.015 C 
ATOM     20  C   UNL     1      -3.877   0.043  24.338  0.00  0.00    +0.230 C 
ATOM     21  O   UNL     1      -4.681  -0.074  24.483  0.00  0.00    -0.275 OA
ENDROOT
BRANCH  10   9
ATOM      9  C   UNL     1      -1.582   1.745  24.354  0.00  0.00    +0.019 C 
BRANCH   9   8
ATOM      8  C   UNL     1      -1.025   1.222  24.667  0.00  0.00    +0.072 C 
BRANCH   8   7
ATOM      1  C   UNL     1       2.020   0.134  22.707  0.00  0.00    +0.095 C 
ATOM      2  C   UNL     1       1.882   0.808  23.161  0.00  0.00    +0.226 C 
ATOM      3  O   UNL     1       2.472   1.379  23.239  0.00  0.00    -0.275 OA
ATOM      4  N   UNL     1       1.155   0.912  23.538  0.00  0.00    -0.277 N 
ATOM      5  C   UNL     1       1.019   1.586  23.992  0.00  0.00    +0.111 C 
ATOM      6  C   UNL     1       0.291   1.690  24.369  0.00  0.00    +0.094 C 
ATOM      7  N   UNL     1      -0.299   1.119  24.290  0.00  0.00    -0.270 NA
ATOM     29  C   UNL     1      -0.162   0.444  23.836  0.00  0.00    +0.094 C 
ATOM     30  C   UNL     1       0.566   0.341  23.459  0.00  0.00    +0.111 C 
ENDBRANCH   8   7
ENDBRANCH   9   8
ENDBRANCH  10   9
BRANCH  15  16
ATOM     16  C   UNL     1      -2.499   2.978  24.949  0.00  0.00    +0.114 C 
BRANCH  16  17
ATOM     17  C   UNL     1      -2.974   3.623  25.150  0.00  0.00    +0.365 C 
ATOM     18  O   UNL     1      -3.319   4.082  24.557  0.00  0.00    -0.246 OA
ATOM     19  O   UNL     1      -3.103   3.809  25.943  0.00  0.00    -0.246 OA
ENDBRANCH  16  17
ENDBRANCH  15  16
BRANCH  20  22
ATOM     22  C   UNL     1      -3.418  -0.574  24.040  0.00  0.00    +0.112 C 
BRANCH  22  23
ATOM     23  C   UNL     1      -3.619  -1.356  24.208  0.00  0.00    -0.013 A 
ATOM     24  C   UNL     1      -3.302  -1.731  24.871  0.00  0.00    -0.004 A 
ATOM     25  C   UNL     1      -3.502  -2.512  25.039  0.00  0.00    -0.000 A 
ATOM     26  C   UNL     1      -4.021  -2.920  24.544  0.00  0.00    -0.000 A 
ATOM     27  C   UNL     1      -4.339  -2.547  23.881  0.00  0.00    -0.000 A 
ATOM     28  C   UNL     1      -4.137  -1.764  23.713  0.00  0.00    -0.004 A 
ENDBRANCH  22  23
ENDBRANCH  20  22
TORSDOF 7
ENDMDL
MODEL 7
REMARK VINA RESULT:     -10.2      1.546      3.560
REMARK  Name = 
REMARK  7 active torsions:
REMARK  status: ('A' for Active; 'I' for Inactive)
REMARK    1  A    between atoms: N_7  and  C_8
REMARK    2  A    between atoms: C_8  and  C_9
REMARK    3  A    between atoms: C_9  and  C_10
REMARK    4  A    between atoms: C_15  and  C_16
REMARK    5  A    between atoms: C_16  and  C_17
REMARK    6  A    between atoms: C_20  and  C_22
REMARK    7  A    between atoms: C_22  and  C_23
REMARK                            x       y       z     vdW  Elec       q    Type
REMARK                         _______ _______ _______ _____ _____    ______ ____
ROOT
ATOM     10  C   UNL     1      -1.728   1.677  25.048  0.00  0.00    +0.022 C 
ATOM     11  C   UNL     1      -2.453   2.040  24.889  0.00  0.00    +0.093 C 
ATOM     12  N   UNL     1      -2.530   2.858  24.966  0.00  0.00    -0.279 N 
ATOM     13  C   UNL     1      -1.883   3.313  25.202  0.00  0.00    +0.093 C 
ATOM     14  C   UNL     1      -1.160   2.950  25.361  0.00  0.00    +0.022 C 
ATOM     15  C   UNL     1      -1.082   2.133  25.284  0.00  0.00    +0.015 C 
ATOM     20  C   UNL     1      -3.254   3.220  24.807  0.00  0.00    +0.230 C 
ATOM     21  O   UNL     1      -3.332   4.038  24.884  0.00  0.00    -0.275 OA
ENDROOT
BRANCH  10   9
ATOM      9  C   UNL     1      -1.651   0.860  24.971  0.00  0.00    +0.019 C 
BRANCH   9   8
ATOM      8  C   UNL     1      -2.101   0.356  25.444  0.00  0.00    +0.072 C 
BRANCH   8   7
ATOM      1  C   UNL     1      -3.545  -3.001  24.478  0.00  0.00    +0.095 C 
ATOM      2  C   UNL     1      -2.777  -2.707  24.420  0.00  0.00    +0.226 C 
ATOM      3  O   UNL     1      -2.178  -3.179  24.107  0.00  0.00    -0.275 OA
ATOM      4  N   UNL     1      -2.608  -1.941  24.676  0.00  0.00    -0.277 N 
ATOM      5  C   UNL     1      -1.840  -1.648  24.619  0.00  0.00    +0.111 C 
ATOM      6  C   UNL     1      -1.670  -0.881  24.875  0.00  0.00    +0.094 C 
ATOM      7  N   UNL     1      -2.270  -0.409  25.188  0.00  0.00    -0.270 NA
ATOM     29  C   UNL     1      -3.038  -0.703  25.246  0.00  0.00    +0.094 C 
ATOM     30  C   UNL     1      -3.207  -1.470  24.989  0.00  0.00    +0.111 C 
ENDBRANCH   8   7
ENDBRANCH   9   8
ENDBRANCH  10   9
BRANCH  15  16
ATOM     16  C   UNL     1      -0.359   1.769  25.442  0.00  0.00    +0.114 C 
BRANCH  16  17
ATOM     17  C   UNL     1       0.332   2.221  25.469  0.00  0.00    +0.365 C 
ATOM     18  O   UNL     1       0.584   2.548  26.183  0.00  0.00    -0.246 OA
ATOM     19  O   UNL     1       0.770   2.345  24.781  0.00  0.00    -0.246 OA
ENDBRANCH  16  17
ENDBRANCH  15  16
BRANCH  20  22
ATOM     22  C   UNL     1      -3.900   2.766  24.572  0.00  0.00    +0.112 C 
BRANCH  22  23
ATOM     23  C   UNL     1      -4.633   2.871  24.934  0.00  0.00    -0.013 A 
ATOM     24  C   UNL     1      -4.843   3.610  25.235  0.00  0.00    -0.004 A 
ATOM     25  C   UNL     1      -5.576   3.715  25.597  0.00  0.00    -0.000 A 
ATOM     26  C   UNL     1      -6.100   3.081  25.660  0.00  0.00    -0.000 A 
ATOM     27  C   UNL     1      -5.891   2.342  25.360  0.00  0.00    -0.000 A 
ATOM     28  C   UNL     1      -5.157   2.237  24.997  0.00  0.00    -0.004 A 
ENDBRANCH  22  23
ENDBRANCH  20  22
TORSDOF 7
ENDMDL
