REMARK  Name = 
REMARK  5 active torsions:
REMARK  status: ('A' for Active; 'I' for Inactive)
REMARK    1  A    between atoms: C_3  and  C_4
REMARK    2  A    between atoms: C_4  and  N_5
REMARK    3  A    between atoms: C_9  and  C_22
REMARK    4  A    between atoms: C_11  and  C_12
REMARK    5  A    between atoms: C_12  and  C_13
REMARK                            x       y       z     vdW  Elec       q    Type
REMARK                         _______ _______ _______ _____ _____    ______ ____
ROOT
ATOM      5  N   UNL     1       1.814   2.795   0.000  0.00  0.00    -0.315 N 
ATOM      6  C   UNL     1       2.637   2.854   0.000  0.00  0.00    +0.072 A 
ATOM      7  C   UNL     1       2.948   2.090   0.000  0.00  0.00    -0.002 A 
ATOM      8  C   UNL     1       3.757   1.929   0.000  0.00  0.00    +0.055 C 
ATOM      9  C   UNL     1       4.135   1.195   0.000  0.00  0.00    +0.154 C 
ATOM     10  N   UNL     1       3.797   0.442   0.000  0.00  0.00    -0.207 NA
ATOM     11  C   UNL     1       2.998   0.237   0.000  0.00  0.00    +0.095 C 
ATOM     16  C   UNL     1       2.339   0.734   0.000  0.00  0.00    -0.005 A 
ATOM     17  C   UNL     1       1.562   0.345   0.000  0.00  0.00    -0.003 A 
ATOM     18  C   UNL     1       0.862   0.780   0.000  0.00  0.00    +0.001 A 
ATOM     19  C   UNL     1       0.889   1.605   0.000  0.00  0.00    +0.017 A 
ATOM     20  C   UNL     1       1.616   1.994   0.000  0.00  0.00    +0.060 A 
ATOM     21  C   UNL     1       2.317   1.558   0.000  0.00  0.00    +0.011 A 
ENDROOT
BRANCH   9  22
ATOM     22  C   UNL     1       4.959   1.218   0.000  0.00  0.00    +0.242 C 
ATOM     23  O   UNL     1       5.352   1.943   0.000  0.00  0.00    -0.273 OA
ATOM     24  N   UNL     1       5.391   0.515   0.000  0.00  0.00    -0.278 N 
ATOM     25  C   UNL     1       6.216   0.537   0.000  0.00  0.00    +0.096 C 
ATOM     26  C   UNL     1       6.648  -0.166   0.000  0.00  0.00    +0.054 C 
ATOM     27  C   UNL     1       6.255  -0.891   0.000  0.00  0.00    +0.155 C 
ATOM     28  O   UNL     1       6.687  -1.594   0.000  0.00  0.00    -0.223 OA
ATOM     29  C   UNL     1       5.430  -0.914   0.000  0.00  0.00    +0.054 C 
ATOM     30  C   UNL     1       4.998  -0.211   0.000  0.00  0.00    +0.096 C 
ENDBRANCH   9  22
BRANCH   5   4
ATOM      4  C   UNL     1       1.282   3.426   0.000  0.00  0.00    +0.183 C 
BRANCH   4   3
ATOM      1  C   UNL     1      -1.154   2.990   0.000  0.00  0.00    +0.090 C 
ATOM      2  C   UNL     1      -0.342   3.135   0.000  0.00  0.00    -0.088 C 
ATOM      3  C   UNL     1       0.470   3.280   0.000  0.00  0.00    -0.066 C 
ENDBRANCH   4   3
ENDBRANCH   5   4
BRANCH  11  12
ATOM     12  C   UNL     1       2.836  -0.572   0.000  0.00  0.00    +0.022 C 
BRANCH  12  13
ATOM     13  C   UNL     1       3.456  -1.117   0.000  0.00  0.00    +0.002 C 
ATOM     14  C   UNL     1       4.238  -0.852   0.000  0.00  0.00    +0.000 C 
ATOM     15  C   UNL     1       3.295  -1.925   0.000  0.00  0.00    +0.000 C 
ENDBRANCH  12  13
ENDBRANCH  11  12
TORSDOF 5
