MODEL 1
REMARK VINA RESULT:     -11.7      0.000      0.000
REMARK  Name = 
REMARK  3 active torsions:
REMARK  status: ('A' for Active; 'I' for Inactive)
REMARK    1  A    between atoms: C_6  and  C_7
REMARK    2  A    between atoms: C_7  and  N_8
REMARK    3  A    between atoms: C_18  and  C_20
REMARK                            x       y       z     vdW  Elec       q    Type
REMARK                         _______ _______ _______ _____ _____    ______ ____
ROOT
ATOM      8  N   UNL     1      -1.363   2.323  24.959  0.00  0.00    -0.255 N 
ATOM      9  C   UNL     1      -2.182   2.230  25.002  0.00  0.00    +0.117 C 
ATOM     10  C   UNL     1      -2.353   1.430  24.905  0.00  0.00    +0.116 C 
ATOM     11  C   UNL     1      -3.066   1.014  24.898  0.00  0.00    +0.115 C 
ATOM     12  N   UNL     1      -3.066   0.197  24.788  0.00  0.00    -0.273 N 
ATOM     13  C   UNL     1      -2.354  -0.206  24.685  0.00  0.00    +0.115 C 
ATOM     14  C   UNL     1      -1.640   0.209  24.693  0.00  0.00    +0.116 C 
ATOM     15  N   UNL     1      -1.640   1.027  24.803  0.00  0.00    -0.261 N 
ATOM     16  C   UNL     1      -1.029   1.579  24.836  0.00  0.00    +0.308 C 
ATOM     17  O   UNL     1      -0.223   1.416  24.759  0.00  0.00    -0.252 OA
ATOM     18  C   UNL     1      -3.779  -0.219  24.780  0.00  0.00    +0.249 C 
ATOM     19  O   UNL     1      -4.492   0.184  24.882  0.00  0.00    -0.270 OA
ENDROOT
BRANCH  18  20
ATOM     20  C   UNL     1      -3.779  -1.036  24.670  0.00  0.00    +0.054 A 
ATOM     21  C   UNL     1      -3.558  -1.536  25.287  0.00  0.00    +0.007 A 
ATOM     22  C   UNL     1      -3.559  -2.353  25.177  0.00  0.00    +0.030 A 
ATOM     23  C   UNL     1      -3.780  -2.671  24.449  0.00  0.00    +0.140 A 
ATOM     24  F   UNL     1      -3.781  -3.489  24.338  0.00  0.00    -0.204 F 
ATOM     25  C   UNL     1      -4.002  -2.172  23.831  0.00  0.00    +0.030 A 
ATOM     26  C   UNL     1      -4.001  -1.354  23.941  0.00  0.00    +0.007 A 
ENDBRANCH  18  20
BRANCH   8   7
ATOM      7  C   UNL     1      -0.951   3.035  25.027  0.00  0.00    +0.159 C 
BRANCH   7   6
ATOM      1  C   UNL     1      -0.515   4.697  24.511  0.00  0.00    +0.132 C 
ATOM      2  N   UNL     1      -1.153   4.491  24.991  0.00  0.00    -0.310 N 
ATOM      3  C   UNL     1      -1.702   5.012  25.319  0.00  0.00    +0.098 A 
ATOM      4  C   UNL     1      -2.242   4.569  25.758  0.00  0.00    +0.119 A 
ATOM      5  N   UNL     1      -2.027   3.775  25.702  0.00  0.00    -0.228 NA
ATOM      6  C   UNL     1      -1.353   3.726  25.228  0.00  0.00    +0.141 A 
ENDBRANCH   7   6
ENDBRANCH   8   7
TORSDOF 3
ENDMDL
MODEL 2
REMARK VINA RESULT:     -11.5      2.243      5.460
REMARK  Name = 
REMARK  3 active torsions:
REMARK  status: ('A' for Active; 'I' for Inactive)
REMARK    1  A    between atoms: C_6  and  C_7
REMARK    2  A    between atoms: C_7  and  N_8
REMARK    3  A    between atoms: C_18  and  C_20
REMARK                            x       y       z     vdW  Elec       q    Type
REMARK                         _______ _______ _______ _____ _____    ______ ____
ROOT
ATOM      8  N   UNL     1      -2.854  -0.128  24.532  0.00  0.00    -0.255 N 
ATOM      9  C   UNL     1      -2.301   0.113  25.096  0.00  0.00    +0.117 C 
ATOM     10  C   UNL     1      -2.203   0.928  25.024  0.00  0.00    +0.116 C 
ATOM     11  C   UNL     1      -1.730   1.466  25.434  0.00  0.00    +0.115 C 
ATOM     12  N   UNL     1      -1.747   2.266  25.235  0.00  0.00    -0.273 N 
ATOM     13  C   UNL     1      -2.238   2.529  24.626  0.00  0.00    +0.115 C 
ATOM     14  C   UNL     1      -2.711   1.993  24.216  0.00  0.00    +0.116 C 
ATOM     15  N   UNL     1      -2.694   1.191  24.415  0.00  0.00    -0.261 N 
ATOM     16  C   UNL     1      -3.096   0.539  24.111  0.00  0.00    +0.308 C 
ATOM     17  O   UNL     1      -3.644   0.551  23.495  0.00  0.00    -0.252 OA
ATOM     18  C   UNL     1      -1.274   2.804  25.645  0.00  0.00    +0.249 C 
ATOM     19  O   UNL     1      -0.783   2.540  26.253  0.00  0.00    -0.270 OA
ENDROOT
BRANCH  18  20
ATOM     20  C   UNL     1      -1.291   3.603  25.446  0.00  0.00    +0.054 A 
ATOM     21  C   UNL     1      -1.902   4.085  25.721  0.00  0.00    +0.007 A 
ATOM     22  C   UNL     1      -1.919   4.884  25.523  0.00  0.00    +0.030 A 
ATOM     23  C   UNL     1      -1.325   5.205  25.049  0.00  0.00    +0.140 A 
ATOM     24  F   UNL     1      -1.342   6.006  24.850  0.00  0.00    -0.204 F 
ATOM     25  C   UNL     1      -0.713   4.725  24.773  0.00  0.00    +0.030 A 
ATOM     26  C   UNL     1      -0.696   3.924  24.972  0.00  0.00    +0.007 A 
ENDBRANCH  18  20
BRANCH   8   7
ATOM      7  C   UNL     1      -3.117  -0.900  24.410  0.00  0.00    +0.159 C 
BRANCH   7   6
ATOM      1  C   UNL     1      -3.531  -2.586  24.867  0.00  0.00    +0.132 C 
ATOM      2  N   UNL     1      -2.778  -2.306  24.679  0.00  0.00    -0.310 N 
ATOM      3  C   UNL     1      -2.084  -2.751  24.669  0.00  0.00    +0.098 A 
ATOM      4  C   UNL     1      -1.464  -2.251  24.452  0.00  0.00    +0.119 A 
ATOM      5  N   UNL     1      -1.776  -1.497  24.329  0.00  0.00    -0.228 NA
ATOM      6  C   UNL     1      -2.589  -1.531  24.469  0.00  0.00    +0.141 A 
ENDBRANCH   7   6
ENDBRANCH   8   7
TORSDOF 3
ENDMDL
