REMARK  Name = 
REMARK  4 active torsions:
REMARK  status: ('A' for Active; 'I' for Inactive)
REMARK    1  A    between atoms: O_2  and  C_3
REMARK    2  A    between atoms: C_3  and  C_4
REMARK    3  A    between atoms: C_4  and  C_5
REMARK    4  A    between atoms: C_16  and  C_21
REMARK                            x       y       z     vdW  Elec       q    Type
REMARK                         _______ _______ _______ _____ _____    ______ ____
ROOT
ATOM      5  C   UNL     1       0.125  -2.547   0.000  0.00  0.00    +0.228 C 
ATOM      6  O   UNL     1      -0.614  -2.179   0.000  0.00  0.00    -0.275 OA
ATOM      7  N   UNL     1       0.813  -2.091   0.000  0.00  0.00    -0.279 N 
ATOM      8  C   UNL     1       1.629  -1.912   0.000  0.00  0.00    +0.095 C 
ATOM      9  C   UNL     1       1.582  -0.925   0.000  0.00  0.00    +0.043 C 
ATOM     10  C   UNL     1       1.713  -0.121   0.000  0.00  0.00    +0.011 C 
ATOM     11  C   UNL     1       1.163  -0.557   0.000  0.00  0.00    +0.058 C 
ATOM     12  C   UNL     1       1.225  -1.510   0.000  0.00  0.00    +0.099 C 
ATOM     13  C   UNL     1       0.244  -0.558   0.000  0.00  0.00    +0.041 A 
ATOM     14  C   UNL     1      -0.397  -0.039   0.000  0.00  0.00    +0.013 A 
ATOM     15  C   UNL     1      -1.167  -0.335   0.000  0.00  0.00    +0.006 A 
ATOM     16  C   UNL     1      -1.296  -1.150   0.000  0.00  0.00    +0.056 A 
ATOM     17  C   UNL     1      -0.655  -1.669   0.000  0.00  0.00    +0.261 A 
ATOM     18  O   UNL     1      -1.029  -2.404   0.000  0.00  0.00    -0.267 OA
ATOM     19  N   UNL     1       0.115  -1.373   0.000  0.00  0.00    -0.299 N 
ATOM     20  C   UNL     1       0.622  -0.936   0.000  0.00  0.00    +0.110 C 
ENDROOT
BRANCH  16  21
ATOM     21  C   UNL     1      -2.066  -1.445   0.000  0.00  0.00    +0.005 A 
ATOM     22  C   UNL     1      -2.195  -2.260   0.000  0.00  0.00    +0.000 A 
ATOM     23  C   UNL     1      -2.965  -2.556   0.000  0.00  0.00    +0.000 A 
ATOM     24  C   UNL     1      -3.606  -2.037   0.000  0.00  0.00    +0.000 A 
ATOM     25  C   UNL     1      -4.377  -2.333   0.000  0.00  0.00    +0.000 A 
ATOM     26  C   UNL     1      -5.018  -1.813   0.000  0.00  0.00    +0.000 A 
ATOM     27  C   UNL     1      -4.889  -0.999   0.000  0.00  0.00    +0.000 A 
ATOM     28  C   UNL     1      -4.119  -0.703   0.000  0.00  0.00    +0.000 A 
ATOM     29  C   UNL     1      -3.478  -1.222   0.000  0.00  0.00    +0.000 A 
ATOM     30  C   UNL     1      -2.707  -0.926   0.000  0.00  0.00    +0.000 A 
ENDBRANCH  16  21
BRANCH   5   4
ATOM      4  C   UNL     1       0.176  -3.370   0.000  0.00  0.00    +0.117 C 
BRANCH   4   3
ATOM      3  C   UNL     1      -0.512  -3.826   0.000  0.00  0.00    +0.152 C 
BRANCH   3   2
ATOM      1  C   UNL     1      -1.149  -5.105   0.000  0.00  0.00    +0.174 C 
ATOM      2  O   UNL     1      -0.461  -4.650   0.000  0.00  0.00    -0.351 OA
ENDBRANCH   3   2
ENDBRANCH   4   3
ENDBRANCH   5   4
TORSDOF 4
