MODEL 1
REMARK VINA RESULT:     -12.5      0.000      0.000
REMARK  Name = 
REMARK  4 active torsions:
REMARK  status: ('A' for Active; 'I' for Inactive)
REMARK    1  A    between atoms: C_4  and  C_8
REMARK    2  A    between atoms: C_11  and  C_13
REMARK    3  A    between atoms: N_18  and  C_19
REMARK    4  A    between atoms: C_19  and  C_20
REMARK                            x       y       z     vdW  Elec       q    Type
REMARK                         _______ _______ _______ _____ _____    ______ ____
ROOT
ATOM     13  C   UNL     1      -4.397   2.024  24.990  0.00  0.00    +0.140 C 
ATOM     14  C   UNL     1      -5.146   2.242  25.259  0.00  0.00    +0.060 C 
ATOM     15  C   UNL     1      -5.098   3.013  25.547  0.00  0.00    +0.170 C 
ATOM     16  O   UNL     1      -5.720   3.450  25.870  0.00  0.00    -0.222 OA
ATOM     17  C   UNL     1      -4.320   3.273  25.456  0.00  0.00    +0.106 C 
ATOM     18  N   UNL     1      -3.886   2.661  25.112  0.00  0.00    -0.260 NA
ENDROOT
BRANCH  13  11
ATOM      8  C   UNL     1      -3.913  -0.001  24.518  0.00  0.00    +0.203 A 
ATOM      9  N   UNL     1      -3.851   0.355  23.776  0.00  0.00    -0.056 NA
ATOM     10  O   UNL     1      -4.025   1.157  23.862  0.00  0.00    -0.336 OA
ATOM     11  C   UNL     1      -4.194   1.297  24.658  0.00  0.00    +0.251 A 
ATOM     12  N   UNL     1      -4.125   0.581  25.063  0.00  0.00    -0.190 NA
BRANCH   8   4
ATOM      1  C   UNL     1      -4.126  -2.752  23.771  0.00  0.00    +0.031 C 
ATOM      2  C   UNL     1      -3.892  -2.173  24.312  0.00  0.00    -0.022 A 
ATOM      3  C   UNL     1      -4.019  -1.376  24.145  0.00  0.00    -0.001 A 
ATOM      4  C   UNL     1      -3.785  -0.799  24.685  0.00  0.00    +0.039 A 
ATOM      5  C   UNL     1      -3.423  -1.018  25.394  0.00  0.00    +0.003 A 
ATOM      6  C   UNL     1      -3.296  -1.816  25.561  0.00  0.00    -0.000 A 
ATOM      7  C   UNL     1      -3.530  -2.394  25.020  0.00  0.00    -0.004 A 
ENDBRANCH   8   4
ENDBRANCH  13  11
BRANCH  18  19
ATOM     19  C   UNL     1      -3.084   2.682  24.922  0.00  0.00    +0.101 C 
BRANCH  19  20
ATOM     20  C   UNL     1      -2.640   3.359  25.082  0.00  0.00    +0.013 A 
ATOM     21  C   UNL     1      -2.186   3.402  25.769  0.00  0.00    +0.000 A 
ATOM     22  C   UNL     1      -1.742   4.079  25.929  0.00  0.00    +0.020 A 
ATOM     23  C   UNL     1      -1.753   4.713  25.401  0.00  0.00    +0.099 A 
ATOM     24  N   UNL     1      -2.207   4.670  24.714  0.00  0.00    -0.243 NA
ATOM     25  C   UNL     1      -2.650   3.993  24.554  0.00  0.00    +0.096 A 
ENDBRANCH  19  20
ENDBRANCH  18  19
TORSDOF 4
ENDMDL
MODEL 2
REMARK VINA RESULT:     -11.8      1.094      4.695
REMARK  Name = 
REMARK  4 active torsions:
REMARK  status: ('A' for Active; 'I' for Inactive)
REMARK    1  A    between atoms: C_4  and  C_8
REMARK    2  A    between atoms: C_11  and  C_13
REMARK    3  A    between atoms: N_18  and  C_19
REMARK    4  A    between atoms: C_19  and  C_20
REMARK                            x       y       z     vdW  Elec       q    Type
REMARK                         _______ _______ _______ _____ _____    ______ ____
ROOT
ATOM     13  C   UNL     1      -4.197   1.639  24.719  0.00  0.00    +0.140 C 
ATOM     14  C   UNL     1      -4.932   1.917  24.970  0.00  0.00    +0.060 C 
ATOM     15  C   UNL     1      -5.397   1.265  25.169  0.00  0.00    +0.170 C 
ATOM     16  O   UNL     1      -6.173   1.289  25.447  0.00  0.00    -0.222 OA
ATOM     17  C   UNL     1      -4.948   0.584  25.041  0.00  0.00    +0.106 C 
ATOM     18  N   UNL     1      -4.207   0.815  24.763  0.00  0.00    -0.260 NA
ENDROOT
BRANCH  13  11
ATOM      8  C   UNL     1      -2.485   2.892  24.477  0.00  0.00    +0.203 A 
ATOM      9  N   UNL     1      -2.689   2.747  23.691  0.00  0.00    -0.056 NA
ATOM     10  O   UNL     1      -3.355   2.260  23.686  0.00  0.00    -0.336 OA
ATOM     11  C   UNL     1      -3.563   2.104  24.469  0.00  0.00    +0.251 A 
ATOM     12  N   UNL     1      -3.025   2.494  24.958  0.00  0.00    -0.190 NA
BRANCH   8   4
ATOM      1  C   UNL     1      -1.380   5.453  25.096  0.00  0.00    +0.031 C 
ATOM      2  C   UNL     1      -1.300   4.633  25.046  0.00  0.00    -0.022 A 
ATOM      3  C   UNL     1      -1.932   4.172  24.787  0.00  0.00    -0.001 A 
ATOM      4  C   UNL     1      -1.852   3.353  24.737  0.00  0.00    +0.039 A 
ATOM      5  C   UNL     1      -1.140   2.994  24.947  0.00  0.00    +0.003 A 
ATOM      6  C   UNL     1      -0.507   3.455  25.207  0.00  0.00    -0.000 A 
ATOM      7  C   UNL     1      -0.587   4.275  25.256  0.00  0.00    -0.004 A 
ENDBRANCH   8   4
ENDBRANCH  13  11
BRANCH  18  19
ATOM     19  C   UNL     1      -3.585   0.311  24.563  0.00  0.00    +0.101 C 
BRANCH  19  20
ATOM     20  C   UNL     1      -3.662  -0.502  24.672  0.00  0.00    +0.013 A 
ATOM     21  C   UNL     1      -3.941  -0.976  24.057  0.00  0.00    +0.000 A 
ATOM     22  C   UNL     1      -4.019  -1.791  24.165  0.00  0.00    +0.020 A 
ATOM     23  C   UNL     1      -3.817  -2.131  24.889  0.00  0.00    +0.099 A 
ATOM     24  N   UNL     1      -3.538  -1.657  25.504  0.00  0.00    -0.243 NA
ATOM     25  C   UNL     1      -3.460  -0.843  25.396  0.00  0.00    +0.096 A 
ENDBRANCH  19  20
ENDBRANCH  18  19
TORSDOF 4
ENDMDL
MODEL 3
REMARK VINA RESULT:     -11.7      2.238      5.480
REMARK  Name = 
REMARK  4 active torsions:
REMARK  status: ('A' for Active; 'I' for Inactive)
REMARK    1  A    between atoms: C_4  and  C_8
REMARK    2  A    between atoms: C_11  and  C_13
REMARK    3  A    between atoms: N_18  and  C_19
REMARK    4  A    between atoms: C_19  and  C_20
REMARK                            x       y       z     vdW  Elec       q    Type
REMARK                         _______ _______ _______ _____ _____    ______ ____
ROOT
ATOM     13  C   UNL     1      -0.855   0.627  24.911  0.00  0.00    +0.140 C 
ATOM     14  C   UNL     1      -0.211   0.339  24.482  0.00  0.00    +0.060 C 
ATOM     15  C   UNL     1      -0.409  -0.408  24.195  0.00  0.00    +0.170 C 
ATOM     16  O   UNL     1       0.074  -0.896  23.737  0.00  0.00    -0.222 OA
ATOM     17  C   UNL     1      -1.175  -0.584  24.448  0.00  0.00    +0.106 C 
ATOM     18  N   UNL     1      -1.451   0.056  24.890  0.00  0.00    -0.260 NA
ENDROOT
BRANCH  13  11
ATOM      8  C   UNL     1      -1.150   2.641  25.554  0.00  0.00    +0.203 A 
ATOM      9  N   UNL     1      -0.766   2.318  26.211  0.00  0.00    -0.056 NA
ATOM     10  O   UNL     1      -0.609   1.524  26.049  0.00  0.00    -0.336 OA
ATOM     11  C   UNL     1      -0.895   1.356  25.294  0.00  0.00    +0.251 A 
ATOM     12  N   UNL     1      -1.229   2.046  24.988  0.00  0.00    -0.190 NA
BRANCH   8   4
ATOM      1  C   UNL     1      -0.686   5.330  24.705  0.00  0.00    +0.031 C 
ATOM      2  C   UNL     1      -1.176   4.764  25.054  0.00  0.00    -0.022 A 
ATOM      3  C   UNL     1      -0.918   3.984  25.130  0.00  0.00    -0.001 A 
ATOM      4  C   UNL     1      -1.408   3.420  25.479  0.00  0.00    +0.039 A 
ATOM      5  C   UNL     1      -2.156   3.635  25.752  0.00  0.00    +0.003 A 
ATOM      6  C   UNL     1      -2.414   4.415  25.676  0.00  0.00    -0.000 A 
ATOM      7  C   UNL     1      -1.924   4.980  25.327  0.00  0.00    -0.004 A 
ENDBRANCH   8   4
ENDBRANCH  13  11
BRANCH  18  19
ATOM     19  C   UNL     1      -2.191   0.115  25.248  0.00  0.00    +0.101 C 
BRANCH  19  20
ATOM     20  C   UNL     1      -2.770  -0.453  25.095  0.00  0.00    +0.013 A 
ATOM     21  C   UNL     1      -3.290  -0.352  24.464  0.00  0.00    +0.000 A 
ATOM     22  C   UNL     1      -3.869  -0.920  24.310  0.00  0.00    +0.020 A 
ATOM     23  C   UNL     1      -3.927  -1.589  24.790  0.00  0.00    +0.099 A 
ATOM     24  N   UNL     1      -3.406  -1.690  25.421  0.00  0.00    -0.243 NA
ATOM     25  C   UNL     1      -2.828  -1.122  25.574  0.00  0.00    +0.096 A 
ENDBRANCH  19  20
ENDBRANCH  18  19
TORSDOF 4
ENDMDL
MODEL 4
REMARK VINA RESULT:     -11.7      2.000      2.757
REMARK  Name = 
REMARK  4 active torsions:
REMARK  status: ('A' for Active; 'I' for Inactive)
REMARK    1  A    between atoms: C_4  and  C_8
REMARK    2  A    between atoms: C_11  and  C_13
REMARK    3  A    between atoms: N_18  and  C_19
REMARK    4  A    between atoms: C_19  and  C_20
REMARK                            x       y       z     vdW  Elec       q    Type
REMARK                         _______ _______ _______ _____ _____    ______ ____
ROOT
ATOM     13  C   UNL     1      -1.016   0.979  24.842  0.00  0.00    +0.140 C 
ATOM     14  C   UNL     1      -0.273   0.899  24.491  0.00  0.00    +0.060 C 
ATOM     15  C   UNL     1       0.049   1.653  24.402  0.00  0.00    +0.170 C 
ATOM     16  O   UNL     1       0.785   1.831  24.074  0.00  0.00    -0.222 OA
ATOM     17  C   UNL     1      -0.494   2.199  24.698  0.00  0.00    +0.106 C 
ATOM     18  N   UNL     1      -1.152   1.782  24.970  0.00  0.00    -0.260 NA
ENDROOT
BRANCH  13  11
ATOM      8  C   UNL     1      -2.467  -0.583  24.935  0.00  0.00    +0.203 A 
ATOM      9  N   UNL     1      -2.179  -0.587  25.709  0.00  0.00    -0.056 NA
ATOM     10  O   UNL     1      -1.600  -0.002  25.768  0.00  0.00    -0.336 OA
ATOM     11  C   UNL     1      -1.530   0.363  25.031  0.00  0.00    +0.251 A 
ATOM     12  N   UNL     1      -2.067   0.004  24.517  0.00  0.00    -0.190 NA
BRANCH   8   4
ATOM      1  C   UNL     1      -3.480  -3.213  24.461  0.00  0.00    +0.031 C 
ATOM      2  C   UNL     1      -3.560  -2.394  24.397  0.00  0.00    -0.022 A 
ATOM      3  C   UNL     1      -2.974  -1.898  24.698  0.00  0.00    -0.001 A 
ATOM      4  C   UNL     1      -3.054  -1.080  24.634  0.00  0.00    +0.039 A 
ATOM      5  C   UNL     1      -3.719  -0.756  24.268  0.00  0.00    +0.003 A 
ATOM      6  C   UNL     1      -4.305  -1.253  23.967  0.00  0.00    -0.000 A 
ATOM      7  C   UNL     1      -4.226  -2.072  24.031  0.00  0.00    -0.004 A 
ENDBRANCH   8   4
ENDBRANCH  13  11
BRANCH  18  19
ATOM     19  C   UNL     1      -1.828   2.111  25.311  0.00  0.00    +0.101 C 
BRANCH  19  20
ATOM     20  C   UNL     1      -1.966   2.922  25.252  0.00  0.00    +0.013 A 
ATOM     21  C   UNL     1      -1.662   3.435  25.821  0.00  0.00    +0.000 A 
ATOM     22  C   UNL     1      -1.801   4.246  25.763  0.00  0.00    +0.020 A 
ATOM     23  C   UNL     1      -2.245   4.544  25.134  0.00  0.00    +0.099 A 
ATOM     24  N   UNL     1      -2.549   4.031  24.565  0.00  0.00    -0.243 NA
ATOM     25  C   UNL     1      -2.410   3.220  24.623  0.00  0.00    +0.096 A 
ENDBRANCH  19  20
ENDBRANCH  18  19
TORSDOF 4
ENDMDL
MODEL 5
REMARK VINA RESULT:     -11.7      1.900      5.342
REMARK  Name = 
REMARK  4 active torsions:
REMARK  status: ('A' for Active; 'I' for Inactive)
REMARK    1  A    between atoms: C_4  and  C_8
REMARK    2  A    between atoms: C_11  and  C_13
REMARK    3  A    between atoms: N_18  and  C_19
REMARK    4  A    between atoms: C_19  and  C_20
REMARK                            x       y       z     vdW  Elec       q    Type
REMARK                         _______ _______ _______ _____ _____    ______ ____
ROOT
ATOM     13  C   UNL     1      -1.454   0.462  24.403  0.00  0.00    +0.140 C 
ATOM     14  C   UNL     1      -0.665   0.238  24.311  0.00  0.00    +0.060 C 
ATOM     15  C   UNL     1      -0.614  -0.575  24.438  0.00  0.00    +0.170 C 
ATOM     16  O   UNL     1       0.073  -1.030  24.401  0.00  0.00    -0.222 OA
ATOM     17  C   UNL     1      -1.372  -0.855  24.608  0.00  0.00    +0.106 C 
ATOM     18  N   UNL     1      -1.891  -0.213  24.587  0.00  0.00    -0.260 NA
ENDROOT
BRANCH  13  11
ATOM      8  C   UNL     1      -2.078   2.495  24.585  0.00  0.00    +0.203 A 
ATOM      9  N   UNL     1      -2.345   2.314  23.826  0.00  0.00    -0.056 NA
ATOM     10  O   UNL     1      -2.144   1.530  23.665  0.00  0.00    -0.336 OA
ATOM     11  C   UNL     1      -1.752   1.227  24.325  0.00  0.00    +0.251 A 
ATOM     12  N   UNL     1      -1.712   1.824  24.894  0.00  0.00    -0.190 NA
BRANCH   8   4
ATOM      1  C   UNL     1      -1.158   5.155  25.081  0.00  0.00    +0.031 C 
ATOM      2  C   UNL     1      -1.703   4.550  25.216  0.00  0.00    -0.022 A 
ATOM      3  C   UNL     1      -1.618   3.825  24.833  0.00  0.00    -0.001 A 
ATOM      4  C   UNL     1      -2.163   3.221  24.969  0.00  0.00    +0.039 A 
ATOM      5  C   UNL     1      -2.793   3.342  25.488  0.00  0.00    +0.003 A 
ATOM      6  C   UNL     1      -2.878   4.067  25.871  0.00  0.00    -0.000 A 
ATOM      7  C   UNL     1      -2.333   4.672  25.735  0.00  0.00    -0.004 A 
ENDBRANCH   8   4
ENDBRANCH  13  11
BRANCH  18  19
ATOM     19  C   UNL     1      -2.704  -0.242  24.724  0.00  0.00    +0.101 C 
BRANCH  19  20
ATOM     20  C   UNL     1      -3.092  -0.969  24.753  0.00  0.00    +0.013 A 
ATOM     21  C   UNL     1      -3.461  -1.267  24.079  0.00  0.00    +0.000 A 
ATOM     22  C   UNL     1      -3.850  -1.995  24.108  0.00  0.00    +0.020 A 
ATOM     23  C   UNL     1      -3.868  -2.424  24.812  0.00  0.00    +0.099 A 
ATOM     24  N   UNL     1      -3.498  -2.126  25.487  0.00  0.00    -0.243 NA
ATOM     25  C   UNL     1      -3.110  -1.399  25.458  0.00  0.00    +0.096 A 
ENDBRANCH  19  20
ENDBRANCH  18  19
TORSDOF 4
ENDMDL
MODEL 6
REMARK VINA RESULT:     -11.6      2.230      4.395
REMARK  Name = 
REMARK  4 active torsions:
REMARK  status: ('A' for Active; 'I' for Inactive)
REMARK    1  A    between atoms: C_4  and  C_8
REMARK    2  A    between atoms: C_11  and  C_13
REMARK    3  A    between atoms: N_18  and  C_19
REMARK    4  A    between atoms: C_19  and  C_20
REMARK                            x       y       z     vdW  Elec       q    Type
REMARK                         _______ _______ _______ _____ _____    ______ ____
ROOT
ATOM     13  C   UNL     1      -1.356   2.347  25.219  0.00  0.00    +0.140 C 
ATOM     14  C   UNL     1      -0.811   2.808  25.635  0.00  0.00    +0.060 C 
ATOM     15  C   UNL     1      -0.151   2.340  25.795  0.00  0.00    +0.170 C 
ATOM     16  O   UNL     1       0.526   2.580  26.200  0.00  0.00    -0.222 OA
ATOM     17  C   UNL     1      -0.287   1.590  25.479  0.00  0.00    +0.106 C 
ATOM     18  N   UNL     1      -1.032   1.594  25.123  0.00  0.00    -0.260 NA
ENDROOT
BRANCH  13  11
ATOM      8  C   UNL     1      -3.399   2.872  24.893  0.00  0.00    +0.203 A 
ATOM      9  N   UNL     1      -3.062   3.084  24.170  0.00  0.00    -0.056 NA
ATOM     10  O   UNL     1      -2.255   2.913  24.204  0.00  0.00    -0.336 OA
ATOM     11  C   UNL     1      -2.094   2.596  24.948  0.00  0.00    +0.251 A 
ATOM     12  N   UNL     1      -2.800   2.571  25.374  0.00  0.00    -0.190 NA
BRANCH   8   4
ATOM      1  C   UNL     1      -6.030   1.769  25.060  0.00  0.00    +0.031 C 
ATOM      2  C   UNL     1      -5.509   2.398  25.182  0.00  0.00    -0.022 A 
ATOM      3  C   UNL     1      -4.714   2.321  24.977  0.00  0.00    -0.001 A 
ATOM      4  C   UNL     1      -4.194   2.949  25.099  0.00  0.00    +0.039 A 
ATOM      5  C   UNL     1      -4.468   3.655  25.426  0.00  0.00    +0.003 A 
ATOM      6  C   UNL     1      -5.264   3.732  25.632  0.00  0.00    -0.000 A 
ATOM      7  C   UNL     1      -5.785   3.103  25.510  0.00  0.00    -0.004 A 
ENDBRANCH   8   4
ENDBRANCH  13  11
BRANCH  18  19
ATOM     19  C   UNL     1      -1.389   0.958  24.739  0.00  0.00    +0.101 C 
BRANCH  19  20
ATOM     20  C   UNL     1      -1.096   0.195  24.845  0.00  0.00    +0.013 A 
ATOM     21  C   UNL     1      -1.368  -0.269  25.470  0.00  0.00    +0.000 A 
ATOM     22  C   UNL     1      -1.074  -1.033  25.576  0.00  0.00    +0.020 A 
ATOM     23  C   UNL     1      -0.508  -1.333  25.055  0.00  0.00    +0.099 A 
ATOM     24  N   UNL     1      -0.236  -0.869  24.430  0.00  0.00    -0.243 NA
ATOM     25  C   UNL     1      -0.530  -0.106  24.324  0.00  0.00    +0.096 A 
ENDBRANCH  19  20
ENDBRANCH  18  19
TORSDOF 4
ENDMDL
