MODEL 1
REMARK VINA RESULT:      -8.8      0.000      0.000
REMARK  Name = 
REMARK  9 active torsions:
REMARK  status: ('A' for Active; 'I' for Inactive)
REMARK    1  A    between atoms: S_2  and  C_3
REMARK    2  A    between atoms: C_7  and  N_8
REMARK    3  A    between atoms: N_11  and  C_12
REMARK    4  A    between atoms: C_16  and  C_17
REMARK    5  A    between atoms: N_19  and  C_20
REMARK    6  A    between atoms: C_20  and  C_21
REMARK    7  A    between atoms: C_20  and  C_27
REMARK    8  A    between atoms: C_21  and  C_22
REMARK    9  A    between atoms: C_30  and  C_32
REMARK                            x       y       z     vdW  Elec       q    Type
REMARK                         _______ _______ _______ _____ _____    ______ ____
ROOT
ATOM     12  C   UNL     1      -0.905   0.938  23.967  0.00  0.00    +0.126 C 
ATOM     13  C   UNL     1      -0.923   1.633  23.522  0.00  0.00    +0.045 C 
ATOM     14  C   UNL     1      -1.594   2.060  23.743  0.00  0.00    +0.096 C 
ATOM     15  N   UNL     1      -1.990   1.629  24.324  0.00  0.00    -0.267 N 
ATOM     16  C   UNL     1      -1.564   0.935  24.462  0.00  0.00    +0.174 C 
ATOM     30  C   UNL     1      -2.689   1.851  24.701  0.00  0.00    +0.269 C 
ATOM     31  O   UNL     1      -3.024   1.361  25.275  0.00  0.00    -0.268 OA
ENDROOT
BRANCH  30  32
ATOM     32  C   UNL     1      -3.055   2.564  24.505  0.00  0.00    +0.154 A 
ATOM     33  C   UNL     1      -3.623   2.585  23.906  0.00  0.00    +0.123 A 
ATOM     34  N   UNL     1      -3.989   3.297  23.710  0.00  0.00    -0.239 NA
ATOM     35  C   UNL     1      -3.789   3.989  24.111  0.00  0.00    +0.120 A 
ATOM     36  C   UNL     1      -3.221   3.968  24.711  0.00  0.00    +0.120 A 
ATOM     37  N   UNL     1      -2.854   3.255  24.907  0.00  0.00    -0.236 NA
ENDBRANCH  30  32
BRANCH  12  11
ATOM      8  N   UNL     1       0.894  -0.146  23.375  0.00  0.00    -0.161 NA
ATOM      9  C   UNL     1       0.318   0.443  23.419  0.00  0.00    +0.344 C 
ATOM     10  O   UNL     1       0.388   1.123  22.959  0.00  0.00    -0.249 OA
ATOM     11  N   UNL     1      -0.329   0.349  23.923  0.00  0.00    -0.186 NA
BRANCH   8   7
ATOM      3  C   UNL     1       2.876   0.402  22.641  0.00  0.00    +0.027 A 
ATOM      4  C   UNL     1       2.835   0.130  21.864  0.00  0.00    +0.006 A 
ATOM      5  C   UNL     1       2.147  -0.234  21.590  0.00  0.00    +0.002 A 
ATOM      6  C   UNL     1       1.500  -0.326  22.094  0.00  0.00    +0.017 A 
ATOM      7  C   UNL     1       1.541  -0.054  22.872  0.00  0.00    +0.075 A 
ATOM     38  C   UNL     1       2.229   0.310  23.146  0.00  0.00    +0.023 A 
BRANCH   3   2
ATOM      1  C   UNL     1       4.287   0.373  22.864  0.00  0.00    +0.074 C 
ATOM      2  S   UNL     1       3.564   0.766  22.915  0.00  0.00    -0.113 S 
ENDBRANCH   3   2
ENDBRANCH   8   7
ENDBRANCH  12  11
BRANCH  16  17
ATOM     17  C   UNL     1      -1.763   0.343  25.002  0.00  0.00    +0.262 C 
ATOM     18  O   UNL     1      -1.695   0.484  25.812  0.00  0.00    -0.271 OA
ATOM     19  N   UNL     1      -2.029  -0.389  24.731  0.00  0.00    -0.196 NA
BRANCH  19  20
ATOM     20  C   UNL     1      -2.228  -0.981  25.271  0.00  0.00    +0.179 C 
BRANCH  20  27
ATOM     27  C   UNL     1      -1.635  -1.379  25.683  0.00  0.00    +0.281 C 
ATOM     28  N   UNL     1      -1.576  -1.296  26.502  0.00  0.00    -0.086 NA
ATOM     29  O   UNL     1      -1.100  -1.859  25.277  0.00  0.00    -0.270 OA
ENDBRANCH  20  27
BRANCH  20  21
ATOM     21  C   UNL     1      -3.020  -1.175  25.397  0.00  0.00    +0.064 C 
BRANCH  21  22
ATOM     22  C   UNL     1      -3.421  -1.647  24.853  0.00  0.00    +0.010 A 
ATOM     23  C   UNL     1      -3.947  -1.381  24.275  0.00  0.00    +0.003 A 
ATOM     24  C   UNL     1      -4.217  -2.037  23.855  0.00  0.00    +0.007 A 
ATOM     25  C   UNL     1      -3.859  -2.708  24.173  0.00  0.00    +0.035 A 
ATOM     26  S   UNL     1      -3.367  -2.467  24.789  0.00  0.00    -0.091 S 
ENDBRANCH  21  22
ENDBRANCH  20  21
ENDBRANCH  19  20
ENDBRANCH  16  17
TORSDOF 9
ENDMDL
MODEL 2
REMARK VINA RESULT:      -8.3      1.464      3.448
REMARK  Name = 
REMARK  9 active torsions:
REMARK  status: ('A' for Active; 'I' for Inactive)
REMARK    1  A    between atoms: S_2  and  C_3
REMARK    2  A    between atoms: C_7  and  N_8
REMARK    3  A    between atoms: N_11  and  C_12
REMARK    4  A    between atoms: C_16  and  C_17
REMARK    5  A    between atoms: N_19  and  C_20
REMARK    6  A    between atoms: C_20  and  C_21
REMARK    7  A    between atoms: C_20  and  C_27
REMARK    8  A    between atoms: C_21  and  C_22
REMARK    9  A    between atoms: C_30  and  C_32
REMARK                            x       y       z     vdW  Elec       q    Type
REMARK                         _______ _______ _______ _____ _____    ______ ____
ROOT
ATOM     12  C   UNL     1      -0.508   0.047  24.098  0.00  0.00    +0.126 C 
ATOM     13  C   UNL     1      -0.573  -0.722  23.804  0.00  0.00    +0.045 C 
ATOM     14  C   UNL     1      -1.285  -1.039  24.077  0.00  0.00    +0.096 C 
ATOM     15  N   UNL     1      -1.658  -0.467  24.539  0.00  0.00    -0.267 N 
ATOM     16  C   UNL     1      -1.178   0.204  24.552  0.00  0.00    +0.174 C 
ATOM     30  C   UNL     1      -2.384  -0.550  24.922  0.00  0.00    +0.269 C 
ATOM     31  O   UNL     1      -2.690   0.073  25.367  0.00  0.00    -0.268 OA
ENDROOT
BRANCH  30  32
ATOM     32  C   UNL     1      -2.805  -1.258  24.859  0.00  0.00    +0.154 A 
ATOM     33  C   UNL     1      -2.676  -1.863  25.406  0.00  0.00    +0.123 A 
ATOM     34  N   UNL     1      -3.097  -2.570  25.343  0.00  0.00    -0.239 NA
ATOM     35  C   UNL     1      -3.645  -2.672  24.736  0.00  0.00    +0.120 A 
ATOM     36  C   UNL     1      -3.773  -2.067  24.189  0.00  0.00    +0.120 A 
ATOM     37  N   UNL     1      -3.353  -1.359  24.251  0.00  0.00    -0.236 NA
ENDBRANCH  30  32
BRANCH  12  11
ATOM      8  N   UNL     1       1.397   0.838  23.384  0.00  0.00    -0.161 NA
ATOM      9  C   UNL     1       0.771   0.318  23.520  0.00  0.00    +0.344 C 
ATOM     10  O   UNL     1       0.797  -0.448  23.217  0.00  0.00    -0.249 OA
ATOM     11  N   UNL     1       0.119   0.566  23.961  0.00  0.00    -0.186 NA
BRANCH   8   7
ATOM      3  C   UNL     1       3.463   0.563  22.734  0.00  0.00    +0.027 A 
ATOM      4  C   UNL     1       3.354   0.097  22.062  0.00  0.00    +0.006 A 
ATOM      5  C   UNL     1       2.593  -0.123  21.831  0.00  0.00    +0.002 A 
ATOM      6  C   UNL     1       1.941   0.124  22.271  0.00  0.00    +0.017 A 
ATOM      7  C   UNL     1       2.050   0.591  22.943  0.00  0.00    +0.075 A 
ATOM     38  C   UNL     1       2.811   0.810  23.175  0.00  0.00    +0.023 A 
BRANCH   3   2
ATOM      1  C   UNL     1       4.781   0.203  23.152  0.00  0.00    +0.074 C 
ATOM      2  S   UNL     1       4.224   0.782  22.965  0.00  0.00    -0.113 S 
ENDBRANCH   3   2
ENDBRANCH   8   7
ENDBRANCH  12  11
BRANCH  16  17
ATOM     17  C   UNL     1      -1.340   0.909  24.949  0.00  0.00    +0.262 C 
ATOM     18  O   UNL     1      -1.248   0.951  25.768  0.00  0.00    -0.271 OA
ATOM     19  N   UNL     1      -1.593   1.571  24.528  0.00  0.00    -0.196 NA
BRANCH  19  20
ATOM     20  C   UNL     1      -1.755   2.276  24.926  0.00  0.00    +0.179 C 
BRANCH  20  27
ATOM     27  C   UNL     1      -1.150   2.821  25.062  0.00  0.00    +0.281 C 
ATOM     28  N   UNL     1      -0.948   3.027  25.835  0.00  0.00    -0.086 NA
ATOM     29  O   UNL     1      -0.747   3.158  24.426  0.00  0.00    -0.270 OA
ENDBRANCH  20  27
BRANCH  20  21
ATOM     21  C   UNL     1      -2.521   2.436  25.186  0.00  0.00    +0.064 C 
BRANCH  21  22
ATOM     22  C   UNL     1      -3.046   2.842  24.697  0.00  0.00    +0.010 A 
ATOM     23  C   UNL     1      -3.190   2.681  23.900  0.00  0.00    +0.003 A 
ATOM     24  C   UNL     1      -3.753   3.219  23.629  0.00  0.00    +0.007 A 
ATOM     25  C   UNL     1      -3.957   3.712  24.257  0.00  0.00    +0.035 A 
ATOM     26  S   UNL     1      -3.521   3.479  24.917  0.00  0.00    -0.091 S 
ENDBRANCH  21  22
ENDBRANCH  20  21
ENDBRANCH  19  20
ENDBRANCH  16  17
TORSDOF 9
ENDMDL
MODEL 3
REMARK VINA RESULT:      -8.2      1.704      4.730
REMARK  Name = 
REMARK  9 active torsions:
REMARK  status: ('A' for Active; 'I' for Inactive)
REMARK    1  A    between atoms: S_2  and  C_3
REMARK    2  A    between atoms: C_7  and  N_8
REMARK    3  A    between atoms: N_11  and  C_12
REMARK    4  A    between atoms: C_16  and  C_17
REMARK    5  A    between atoms: N_19  and  C_20
REMARK    6  A    between atoms: C_20  and  C_21
REMARK    7  A    between atoms: C_20  and  C_27
REMARK    8  A    between atoms: C_21  and  C_22
REMARK    9  A    between atoms: C_30  and  C_32
REMARK                            x       y       z     vdW  Elec       q    Type
REMARK                         _______ _______ _______ _____ _____    ______ ____
ROOT
ATOM     12  C   UNL     1      -0.710   1.147  24.694  0.00  0.00    +0.126 C 
ATOM     13  C   UNL     1      -0.238   1.623  24.212  0.00  0.00    +0.045 C 
ATOM     14  C   UNL     1       0.229   1.128  23.744  0.00  0.00    +0.096 C 
ATOM     15  N   UNL     1       0.044   0.347  23.936  0.00  0.00    -0.267 N 
ATOM     16  C   UNL     1      -0.536   0.359  24.523  0.00  0.00    +0.174 C 
ATOM     30  C   UNL     1       0.381  -0.327  23.601  0.00  0.00    +0.269 C 
ATOM     31  O   UNL     1       0.140  -1.076  23.850  0.00  0.00    -0.268 OA
ENDROOT
BRANCH  30  32
ATOM     32  C   UNL     1       0.958  -0.253  23.016  0.00  0.00    +0.154 A 
ATOM     33  C   UNL     1       0.758  -0.366  22.223  0.00  0.00    +0.123 A 
ATOM     34  N   UNL     1       1.335  -0.292  21.638  0.00  0.00    -0.239 NA
ATOM     35  C   UNL     1       2.111  -0.106  21.845  0.00  0.00    +0.120 A 
ATOM     36  C   UNL     1       2.311   0.006  22.638  0.00  0.00    +0.120 A 
ATOM     37  N   UNL     1       1.734  -0.067  23.224  0.00  0.00    -0.236 NA
ENDBRANCH  30  32
BRANCH  12  11
ATOM      8  N   UNL     1      -2.197   2.399  25.686  0.00  0.00    -0.161 NA
ATOM      9  C   UNL     1      -1.647   2.133  25.132  0.00  0.00    +0.344 C 
ATOM     10  O   UNL     1      -1.484   2.586  24.462  0.00  0.00    -0.249 OA
ATOM     11  N   UNL     1      -1.260   1.414  25.248  0.00  0.00    -0.186 NA
BRANCH   8   7
ATOM      3  C   UNL     1      -3.750   3.849  25.187  0.00  0.00    +0.027 A 
ATOM      4  C   UNL     1      -3.358   4.558  25.342  0.00  0.00    +0.006 A 
ATOM      5  C   UNL     1      -2.578   4.547  25.611  0.00  0.00    +0.002 A 
ATOM      6  C   UNL     1      -2.191   3.828  25.726  0.00  0.00    +0.017 A 
ATOM      7  C   UNL     1      -2.584   3.118  25.571  0.00  0.00    +0.075 A 
ATOM     38  C   UNL     1      -3.364   3.129  25.302  0.00  0.00    +0.023 A 
BRANCH   3   2
ATOM      1  C   UNL     1      -5.152   3.749  25.448  0.00  0.00    +0.074 C 
ATOM      2  S   UNL     1      -4.530   3.860  24.918  0.00  0.00    -0.113 S 
ENDBRANCH   3   2
ENDBRANCH   8   7
ENDBRANCH  12  11
BRANCH  16  17
ATOM     17  C   UNL     1      -0.881  -0.301  24.878  0.00  0.00    +0.262 C 
ATOM     18  O   UNL     1      -0.417  -0.821  25.320  0.00  0.00    -0.271 OA
ATOM     19  N   UNL     1      -1.689  -0.441  24.790  0.00  0.00    -0.196 NA
BRANCH  19  20
ATOM     20  C   UNL     1      -2.034  -1.102  25.145  0.00  0.00    +0.179 C 
BRANCH  20  27
ATOM     27  C   UNL     1      -2.201  -1.096  25.953  0.00  0.00    +0.281 C 
ATOM     28  N   UNL     1      -1.742  -1.545  26.471  0.00  0.00    -0.086 NA
ATOM     29  O   UNL     1      -2.826  -0.642  26.242  0.00  0.00    -0.270 OA
ENDBRANCH  20  27
BRANCH  20  21
ATOM     21  C   UNL     1      -2.212  -1.768  24.691  0.00  0.00    +0.064 C 
BRANCH  21  22
ATOM     22  C   UNL     1      -2.965  -1.855  24.366  0.00  0.00    +0.010 A 
ATOM     23  C   UNL     1      -3.406  -1.263  23.998  0.00  0.00    +0.003 A 
ATOM     24  C   UNL     1      -4.123  -1.593  23.757  0.00  0.00    +0.007 A 
ATOM     25  C   UNL     1      -4.125  -2.387  23.975  0.00  0.00    +0.035 A 
ATOM     26  S   UNL     1      -3.409  -2.550  24.352  0.00  0.00    -0.091 S 
ENDBRANCH  21  22
ENDBRANCH  20  21
ENDBRANCH  19  20
ENDBRANCH  16  17
TORSDOF 9
ENDMDL
MODEL 4
REMARK VINA RESULT:      -7.0      1.788      5.406
REMARK  Name = 
REMARK  9 active torsions:
REMARK  status: ('A' for Active; 'I' for Inactive)
REMARK    1  A    between atoms: S_2  and  C_3
REMARK    2  A    between atoms: C_7  and  N_8
REMARK    3  A    between atoms: N_11  and  C_12
REMARK    4  A    between atoms: C_16  and  C_17
REMARK    5  A    between atoms: N_19  and  C_20
REMARK    6  A    between atoms: C_20  and  C_21
REMARK    7  A    between atoms: C_20  and  C_27
REMARK    8  A    between atoms: C_21  and  C_22
REMARK    9  A    between atoms: C_30  and  C_32
REMARK                            x       y       z     vdW  Elec       q    Type
REMARK                         _______ _______ _______ _____ _____    ______ ____
ROOT
ATOM     12  C   UNL     1      -0.533   0.315  24.292  0.00  0.00    +0.126 C 
ATOM     13  C   UNL     1      -0.189  -0.309  23.875  0.00  0.00    +0.045 C 
ATOM     14  C   UNL     1       0.542  -0.052  23.590  0.00  0.00    +0.096 C 
ATOM     15  N   UNL     1       0.650   0.729  23.832  0.00  0.00    -0.267 N 
ATOM     16  C   UNL     1      -0.015   0.956  24.266  0.00  0.00    +0.174 C 
ATOM     30  C   UNL     1       1.306   1.201  23.668  0.00  0.00    +0.269 C 
ATOM     31  O   UNL     1       1.337   1.977  23.948  0.00  0.00    -0.268 OA
ENDROOT
BRANCH  30  32
ATOM     32  C   UNL     1       1.932   0.898  23.225  0.00  0.00    +0.154 A 
ATOM     33  C   UNL     1       1.781   0.394  22.589  0.00  0.00    +0.123 A 
ATOM     34  N   UNL     1       2.408   0.091  22.146  0.00  0.00    -0.239 NA
ATOM     35  C   UNL     1       3.184   0.291  22.337  0.00  0.00    +0.120 A 
ATOM     36  C   UNL     1       3.335   0.795  22.974  0.00  0.00    +0.120 A 
ATOM     37  N   UNL     1       2.709   1.098  23.417  0.00  0.00    -0.236 NA
ENDBRANCH  30  32
BRANCH  12  11
ATOM      8  N   UNL     1      -2.443  -0.413  25.058  0.00  0.00    -0.161 NA
ATOM      9  C   UNL     1      -1.710  -0.397  24.681  0.00  0.00    +0.344 C 
ATOM     10  O   UNL     1      -1.420  -1.076  24.315  0.00  0.00    -0.249 OA
ATOM     11  N   UNL     1      -1.266   0.299  24.670  0.00  0.00    -0.186 NA
BRANCH   8   7
ATOM      3  C   UNL     1      -3.861  -1.965  24.472  0.00  0.00    +0.027 A 
ATOM      4  C   UNL     1      -3.774  -2.499  25.094  0.00  0.00    +0.006 A 
ATOM      5  C   UNL     1      -3.243  -2.337  25.704  0.00  0.00    +0.002 A 
ATOM      6  C   UNL     1      -2.799  -1.642  25.693  0.00  0.00    +0.017 A 
ATOM      7  C   UNL     1      -2.887  -1.108  25.070  0.00  0.00    +0.075 A 
ATOM     38  C   UNL     1      -3.418  -1.269  24.459  0.00  0.00    +0.023 A 
BRANCH   3   2
ATOM      1  C   UNL     1      -4.370  -2.855  23.477  0.00  0.00    +0.074 C 
ATOM      2  S   UNL     1      -4.392  -2.126  23.862  0.00  0.00    -0.113 S 
ENDBRANCH   3   2
ENDBRANCH   8   7
ENDBRANCH  12  11
BRANCH  16  17
ATOM     17  C   UNL     1      -0.139   1.694  24.612  0.00  0.00    +0.262 C 
ATOM     18  O   UNL     1       0.313   1.926  25.262  0.00  0.00    -0.271 OA
ATOM     19  N   UNL     1      -0.715   2.201  24.309  0.00  0.00    -0.196 NA
BRANCH  19  20
ATOM     20  C   UNL     1      -0.839   2.940  24.655  0.00  0.00    +0.179 C 
BRANCH  20  27
ATOM     27  C   UNL     1      -0.528   3.617  24.303  0.00  0.00    +0.281 C 
ATOM     28  N   UNL     1      -0.131   4.176  24.764  0.00  0.00    -0.086 NA
ATOM     29  O   UNL     1      -0.612   3.737  23.492  0.00  0.00    -0.270 OA
ENDBRANCH  20  27
BRANCH  20  21
ATOM     21  C   UNL     1      -1.275   3.000  25.353  0.00  0.00    +0.064 C 
BRANCH  21  22
ATOM     22  C   UNL     1      -2.067   3.227  25.327  0.00  0.00    +0.010 A 
ATOM     23  C   UNL     1      -2.601   3.054  24.722  0.00  0.00    +0.003 A 
ATOM     24  C   UNL     1      -3.328   3.387  24.921  0.00  0.00    +0.007 A 
ATOM     25  C   UNL     1      -3.245   3.765  25.648  0.00  0.00    +0.035 A 
ATOM     26  S   UNL     1      -2.465   3.666  25.899  0.00  0.00    -0.091 S 
ENDBRANCH  21  22
ENDBRANCH  20  21
ENDBRANCH  19  20
ENDBRANCH  16  17
TORSDOF 9
ENDMDL
MODEL 5
REMARK VINA RESULT:      -6.8      2.628      6.083
REMARK  Name = 
REMARK  9 active torsions:
REMARK  status: ('A' for Active; 'I' for Inactive)
REMARK    1  A    between atoms: S_2  and  C_3
REMARK    2  A    between atoms: C_7  and  N_8
REMARK    3  A    between atoms: N_11  and  C_12
REMARK    4  A    between atoms: C_16  and  C_17
REMARK    5  A    between atoms: N_19  and  C_20
REMARK    6  A    between atoms: C_20  and  C_21
REMARK    7  A    between atoms: C_20  and  C_27
REMARK    8  A    between atoms: C_21  and  C_22
REMARK    9  A    between atoms: C_30  and  C_32
REMARK                            x       y       z     vdW  Elec       q    Type
REMARK                         _______ _______ _______ _____ _____    ______ ____
ROOT
ATOM     12  C   UNL     1      -2.659   0.712  24.235  0.00  0.00    +0.126 C 
ATOM     13  C   UNL     1      -2.995  -0.022  24.407  0.00  0.00    +0.045 C 
ATOM     14  C   UNL     1      -2.381  -0.560  24.535  0.00  0.00    +0.096 C 
ATOM     15  N   UNL     1      -1.667  -0.158  24.442  0.00  0.00    -0.267 N 
ATOM     16  C   UNL     1      -1.839   0.628  24.256  0.00  0.00    +0.174 C 
ATOM     30  C   UNL     1      -0.913  -0.484  24.520  0.00  0.00    +0.269 C 
ATOM     31  O   UNL     1      -0.245  -0.012  24.410  0.00  0.00    -0.268 OA
ENDROOT
BRANCH  30  32
ATOM     32  C   UNL     1      -0.827  -1.283  24.708  0.00  0.00    +0.154 A 
ATOM     33  C   UNL     1      -0.536  -1.502  25.448  0.00  0.00    +0.123 A 
ATOM     34  N   UNL     1      -0.449  -2.301  25.636  0.00  0.00    -0.239 NA
ATOM     35  C   UNL     1      -0.652  -2.879  25.086  0.00  0.00    +0.120 A 
ATOM     36  C   UNL     1      -0.943  -2.660  24.345  0.00  0.00    +0.120 A 
ATOM     37  N   UNL     1      -1.030  -1.861  24.156  0.00  0.00    -0.236 NA
ENDBRANCH  30  32
BRANCH  12  11
ATOM      8  N   UNL     1      -4.179   2.275  24.315  0.00  0.00    -0.161 NA
ATOM      9  C   UNL     1      -3.767   1.580  24.480  0.00  0.00    +0.344 C 
ATOM     10  O   UNL     1      -4.049   1.059  25.052  0.00  0.00    -0.249 OA
ATOM     11  N   UNL     1      -3.071   1.407  24.071  0.00  0.00    -0.186 NA
BRANCH   8   7
ATOM      3  C   UNL     1      -5.635   3.327  25.556  0.00  0.00    +0.027 A 
ATOM      4  C   UNL     1      -6.266   2.796  25.540  0.00  0.00    +0.006 A 
ATOM      5  C   UNL     1      -6.201   2.092  25.115  0.00  0.00    +0.002 A 
ATOM      6  C   UNL     1      -5.506   1.918  24.707  0.00  0.00    +0.017 A 
ATOM      7  C   UNL     1      -4.874   2.449  24.724  0.00  0.00    +0.075 A 
ATOM     38  C   UNL     1      -4.939   3.154  25.148  0.00  0.00    +0.023 A 
BRANCH   3   2
ATOM      1  C   UNL     1      -5.946   4.721  25.600  0.00  0.00    +0.074 C 
ATOM      2  S   UNL     1      -5.700   4.032  25.980  0.00  0.00    -0.113 S 
ENDBRANCH   3   2
ENDBRANCH   8   7
ENDBRANCH  12  11
BRANCH  16  17
ATOM     17  C   UNL     1      -1.286   1.225  24.117  0.00  0.00    +0.262 C 
ATOM     18  O   UNL     1      -0.937   1.298  23.373  0.00  0.00    -0.271 OA
ATOM     19  N   UNL     1      -1.084   1.749  24.721  0.00  0.00    -0.196 NA
BRANCH  19  20
ATOM     20  C   UNL     1      -0.531   2.346  24.582  0.00  0.00    +0.179 C 
BRANCH  20  27
ATOM     27  C   UNL     1       0.252   2.246  24.821  0.00  0.00    +0.281 C 
ATOM     28  N   UNL     1       0.860   2.276  24.263  0.00  0.00    -0.086 NA
ATOM     29  O   UNL     1       0.428   2.117  25.616  0.00  0.00    -0.270 OA
ENDBRANCH  20  27
BRANCH  20  21
ATOM     21  C   UNL     1      -0.763   3.042  24.204  0.00  0.00    +0.064 C 
BRANCH  21  22
ATOM     22  C   UNL     1      -0.997   3.694  24.651  0.00  0.00    +0.010 A 
ATOM     23  C   UNL     1      -1.282   3.675  25.425  0.00  0.00    +0.003 A 
ATOM     24  C   UNL     1      -1.449   4.450  25.654  0.00  0.00    +0.007 A 
ATOM     25  C   UNL     1      -1.268   4.947  25.022  0.00  0.00    +0.035 A 
ATOM     26  S   UNL     1      -0.988   4.480  24.402  0.00  0.00    -0.091 S 
ENDBRANCH  21  22
ENDBRANCH  20  21
ENDBRANCH  19  20
ENDBRANCH  16  17
TORSDOF 9
ENDMDL
