MODEL 1
REMARK VINA RESULT:      -9.7      0.000      0.000
REMARK  Name = 
REMARK  7 active torsions:
REMARK  status: ('A' for Active; 'I' for Inactive)
REMARK    1  A    between atoms: O_2  and  C_3
REMARK    2  A    between atoms: C_8  and  N_9
REMARK    3  A    between atoms: C_15  and  C_17
REMARK    4  A    between atoms: C_17  and  C_18
REMARK    5  A    between atoms: C_20  and  C_21
REMARK    6  A    between atoms: C_21  and  N_22
REMARK    7  A    between atoms: N_22  and  S_23
REMARK                            x       y       z     vdW  Elec       q    Type
REMARK                         _______ _______ _______ _____ _____    ______ ____
ROOT
ATOM      9  N   UNL     1      -3.718  -0.688  24.344  0.00  0.00    -0.302 N 
ATOM     10  C   UNL     1      -4.028  -0.326  25.017  0.00  0.00    +0.112 C 
ATOM     11  C   UNL     1      -4.162   0.488  25.022  0.00  0.00    +0.115 C 
ATOM     12  N   UNL     1      -3.986   0.939  24.353  0.00  0.00    -0.276 N 
ATOM     13  C   UNL     1      -3.676   0.576  23.681  0.00  0.00    +0.115 C 
ATOM     14  C   UNL     1      -3.542  -0.238  23.676  0.00  0.00    +0.112 C 
ATOM     15  C   UNL     1      -4.121   1.753  24.357  0.00  0.00    +0.228 C 
ATOM     16  O   UNL     1      -3.945   2.204  23.690  0.00  0.00    -0.275 OA
ENDROOT
BRANCH   9   8
ATOM      3  C   UNL     1      -2.856  -1.802  24.588  0.00  0.00    +0.152 A 
ATOM      4  C   UNL     1      -2.722  -2.616  24.584  0.00  0.00    +0.038 A 
ATOM      5  C   UNL     1      -3.314  -3.130  24.331  0.00  0.00    +0.003 A 
ATOM      6  C   UNL     1      -4.042  -2.832  24.082  0.00  0.00    +0.001 A 
ATOM      7  C   UNL     1      -4.177  -2.018  24.086  0.00  0.00    +0.018 A 
ATOM      8  C   UNL     1      -3.583  -1.502  24.340  0.00  0.00    +0.082 A 
BRANCH   3   2
ATOM      1  C   UNL     1      -1.528  -1.585  25.068  0.00  0.00    +0.253 C 
ATOM      2  O   UNL     1      -2.264  -1.287  24.841  0.00  0.00    -0.470 OA
ENDBRANCH   3   2
ENDBRANCH   9   8
BRANCH  15  17
ATOM     17  C   UNL     1      -4.431   2.116  25.030  0.00  0.00    +0.117 C 
BRANCH  17  18
ATOM     18  C   UNL     1      -4.085   2.805  25.324  0.00  0.00    +0.157 C 
ATOM     19  O   UNL     1      -3.318   3.066  25.170  0.00  0.00    -0.351 OA
ATOM     20  C   UNL     1      -3.205   3.777  25.574  0.00  0.00    +0.167 C 
ATOM     27  C   UNL     1      -3.901   3.955  25.977  0.00  0.00    +0.213 C 
ATOM     28  O   UNL     1      -4.031   4.617  26.451  0.00  0.00    -0.218 OA
ATOM     29  C   UNL     1      -4.446   3.355  25.822  0.00  0.00    +0.212 C 
ATOM     30  O   UNL     1      -5.216   3.311  26.115  0.00  0.00    -0.218 OA
BRANCH  20  21
ATOM     21  C   UNL     1      -2.515   4.230  25.574  0.00  0.00    +0.147 C 
BRANCH  21  22
ATOM     22  N   UNL     1      -1.919   4.074  25.025  0.00  0.00    -0.079 NA
BRANCH  22  23
ATOM     23  S   UNL     1      -1.224   4.518  25.032  0.00  0.00    +0.059 S 
ATOM     24  C   UNL     1      -0.529   4.962  25.040  0.00  0.00    +0.197 C 
ATOM     25  O   UNL     1      -1.629   5.156  24.702  0.00  0.00    -0.156 OA
ATOM     26  O   UNL     1      -0.819   3.880  25.362  0.00  0.00    -0.156 OA
ENDBRANCH  22  23
ENDBRANCH  21  22
ENDBRANCH  20  21
ENDBRANCH  17  18
ENDBRANCH  15  17
TORSDOF 7
ENDMDL
MODEL 2
REMARK VINA RESULT:      -9.5      2.141      6.034
REMARK  Name = 
REMARK  7 active torsions:
REMARK  status: ('A' for Active; 'I' for Inactive)
REMARK    1  A    between atoms: O_2  and  C_3
REMARK    2  A    between atoms: C_8  and  N_9
REMARK    3  A    between atoms: C_15  and  C_17
REMARK    4  A    between atoms: C_17  and  C_18
REMARK    5  A    between atoms: C_20  and  C_21
REMARK    6  A    between atoms: C_21  and  N_22
REMARK    7  A    between atoms: N_22  and  S_23
REMARK                            x       y       z     vdW  Elec       q    Type
REMARK                         _______ _______ _______ _____ _____    ______ ____
ROOT
ATOM      9  N   UNL     1      -1.222   2.962  24.793  0.00  0.00    -0.302 N 
ATOM     10  C   UNL     1      -1.158   2.431  25.421  0.00  0.00    +0.112 C 
ATOM     11  C   UNL     1      -1.024   1.631  25.273  0.00  0.00    +0.115 C 
ATOM     12  N   UNL     1      -0.953   1.361  24.496  0.00  0.00    -0.276 N 
ATOM     13  C   UNL     1      -1.017   1.892  23.868  0.00  0.00    +0.115 C 
ATOM     14  C   UNL     1      -1.151   2.693  24.017  0.00  0.00    +0.112 C 
ATOM     15  C   UNL     1      -0.819   0.561  24.347  0.00  0.00    +0.228 C 
ATOM     16  O   UNL     1      -0.748   0.292  23.571  0.00  0.00    -0.275 OA
ENDROOT
BRANCH   9   8
ATOM      3  C   UNL     1      -2.116   4.027  25.122  0.00  0.00    +0.152 A 
ATOM      4  C   UNL     1      -2.250   4.827  25.271  0.00  0.00    +0.038 A 
ATOM      5  C   UNL     1      -1.625   5.363  25.238  0.00  0.00    +0.003 A 
ATOM      6  C   UNL     1      -0.864   5.099  25.057  0.00  0.00    +0.001 A 
ATOM      7  C   UNL     1      -0.730   4.299  24.909  0.00  0.00    +0.018 A 
ATOM      8  C   UNL     1      -1.356   3.762  24.941  0.00  0.00    +0.082 A 
BRANCH   3   2
ATOM      1  C   UNL     1      -3.507   3.757  25.313  0.00  0.00    +0.253 C 
ATOM      2  O   UNL     1      -2.742   3.490  25.155  0.00  0.00    -0.470 OA
ENDBRANCH   3   2
ENDBRANCH   9   8
BRANCH  15  17
ATOM     17  C   UNL     1      -0.755   0.030  24.976  0.00  0.00    +0.117 C 
BRANCH  17  18
ATOM     18  C   UNL     1      -1.084  -0.724  24.914  0.00  0.00    +0.157 C 
ATOM     19  O   UNL     1      -1.844  -0.901  24.648  0.00  0.00    -0.351 OA
ATOM     20  C   UNL     1      -1.941  -1.720  24.676  0.00  0.00    +0.167 C 
ATOM     27  C   UNL     1      -1.240  -2.049  24.959  0.00  0.00    +0.213 C 
ATOM     28  O   UNL     1      -1.094  -2.852  25.075  0.00  0.00    -0.218 OA
ATOM     29  C   UNL     1      -0.710  -1.433  25.106  0.00  0.00    +0.212 C 
ATOM     30  O   UNL     1       0.059  -1.514  25.394  0.00  0.00    -0.218 OA
BRANCH  20  21
ATOM     21  C   UNL     1      -2.619  -2.136  24.460  0.00  0.00    +0.147 C 
BRANCH  21  22
ATOM     22  N   UNL     1      -3.348  -1.751  24.433  0.00  0.00    -0.079 NA
BRANCH  22  23
ATOM     23  S   UNL     1      -3.993  -2.111  24.064  0.00  0.00    +0.059 S 
ATOM     24  C   UNL     1      -4.637  -2.471  23.695  0.00  0.00    +0.197 C 
ATOM     25  O   UNL     1      -3.931  -2.751  24.582  0.00  0.00    -0.156 OA
ATOM     26  O   UNL     1      -4.054  -1.471  23.547  0.00  0.00    -0.156 OA
ENDBRANCH  22  23
ENDBRANCH  21  22
ENDBRANCH  20  21
ENDBRANCH  17  18
ENDBRANCH  15  17
TORSDOF 7
ENDMDL
MODEL 3
REMARK VINA RESULT:      -8.8      1.677      2.875
REMARK  Name = 
REMARK  7 active torsions:
REMARK  status: ('A' for Active; 'I' for Inactive)
REMARK    1  A    between atoms: O_2  and  C_3
REMARK    2  A    between atoms: C_8  and  N_9
REMARK    3  A    between atoms: C_15  and  C_17
REMARK    4  A    between atoms: C_17  and  C_18
REMARK    5  A    between atoms: C_20  and  C_21
REMARK    6  A    between atoms: C_21  and  N_22
REMARK    7  A    between atoms: N_22  and  S_23
REMARK                            x       y       z     vdW  Elec       q    Type
REMARK                         _______ _______ _______ _____ _____    ______ ____
ROOT
ATOM      9  N   UNL     1      -1.549  -0.592  24.922  0.00  0.00    -0.302 N 
ATOM     10  C   UNL     1      -1.567   0.001  24.350  0.00  0.00    +0.112 C 
ATOM     11  C   UNL     1      -1.324   0.766  24.542  0.00  0.00    +0.115 C 
ATOM     12  N   UNL     1      -1.064   0.937  25.306  0.00  0.00    -0.276 N 
ATOM     13  C   UNL     1      -1.047   0.343  25.878  0.00  0.00    +0.115 C 
ATOM     14  C   UNL     1      -1.290  -0.422  25.686  0.00  0.00    +0.112 C 
ATOM     15  C   UNL     1      -0.821   1.702  25.498  0.00  0.00    +0.228 C 
ATOM     16  O   UNL     1      -0.561   1.872  26.262  0.00  0.00    -0.275 OA
ENDROOT
BRANCH   9   8
ATOM      3  C   UNL     1      -2.594  -1.552  24.745  0.00  0.00    +0.152 A 
ATOM      4  C   UNL     1      -2.836  -2.317  24.553  0.00  0.00    +0.038 A 
ATOM      5  C   UNL     1      -2.278  -2.887  24.346  0.00  0.00    +0.003 A 
ATOM      6  C   UNL     1      -1.476  -2.693  24.331  0.00  0.00    +0.001 A 
ATOM      7  C   UNL     1      -1.233  -1.928  24.523  0.00  0.00    +0.018 A 
ATOM      8  C   UNL     1      -1.792  -1.357  24.730  0.00  0.00    +0.082 A 
BRANCH   3   2
ATOM      1  C   UNL     1      -3.955  -1.172  24.955  0.00  0.00    +0.253 C 
ATOM      2  O   UNL     1      -3.152  -0.981  24.952  0.00  0.00    -0.470 OA
ENDBRANCH   3   2
ENDBRANCH   9   8
BRANCH  15  17
ATOM     17  C   UNL     1      -0.839   2.296  24.926  0.00  0.00    +0.117 C 
BRANCH  17  18
ATOM     18  C   UNL     1      -1.322   2.956  25.031  0.00  0.00    +0.157 C 
ATOM     19  O   UNL     1      -2.137   2.945  25.160  0.00  0.00    -0.351 OA
ATOM     20  C   UNL     1      -2.394   3.726  25.235  0.00  0.00    +0.167 C 
ATOM     27  C   UNL     1      -1.739   4.218  25.153  0.00  0.00    +0.213 C 
ATOM     28  O   UNL     1      -1.744   5.042  25.191  0.00  0.00    -0.218 OA
ATOM     29  C   UNL     1      -1.076   3.743  25.027  0.00  0.00    +0.212 C 
ATOM     30  O   UNL     1      -0.302   4.008  24.917  0.00  0.00    -0.218 OA
BRANCH  20  21
ATOM     21  C   UNL     1      -3.170   3.969  25.369  0.00  0.00    +0.147 C 
BRANCH  21  22
ATOM     22  N   UNL     1      -3.787   3.423  25.328  0.00  0.00    -0.079 NA
BRANCH  22  23
ATOM     23  S   UNL     1      -4.566   3.670  25.443  0.00  0.00    +0.059 S 
ATOM     24  C   UNL     1      -5.345   3.916  25.557  0.00  0.00    +0.197 C 
ATOM     25  O   UNL     1      -4.628   3.844  24.639  0.00  0.00    -0.156 OA
ATOM     26  O   UNL     1      -4.503   3.495  26.246  0.00  0.00    -0.156 OA
ENDBRANCH  22  23
ENDBRANCH  21  22
ENDBRANCH  20  21
ENDBRANCH  17  18
ENDBRANCH  15  17
TORSDOF 7
ENDMDL
MODEL 4
REMARK VINA RESULT:      -8.2      2.357      5.308
REMARK  Name = 
REMARK  7 active torsions:
REMARK  status: ('A' for Active; 'I' for Inactive)
REMARK    1  A    between atoms: O_2  and  C_3
REMARK    2  A    between atoms: C_8  and  N_9
REMARK    3  A    between atoms: C_15  and  C_17
REMARK    4  A    between atoms: C_17  and  C_18
REMARK    5  A    between atoms: C_20  and  C_21
REMARK    6  A    between atoms: C_21  and  N_22
REMARK    7  A    between atoms: N_22  and  S_23
REMARK                            x       y       z     vdW  Elec       q    Type
REMARK                         _______ _______ _______ _____ _____    ______ ____
ROOT
ATOM      9  N   UNL     1      -3.769   2.828  24.634  0.00  0.00    -0.302 N 
ATOM     10  C   UNL     1      -3.106   2.644  25.091  0.00  0.00    +0.112 C 
ATOM     11  C   UNL     1      -2.442   2.308  24.735  0.00  0.00    +0.115 C 
ATOM     12  N   UNL     1      -2.440   2.157  23.924  0.00  0.00    -0.276 N 
ATOM     13  C   UNL     1      -3.102   2.342  23.469  0.00  0.00    +0.115 C 
ATOM     14  C   UNL     1      -3.767   2.677  23.824  0.00  0.00    +0.112 C 
ATOM     15  C   UNL     1      -1.775   1.821  23.569  0.00  0.00    +0.228 C 
ATOM     16  O   UNL     1      -1.773   1.670  22.758  0.00  0.00    -0.275 OA
ENDROOT
BRANCH   9   8
ATOM      3  C   UNL     1      -5.052   2.683  25.246  0.00  0.00    +0.152 A 
ATOM      4  C   UNL     1      -5.717   3.019  25.601  0.00  0.00    +0.038 A 
ATOM      5  C   UNL     1      -5.762   3.836  25.700  0.00  0.00    +0.003 A 
ATOM      6  C   UNL     1      -5.144   4.319  25.444  0.00  0.00    +0.001 A 
ATOM      7  C   UNL     1      -4.479   3.983  25.089  0.00  0.00    +0.018 A 
ATOM      8  C   UNL     1      -4.433   3.164  24.989  0.00  0.00    +0.082 A 
BRANCH   3   2
ATOM      1  C   UNL     1      -5.631   1.385  25.391  0.00  0.00    +0.253 C 
ATOM      2  O   UNL     1      -5.006   1.866  25.146  0.00  0.00    -0.470 OA
ENDBRANCH   3   2
ENDBRANCH   9   8
BRANCH  15  17
ATOM     17  C   UNL     1      -1.113   1.636  24.025  0.00  0.00    +0.117 C 
BRANCH  17  18
ATOM     18  C   UNL     1      -0.812   0.868  24.023  0.00  0.00    +0.157 C 
ATOM     19  O   UNL     1      -1.241   0.179  24.168  0.00  0.00    -0.351 OA
ATOM     20  C   UNL     1      -0.724  -0.462  24.110  0.00  0.00    +0.167 C 
ATOM     27  C   UNL     1       0.025  -0.168  23.929  0.00  0.00    +0.213 C 
ATOM     28  O   UNL     1       0.708  -0.617  23.821  0.00  0.00    -0.218 OA
ATOM     29  C   UNL     1      -0.030   0.654  23.875  0.00  0.00    +0.212 C 
ATOM     30  O   UNL     1       0.590   1.170  23.703  0.00  0.00    -0.218 OA
BRANCH  20  21
ATOM     21  C   UNL     1      -0.921  -1.255  24.215  0.00  0.00    +0.147 C 
BRANCH  21  22
ATOM     22  N   UNL     1      -1.624  -1.459  24.597  0.00  0.00    -0.079 NA
BRANCH  22  23
ATOM     23  S   UNL     1      -1.910  -2.232  24.553  0.00  0.00    +0.059 S 
ATOM     24  C   UNL     1      -2.195  -3.004  24.508  0.00  0.00    +0.197 C 
ATOM     25  O   UNL     1      -2.550  -1.968  24.105  0.00  0.00    -0.156 OA
ATOM     26  O   UNL     1      -1.269  -2.494  25.000  0.00  0.00    -0.156 OA
ENDBRANCH  22  23
ENDBRANCH  21  22
ENDBRANCH  20  21
ENDBRANCH  17  18
ENDBRANCH  15  17
TORSDOF 7
ENDMDL
MODEL 5
REMARK VINA RESULT:      -7.8      1.777      4.966
REMARK  Name = 
REMARK  7 active torsions:
REMARK  status: ('A' for Active; 'I' for Inactive)
REMARK    1  A    between atoms: O_2  and  C_3
REMARK    2  A    between atoms: C_8  and  N_9
REMARK    3  A    between atoms: C_15  and  C_17
REMARK    4  A    between atoms: C_17  and  C_18
REMARK    5  A    between atoms: C_20  and  C_21
REMARK    6  A    between atoms: C_21  and  N_22
REMARK    7  A    between atoms: N_22  and  S_23
REMARK                            x       y       z     vdW  Elec       q    Type
REMARK                         _______ _______ _______ _____ _____    ______ ____
ROOT
ATOM      9  N   UNL     1      -4.610   1.880  24.955  0.00  0.00    -0.302 N 
ATOM     10  C   UNL     1      -4.313   1.353  25.515  0.00  0.00    +0.112 C 
ATOM     11  C   UNL     1      -4.048   0.608  25.279  0.00  0.00    +0.115 C 
ATOM     12  N   UNL     1      -4.080   0.391  24.483  0.00  0.00    -0.276 N 
ATOM     13  C   UNL     1      -4.378   0.919  23.924  0.00  0.00    +0.115 C 
ATOM     14  C   UNL     1      -4.643   1.664  24.160  0.00  0.00    +0.112 C 
ATOM     15  C   UNL     1      -3.815  -0.354  24.247  0.00  0.00    +0.228 C 
ATOM     16  O   UNL     1      -3.847  -0.570  23.453  0.00  0.00    -0.275 OA
ENDROOT
BRANCH   9   8
ATOM      3  C   UNL     1      -4.358   3.268  25.187  0.00  0.00    +0.152 A 
ATOM      4  C   UNL     1      -4.624   4.013  25.423  0.00  0.00    +0.038 A 
ATOM      5  C   UNL     1      -5.406   4.115  25.662  0.00  0.00    +0.003 A 
ATOM      6  C   UNL     1      -5.924   3.473  25.666  0.00  0.00    +0.001 A 
ATOM      7  C   UNL     1      -5.659   2.728  25.430  0.00  0.00    +0.018 A 
ATOM      8  C   UNL     1      -4.876   2.625  25.190  0.00  0.00    +0.082 A 
BRANCH   3   2
ATOM      1  C   UNL     1      -3.053   3.804  24.961  0.00  0.00    +0.253 C 
ATOM      2  O   UNL     1      -3.576   3.165  24.948  0.00  0.00    -0.470 OA
ENDBRANCH   3   2
ENDBRANCH   9   8
BRANCH  15  17
ATOM     17  C   UNL     1      -3.517  -0.882  24.808  0.00  0.00    +0.117 C 
BRANCH  17  18
ATOM     18  C   UNL     1      -2.777  -1.228  24.695  0.00  0.00    +0.157 C 
ATOM     19  O   UNL     1      -2.093  -0.839  24.447  0.00  0.00    -0.351 OA
ATOM     20  C   UNL     1      -1.483  -1.394  24.410  0.00  0.00    +0.167 C 
ATOM     27  C   UNL     1      -1.790  -2.125  24.636  0.00  0.00    +0.213 C 
ATOM     28  O   UNL     1      -1.372  -2.835  24.678  0.00  0.00    -0.218 OA
ATOM     29  C   UNL     1      -2.590  -2.022  24.812  0.00  0.00    +0.212 C 
ATOM     30  O   UNL     1      -3.111  -2.611  25.062  0.00  0.00    -0.218 OA
BRANCH  20  21
ATOM     21  C   UNL     1      -0.704  -1.244  24.186  0.00  0.00    +0.147 C 
BRANCH  21  22
ATOM     22  N   UNL     1      -0.430  -0.467  24.140  0.00  0.00    -0.079 NA
BRANCH  22  23
ATOM     23  S   UNL     1       0.239  -0.290  23.690  0.00  0.00    +0.059 S 
ATOM     24  C   UNL     1       0.908  -0.114  23.241  0.00  0.00    +0.197 C 
ATOM     25  O   UNL     1      -0.180   0.305  23.301  0.00  0.00    -0.156 OA
ATOM     26  O   UNL     1       0.657  -0.885  24.079  0.00  0.00    -0.156 OA
ENDBRANCH  22  23
ENDBRANCH  21  22
ENDBRANCH  20  21
ENDBRANCH  17  18
ENDBRANCH  15  17
TORSDOF 7
ENDMDL
