MODEL 1
REMARK VINA RESULT:     -12.7      0.000      0.000
REMARK  Name = 
REMARK  7 active torsions:
REMARK  status: ('A' for Active; 'I' for Inactive)
REMARK    1  A    between atoms: C_5  and  S_8
REMARK    2  A    between atoms: S_8  and  N_11
REMARK    3  A    between atoms: N_11  and  C_12
REMARK    4  A    between atoms: C_12  and  C_13
REMARK    5  A    between atoms: C_15  and  C_16
REMARK    6  A    between atoms: C_16  and  C_17
REMARK    7  A    between atoms: N_22  and  C_25
REMARK                            x       y       z     vdW  Elec       q    Type
REMARK                         _______ _______ _______ _____ _____    ______ ____
ROOT
ATOM     13  C   UNL     1      -1.710   3.491  25.007  0.00  0.00    +0.167 C 
ATOM     14  O   UNL     1      -1.624   2.671  25.014  0.00  0.00    -0.351 OA
ATOM     15  C   UNL     1      -0.838   2.495  24.834  0.00  0.00    +0.157 C 
ATOM     32  C   UNL     1      -0.438   3.207  24.716  0.00  0.00    +0.212 C 
ATOM     33  O   UNL     1       0.360   3.289  24.526  0.00  0.00    -0.218 OA
ATOM     34  C   UNL     1      -0.977   3.823  24.823  0.00  0.00    +0.213 C 
ATOM     35  O   UNL     1      -0.812   4.628  24.757  0.00  0.00    -0.218 OA
ENDROOT
BRANCH  13  12
ATOM     12  C   UNL     1      -2.407   3.907  25.157  0.00  0.00    +0.148 C 
BRANCH  12  11
ATOM     11  N   UNL     1      -3.028   3.881  24.616  0.00  0.00    -0.075 NA
BRANCH  11   8
ATOM      8  S   UNL     1      -3.735   3.507  24.817  0.00  0.00    +0.077 S 
ATOM      9  O   UNL     1      -3.680   3.815  25.581  0.00  0.00    -0.152 OA
ATOM     10  O   UNL     1      -3.790   3.200  24.053  0.00  0.00    -0.152 OA
BRANCH   8   5
ATOM      1  C   UNL     1      -6.564   2.012  25.622  0.00  0.00    +0.031 C 
ATOM      2  C   UNL     1      -5.858   2.385  25.421  0.00  0.00    -0.022 A 
ATOM      3  C   UNL     1      -5.306   1.997  24.946  0.00  0.00    -0.003 A 
ATOM      4  C   UNL     1      -4.599   2.371  24.745  0.00  0.00    +0.020 A 
ATOM      5  C   UNL     1      -4.443   3.133  25.018  0.00  0.00    +0.124 A 
ATOM      6  C   UNL     1      -4.995   3.522  25.493  0.00  0.00    +0.020 A 
ATOM      7  C   UNL     1      -5.702   3.149  25.694  0.00  0.00    -0.003 A 
ENDBRANCH   8   5
ENDBRANCH  11   8
ENDBRANCH  12  11
ENDBRANCH  13  12
BRANCH  15  16
ATOM     16  C   UNL     1      -0.510   1.740  24.782  0.00  0.00    +0.117 C 
BRANCH  16  17
ATOM     17  C   UNL     1      -0.665   1.180  25.369  0.00  0.00    +0.228 C 
ATOM     18  O   UNL     1      -0.353   1.280  26.126  0.00  0.00    -0.275 OA
ATOM     19  N   UNL     1      -1.132   0.522  25.199  0.00  0.00    -0.276 N 
ATOM     20  C   UNL     1      -1.287  -0.037  25.785  0.00  0.00    +0.115 C 
ATOM     21  C   UNL     1      -1.754  -0.695  25.615  0.00  0.00    +0.112 C 
ATOM     22  N   UNL     1      -2.067  -0.795  24.858  0.00  0.00    -0.304 N 
ATOM     23  C   UNL     1      -1.912  -0.235  24.271  0.00  0.00    +0.112 C 
ATOM     24  C   UNL     1      -1.445   0.423  24.441  0.00  0.00    +0.115 C 
BRANCH  22  25
ATOM     25  C   UNL     1      -2.534  -1.453  24.687  0.00  0.00    +0.048 A 
ATOM     26  C   UNL     1      -2.190  -2.200  24.637  0.00  0.00    +0.017 A 
ATOM     27  C   UNL     1      -2.658  -2.859  24.466  0.00  0.00    +0.031 A 
ATOM     28  C   UNL     1      -3.469  -2.768  24.347  0.00  0.00    +0.140 A 
ATOM     29  F   UNL     1      -3.937  -3.427  24.177  0.00  0.00    -0.204 F 
ATOM     30  C   UNL     1      -3.813  -2.021  24.398  0.00  0.00    +0.031 A 
ATOM     31  C   UNL     1      -3.346  -1.362  24.568  0.00  0.00    +0.017 A 
ENDBRANCH  22  25
ENDBRANCH  16  17
ENDBRANCH  15  16
TORSDOF 7
ENDMDL
MODEL 2
REMARK VINA RESULT:     -12.5      1.603      3.760
REMARK  Name = 
REMARK  7 active torsions:
REMARK  status: ('A' for Active; 'I' for Inactive)
REMARK    1  A    between atoms: C_5  and  S_8
REMARK    2  A    between atoms: S_8  and  N_11
REMARK    3  A    between atoms: N_11  and  C_12
REMARK    4  A    between atoms: C_12  and  C_13
REMARK    5  A    between atoms: C_15  and  C_16
REMARK    6  A    between atoms: C_16  and  C_17
REMARK    7  A    between atoms: N_22  and  C_25
REMARK                            x       y       z     vdW  Elec       q    Type
REMARK                         _______ _______ _______ _____ _____    ______ ____
ROOT
ATOM     13  C   UNL     1      -4.729   3.113  25.547  0.00  0.00    +0.167 C 
ATOM     14  O   UNL     1      -4.522   2.337  25.360  0.00  0.00    -0.351 OA
ATOM     15  C   UNL     1      -5.186   1.861  25.474  0.00  0.00    +0.157 C 
ATOM     32  C   UNL     1      -5.804   2.342  25.732  0.00  0.00    +0.212 C 
ATOM     33  O   UNL     1      -6.569   2.094  25.914  0.00  0.00    -0.218 OA
ATOM     34  C   UNL     1      -5.522   3.117  25.777  0.00  0.00    +0.213 C 
ATOM     35  O   UNL     1      -5.956   3.778  26.011  0.00  0.00    -0.218 OA
ENDROOT
BRANCH  13  12
ATOM     12  C   UNL     1      -4.232   3.771  25.510  0.00  0.00    +0.148 C 
BRANCH  12  11
ATOM     11  N   UNL     1      -3.567   3.813  25.996  0.00  0.00    -0.075 NA
BRANCH  11   8
ATOM      8  S   UNL     1      -2.851   4.085  25.692  0.00  0.00    +0.077 S 
ATOM      9  O   UNL     1      -2.456   3.778  26.349  0.00  0.00    -0.152 OA
ATOM     10  O   UNL     1      -3.246   4.392  25.036  0.00  0.00    -0.152 OA
BRANCH   8   5
ATOM      1  C   UNL     1       0.016   5.175  24.476  0.00  0.00    +0.031 C 
ATOM      2  C   UNL     1      -0.700   4.903  24.779  0.00  0.00    -0.022 A 
ATOM      3  C   UNL     1      -1.290   5.439  24.989  0.00  0.00    -0.003 A 
ATOM      4  C   UNL     1      -2.007   5.167  25.293  0.00  0.00    +0.020 A 
ATOM      5  C   UNL     1      -2.133   4.358  25.388  0.00  0.00    +0.124 A 
ATOM      6  C   UNL     1      -1.544   3.820  25.178  0.00  0.00    +0.020 A 
ATOM      7  C   UNL     1      -0.827   4.092  24.874  0.00  0.00    -0.003 A 
ENDBRANCH   8   5
ENDBRANCH  11   8
ENDBRANCH  12  11
ENDBRANCH  13  12
BRANCH  15  16
ATOM     16  C   UNL     1      -5.224   1.046  25.352  0.00  0.00    +0.117 C 
BRANCH  16  17
ATOM     17  C   UNL     1      -4.928   0.718  24.655  0.00  0.00    +0.228 C 
ATOM     18  O   UNL     1      -5.229   0.959  23.926  0.00  0.00    -0.275 OA
ATOM     19  N   UNL     1      -4.331   0.150  24.687  0.00  0.00    -0.276 N 
ATOM     20  C   UNL     1      -4.034  -0.177  23.991  0.00  0.00    +0.115 C 
ATOM     21  C   UNL     1      -3.437  -0.745  24.023  0.00  0.00    +0.112 C 
ATOM     22  N   UNL     1      -3.136  -0.986  24.753  0.00  0.00    -0.304 N 
ATOM     23  C   UNL     1      -3.432  -0.658  25.450  0.00  0.00    +0.112 C 
ATOM     24  C   UNL     1      -4.030  -0.090  25.417  0.00  0.00    +0.115 C 
BRANCH  22  25
ATOM     25  C   UNL     1      -2.539  -1.554  24.785  0.00  0.00    +0.048 A 
ATOM     26  C   UNL     1      -2.714  -2.346  24.638  0.00  0.00    +0.017 A 
ATOM     27  C   UNL     1      -2.116  -2.914  24.670  0.00  0.00    +0.031 A 
ATOM     28  C   UNL     1      -1.343  -2.689  24.850  0.00  0.00    +0.140 A 
ATOM     29  F   UNL     1      -0.745  -3.257  24.882  0.00  0.00    -0.204 F 
ATOM     30  C   UNL     1      -1.167  -1.897  24.997  0.00  0.00    +0.031 A 
ATOM     31  C   UNL     1      -1.765  -1.329  24.965  0.00  0.00    +0.017 A 
ENDBRANCH  22  25
ENDBRANCH  16  17
ENDBRANCH  15  16
TORSDOF 7
ENDMDL
MODEL 3
REMARK VINA RESULT:     -12.5      2.160      4.717
REMARK  Name = 
REMARK  7 active torsions:
REMARK  status: ('A' for Active; 'I' for Inactive)
REMARK    1  A    between atoms: C_5  and  S_8
REMARK    2  A    between atoms: S_8  and  N_11
REMARK    3  A    between atoms: N_11  and  C_12
REMARK    4  A    between atoms: C_12  and  C_13
REMARK    5  A    between atoms: C_15  and  C_16
REMARK    6  A    between atoms: C_16  and  C_17
REMARK    7  A    between atoms: N_22  and  C_25
REMARK                            x       y       z     vdW  Elec       q    Type
REMARK                         _______ _______ _______ _____ _____    ______ ____
ROOT
ATOM     13  C   UNL     1      -0.171   0.206  24.163  0.00  0.00    +0.167 C 
ATOM     14  O   UNL     1      -0.557   0.884  24.431  0.00  0.00    -0.351 OA
ATOM     15  C   UNL     1      -0.086   1.535  24.247  0.00  0.00    +0.157 C 
ATOM     32  C   UNL     1       0.592   1.260  23.865  0.00  0.00    +0.212 C 
ATOM     33  O   UNL     1       1.213   1.724  23.585  0.00  0.00    -0.218 OA
ATOM     34  C   UNL     1       0.539   0.438  23.814  0.00  0.00    +0.213 C 
ATOM     35  O   UNL     1       1.098  -0.063  23.473  0.00  0.00    -0.218 OA
ENDROOT
BRANCH  13  12
ATOM     12  C   UNL     1      -0.447  -0.569  24.233  0.00  0.00    +0.148 C 
BRANCH  12  11
ATOM     11  N   UNL     1      -0.939  -0.777  24.862  0.00  0.00    -0.075 NA
BRANCH  11   8
ATOM      8  S   UNL     1      -1.605  -1.243  24.727  0.00  0.00    +0.077 S 
ATOM      9  O   UNL     1      -2.049  -0.750  25.219  0.00  0.00    -0.152 OA
ATOM     10  O   UNL     1      -1.161  -1.736  24.236  0.00  0.00    -0.152 OA
BRANCH   8   5
ATOM      1  C   UNL     1      -4.273  -3.109  24.188  0.00  0.00    +0.031 C 
ATOM      2  C   UNL     1      -3.607  -2.643  24.322  0.00  0.00    -0.022 A 
ATOM      3  C   UNL     1      -2.881  -2.998  24.490  0.00  0.00    -0.003 A 
ATOM      4  C   UNL     1      -2.214  -2.532  24.625  0.00  0.00    +0.020 A 
ATOM      5  C   UNL     1      -2.273  -1.710  24.592  0.00  0.00    +0.124 A 
ATOM      6  C   UNL     1      -2.998  -1.354  24.424  0.00  0.00    +0.020 A 
ATOM      7  C   UNL     1      -3.665  -1.820  24.290  0.00  0.00    -0.003 A 
ENDBRANCH   8   5
ENDBRANCH  11   8
ENDBRANCH  12  11
ENDBRANCH  13  12
BRANCH  15  16
ATOM     16  C   UNL     1      -0.262   2.324  24.414  0.00  0.00    +0.117 C 
BRANCH  16  17
ATOM     17  C   UNL     1      -0.580   2.529  25.148  0.00  0.00    +0.228 C 
ATOM     18  O   UNL     1      -0.107   2.505  25.823  0.00  0.00    -0.275 OA
ATOM     19  N   UNL     1      -1.370   2.758  25.205  0.00  0.00    -0.276 N 
ATOM     20  C   UNL     1      -1.689   2.963  25.938  0.00  0.00    +0.115 C 
ATOM     21  C   UNL     1      -2.479   3.192  25.995  0.00  0.00    +0.112 C 
ATOM     22  N   UNL     1      -2.952   3.216  25.319  0.00  0.00    -0.304 N 
ATOM     23  C   UNL     1      -2.633   3.010  24.586  0.00  0.00    +0.112 C 
ATOM     24  C   UNL     1      -1.843   2.782  24.528  0.00  0.00    +0.115 C 
BRANCH  22  25
ATOM     25  C   UNL     1      -3.742   3.445  25.376  0.00  0.00    +0.048 A 
ATOM     26  C   UNL     1      -3.938   4.244  25.416  0.00  0.00    +0.017 A 
ATOM     27  C   UNL     1      -4.729   4.473  25.473  0.00  0.00    +0.031 A 
ATOM     28  C   UNL     1      -5.323   3.901  25.491  0.00  0.00    +0.140 A 
ATOM     29  F   UNL     1      -6.114   4.130  25.548  0.00  0.00    -0.204 F 
ATOM     30  C   UNL     1      -5.128   3.101  25.451  0.00  0.00    +0.031 A 
ATOM     31  C   UNL     1      -4.337   2.872  25.394  0.00  0.00    +0.017 A 
ENDBRANCH  22  25
ENDBRANCH  16  17
ENDBRANCH  15  16
TORSDOF 7
ENDMDL
MODEL 4
REMARK VINA RESULT:     -12.3      3.009      4.436
REMARK  Name = 
REMARK  7 active torsions:
REMARK  status: ('A' for Active; 'I' for Inactive)
REMARK    1  A    between atoms: C_5  and  S_8
REMARK    2  A    between atoms: S_8  and  N_11
REMARK    3  A    between atoms: N_11  and  C_12
REMARK    4  A    between atoms: C_12  and  C_13
REMARK    5  A    between atoms: C_15  and  C_16
REMARK    6  A    between atoms: C_16  and  C_17
REMARK    7  A    between atoms: N_22  and  C_25
REMARK                            x       y       z     vdW  Elec       q    Type
REMARK                         _______ _______ _______ _____ _____    ______ ____
ROOT
ATOM     13  C   UNL     1      -3.206  -0.616  24.984  0.00  0.00    +0.167 C 
ATOM     14  O   UNL     1      -2.472  -0.301  24.778  0.00  0.00    -0.351 OA
ATOM     15  C   UNL     1      -1.941  -0.927  24.692  0.00  0.00    +0.157 C 
ATOM     32  C   UNL     1      -2.347  -1.629  24.845  0.00  0.00    +0.212 C 
ATOM     33  O   UNL     1      -2.028  -2.389  24.822  0.00  0.00    -0.218 OA
ATOM     34  C   UNL     1      -3.129  -1.436  25.026  0.00  0.00    +0.213 C 
ATOM     35  O   UNL     1      -3.729  -1.970  25.215  0.00  0.00    -0.218 OA
ENDROOT
BRANCH  13  12
ATOM     12  C   UNL     1      -3.896  -0.186  25.124  0.00  0.00    +0.148 C 
BRANCH  12  11
ATOM     11  N   UNL     1      -4.180   0.337  24.552  0.00  0.00    -0.075 NA
BRANCH  11   8
ATOM      8  S   UNL     1      -4.511   1.057  24.780  0.00  0.00    +0.077 S 
ATOM      9  O   UNL     1      -4.201   1.414  24.102  0.00  0.00    -0.152 OA
ATOM     10  O   UNL     1      -4.820   0.701  25.456  0.00  0.00    -0.152 OA
BRANCH   8   5
ATOM      1  C   UNL     1      -5.836   3.939  25.690  0.00  0.00    +0.031 C 
ATOM      2  C   UNL     1      -5.505   3.219  25.463  0.00  0.00    -0.022 A 
ATOM      3  C   UNL     1      -4.707   3.178  25.258  0.00  0.00    -0.003 A 
ATOM      4  C   UNL     1      -4.376   2.458  25.030  0.00  0.00    +0.020 A 
ATOM      5  C   UNL     1      -4.842   1.778  25.007  0.00  0.00    +0.124 A 
ATOM      6  C   UNL     1      -5.641   1.819  25.212  0.00  0.00    +0.020 A 
ATOM      7  C   UNL     1      -5.972   2.539  25.440  0.00  0.00    -0.003 A 
ENDBRANCH   8   5
ENDBRANCH  11   8
ENDBRANCH  12  11
ENDBRANCH  13  12
BRANCH  15  16
ATOM     16  C   UNL     1      -1.144  -0.863  24.489  0.00  0.00    +0.117 C 
BRANCH  16  17
ATOM     17  C   UNL     1      -0.775  -0.124  24.495  0.00  0.00    +0.228 C 
ATOM     18  O   UNL     1      -1.119   0.505  24.904  0.00  0.00    -0.275 OA
ATOM     19  N   UNL     1      -0.063  -0.016  24.093  0.00  0.00    -0.276 N 
ATOM     20  C   UNL     1       0.305   0.722  24.099  0.00  0.00    +0.115 C 
ATOM     21  C   UNL     1       1.017   0.831  23.697  0.00  0.00    +0.112 C 
ATOM     22  N   UNL     1       1.361   0.202  23.288  0.00  0.00    -0.304 N 
ATOM     23  C   UNL     1       0.992  -0.537  23.283  0.00  0.00    +0.112 C 
ATOM     24  C   UNL     1       0.280  -0.645  23.685  0.00  0.00    +0.115 C 
BRANCH  22  25
ATOM     25  C   UNL     1       2.073   0.310  22.886  0.00  0.00    +0.048 A 
ATOM     26  C   UNL     1       2.672   0.765  23.224  0.00  0.00    +0.017 A 
ATOM     27  C   UNL     1       3.384   0.873  22.821  0.00  0.00    +0.031 A 
ATOM     28  C   UNL     1       3.496   0.527  22.081  0.00  0.00    +0.140 A 
ATOM     29  F   UNL     1       4.208   0.636  21.678  0.00  0.00    -0.204 F 
ATOM     30  C   UNL     1       2.897   0.072  21.743  0.00  0.00    +0.031 A 
ATOM     31  C   UNL     1       2.185  -0.036  22.146  0.00  0.00    +0.017 A 
ENDBRANCH  22  25
ENDBRANCH  16  17
ENDBRANCH  15  16
TORSDOF 7
ENDMDL
MODEL 5
REMARK VINA RESULT:     -12.2      3.072      6.053
REMARK  Name = 
REMARK  7 active torsions:
REMARK  status: ('A' for Active; 'I' for Inactive)
REMARK    1  A    between atoms: C_5  and  S_8
REMARK    2  A    between atoms: S_8  and  N_11
REMARK    3  A    between atoms: N_11  and  C_12
REMARK    4  A    between atoms: C_12  and  C_13
REMARK    5  A    between atoms: C_15  and  C_16
REMARK    6  A    between atoms: C_16  and  C_17
REMARK    7  A    between atoms: N_22  and  C_25
REMARK                            x       y       z     vdW  Elec       q    Type
REMARK                         _______ _______ _______ _____ _____    ______ ____
ROOT
ATOM     13  C   UNL     1      -0.764  -0.820  24.372  0.00  0.00    +0.167 C 
ATOM     14  O   UNL     1      -1.425  -0.339  24.264  0.00  0.00    -0.351 OA
ATOM     15  C   UNL     1      -2.073  -0.713  24.612  0.00  0.00    +0.157 C 
ATOM     32  C   UNL     1      -1.812  -1.425  24.936  0.00  0.00    +0.212 C 
ATOM     33  O   UNL     1      -2.277  -1.975  25.338  0.00  0.00    -0.218 OA
ATOM     34  C   UNL     1      -1.002  -1.492  24.788  0.00  0.00    +0.213 C 
ATOM     35  O   UNL     1      -0.518  -2.119  25.015  0.00  0.00    -0.218 OA
ENDROOT
BRANCH  13  12
ATOM     12  C   UNL     1       0.002  -0.658  24.111  0.00  0.00    +0.148 C 
BRANCH  12  11
ATOM     11  N   UNL     1       0.131  -0.067  23.550  0.00  0.00    -0.075 NA
BRANCH  11   8
ATOM      8  S   UNL     1       0.897   0.108  23.303  0.00  0.00    +0.077 S 
ATOM      9  O   UNL     1       0.838  -0.468  22.713  0.00  0.00    -0.152 OA
ATOM     10  O   UNL     1       0.956   0.682  23.892  0.00  0.00    -0.152 OA
BRANCH   8   5
ATOM      1  C   UNL     1       3.967   0.806  22.314  0.00  0.00    +0.031 C 
ATOM      2  C   UNL     1       3.200   0.632  22.561  0.00  0.00    -0.022 A 
ATOM      3  C   UNL     1       2.797  -0.009  22.233  0.00  0.00    -0.003 A 
ATOM      4  C   UNL     1       2.029  -0.183  22.481  0.00  0.00    +0.020 A 
ATOM      5  C   UNL     1       1.666   0.283  23.055  0.00  0.00    +0.124 A 
ATOM      6  C   UNL     1       2.068   0.924  23.384  0.00  0.00    +0.020 A 
ATOM      7  C   UNL     1       2.836   1.098  23.136  0.00  0.00    -0.003 A 
ENDBRANCH   8   5
ENDBRANCH  11   8
ENDBRANCH  12  11
ENDBRANCH  13  12
BRANCH  15  16
ATOM     16  C   UNL     1      -2.845  -0.425  24.633  0.00  0.00    +0.117 C 
BRANCH  16  17
ATOM     17  C   UNL     1      -3.092   0.136  24.080  0.00  0.00    +0.228 C 
ATOM     18  O   UNL     1      -2.904   0.039  23.283  0.00  0.00    -0.275 OA
ATOM     19  N   UNL     1      -3.526   0.793  24.325  0.00  0.00    -0.276 N 
ATOM     20  C   UNL     1      -3.773   1.353  23.772  0.00  0.00    +0.115 C 
ATOM     21  C   UNL     1      -4.207   2.011  24.016  0.00  0.00    +0.112 C 
ATOM     22  N   UNL     1      -4.396   2.108  24.814  0.00  0.00    -0.304 N 
ATOM     23  C   UNL     1      -4.149   1.547  25.367  0.00  0.00    +0.112 C 
ATOM     24  C   UNL     1      -3.714   0.890  25.123  0.00  0.00    +0.115 C 
BRANCH  22  25
ATOM     25  C   UNL     1      -4.830   2.765  25.058  0.00  0.00    +0.048 A 
ATOM     26  C   UNL     1      -4.511   3.521  24.984  0.00  0.00    +0.017 A 
ATOM     27  C   UNL     1      -4.946   4.179  25.229  0.00  0.00    +0.031 A 
ATOM     28  C   UNL     1      -5.700   4.078  25.547  0.00  0.00    +0.140 A 
ATOM     29  F   UNL     1      -6.135   4.736  25.792  0.00  0.00    -0.204 F 
ATOM     30  C   UNL     1      -6.020   3.322  25.622  0.00  0.00    +0.031 A 
ATOM     31  C   UNL     1      -5.585   2.665  25.377  0.00  0.00    +0.017 A 
ENDBRANCH  22  25
ENDBRANCH  16  17
ENDBRANCH  15  16
TORSDOF 7
ENDMDL
MODEL 6
REMARK VINA RESULT:     -11.9      2.210      4.134
REMARK  Name = 
REMARK  7 active torsions:
REMARK  status: ('A' for Active; 'I' for Inactive)
REMARK    1  A    between atoms: C_5  and  S_8
REMARK    2  A    between atoms: S_8  and  N_11
REMARK    3  A    between atoms: N_11  and  C_12
REMARK    4  A    between atoms: C_12  and  C_13
REMARK    5  A    between atoms: C_15  and  C_16
REMARK    6  A    between atoms: C_16  and  C_17
REMARK    7  A    between atoms: N_22  and  C_25
REMARK                            x       y       z     vdW  Elec       q    Type
REMARK                         _______ _______ _______ _____ _____    ______ ____
ROOT
ATOM     13  C   UNL     1      -3.947   1.958  24.799  0.00  0.00    +0.167 C 
ATOM     14  O   UNL     1      -3.127   2.034  24.748  0.00  0.00    -0.351 OA
ATOM     15  C   UNL     1      -2.946   2.839  24.726  0.00  0.00    +0.157 C 
ATOM     32  C   UNL     1      -3.654   3.261  24.763  0.00  0.00    +0.212 C 
ATOM     33  O   UNL     1      -3.730   4.082  24.757  0.00  0.00    -0.218 OA
ATOM     34  C   UNL     1      -4.273   2.717  24.808  0.00  0.00    +0.213 C 
ATOM     35  O   UNL     1      -5.076   2.899  24.854  0.00  0.00    -0.218 OA
ENDROOT
BRANCH  13  12
ATOM     12  C   UNL     1      -4.368   1.250  24.834  0.00  0.00    +0.148 C 
BRANCH  12  11
ATOM     11  N   UNL     1      -4.138   0.659  25.361  0.00  0.00    -0.075 NA
BRANCH  11   8
ATOM      8  S   UNL     1      -4.063  -0.120  25.101  0.00  0.00    +0.077 S 
ATOM      9  O   UNL     1      -3.329  -0.174  25.476  0.00  0.00    -0.152 OA
ATOM     10  O   UNL     1      -4.796  -0.066  24.727  0.00  0.00    -0.152 OA
BRANCH   8   5
ATOM      1  C   UNL     1      -3.760  -3.237  24.061  0.00  0.00    +0.031 C 
ATOM      2  C   UNL     1      -3.836  -2.459  24.321  0.00  0.00    -0.022 A 
ATOM      3  C   UNL     1      -4.228  -1.903  23.854  0.00  0.00    -0.003 A 
ATOM      4  C   UNL     1      -4.304  -1.124  24.114  0.00  0.00    +0.020 A 
ATOM      5  C   UNL     1      -3.987  -0.900  24.841  0.00  0.00    +0.124 A 
ATOM      6  C   UNL     1      -3.594  -1.454  25.309  0.00  0.00    +0.020 A 
ATOM      7  C   UNL     1      -3.519  -2.234  25.049  0.00  0.00    -0.003 A 
ENDBRANCH   8   5
ENDBRANCH  11   8
ENDBRANCH  12  11
ENDBRANCH  13  12
BRANCH  15  16
ATOM     16  C   UNL     1      -2.189   3.164  24.676  0.00  0.00    +0.117 C 
BRANCH  16  17
ATOM     17  C   UNL     1      -1.572   2.843  25.120  0.00  0.00    +0.228 C 
ATOM     18  O   UNL     1      -1.542   2.970  25.935  0.00  0.00    -0.275 OA
ATOM     19  N   UNL     1      -0.985   2.397  24.750  0.00  0.00    -0.276 N 
ATOM     20  C   UNL     1      -0.368   2.077  25.194  0.00  0.00    +0.115 C 
ATOM     21  C   UNL     1       0.218   1.631  24.824  0.00  0.00    +0.112 C 
ATOM     22  N   UNL     1       0.188   1.504  24.009  0.00  0.00    -0.304 N 
ATOM     23  C   UNL     1      -0.430   1.824  23.565  0.00  0.00    +0.112 C 
ATOM     24  C   UNL     1      -1.016   2.270  23.935  0.00  0.00    +0.115 C 
BRANCH  22  25
ATOM     25  C   UNL     1       0.774   1.057  23.639  0.00  0.00    +0.048 A 
ATOM     26  C   UNL     1       1.543   1.351  23.584  0.00  0.00    +0.017 A 
ATOM     27  C   UNL     1       2.130   0.903  23.213  0.00  0.00    +0.031 A 
ATOM     28  C   UNL     1       1.946   0.164  22.898  0.00  0.00    +0.140 A 
ATOM     29  F   UNL     1       2.533  -0.284  22.528  0.00  0.00    -0.204 F 
ATOM     30  C   UNL     1       1.178  -0.131  22.953  0.00  0.00    +0.031 A 
ATOM     31  C   UNL     1       0.591   0.317  23.324  0.00  0.00    +0.017 A 
ENDBRANCH  22  25
ENDBRANCH  16  17
ENDBRANCH  15  16
TORSDOF 7
ENDMDL
MODEL 7
REMARK VINA RESULT:     -10.6     15.930     17.787
REMARK  Name = 
REMARK  7 active torsions:
REMARK  status: ('A' for Active; 'I' for Inactive)
REMARK    1  A    between atoms: C_5  and  S_8
REMARK    2  A    between atoms: S_8  and  N_11
REMARK    3  A    between atoms: N_11  and  C_12
REMARK    4  A    between atoms: C_12  and  C_13
REMARK    5  A    between atoms: C_15  and  C_16
REMARK    6  A    between atoms: C_16  and  C_17
REMARK    7  A    between atoms: N_22  and  C_25
REMARK                            x       y       z     vdW  Elec       q    Type
REMARK                         _______ _______ _______ _____ _____    ______ ____
ROOT
ATOM     13  C   UNL     1      -4.856  -9.361   9.850  0.00  0.00    +0.167 C 
ATOM     14  O   UNL     1      -4.712  -9.816  10.523  0.00  0.00    -0.351 OA
ATOM     15  C   UNL     1      -3.896  -9.845  10.643  0.00  0.00    +0.157 C 
ATOM     32  C   UNL     1      -3.535  -9.408  10.043  0.00  0.00    +0.212 C 
ATOM     33  O   UNL     1      -2.725  -9.290   9.950  0.00  0.00    -0.218 OA
ATOM     34  C   UNL     1      -4.129  -9.109   9.553  0.00  0.00    +0.213 C 
ATOM     35  O   UNL     1      -4.015  -8.640   8.885  0.00  0.00    -0.218 OA
ENDROOT
BRANCH  13  12
ATOM     12  C   UNL     1      -5.597  -9.189   9.530  0.00  0.00    +0.148 C 
BRANCH  12  11
ATOM     11  N   UNL     1      -6.139  -8.740   9.960  0.00  0.00    -0.075 NA
BRANCH  11   8
ATOM      8  S   UNL     1      -6.895  -8.610   9.662  0.00  0.00    +0.077 S 
ATOM      9  O   UNL     1      -6.641  -7.897   9.330  0.00  0.00    -0.152 OA
ATOM     10  O   UNL     1      -7.149  -9.321   9.994  0.00  0.00    -0.152 OA
BRANCH   8   5
ATOM      1  C   UNL     1      -9.926  -8.086   8.467  0.00  0.00    +0.031 C 
ATOM      2  C   UNL     1      -9.169  -8.216   8.765  0.00  0.00    -0.022 A 
ATOM      3  C   UNL     1      -8.531  -7.779   8.479  0.00  0.00    -0.003 A 
ATOM      4  C   UNL     1      -7.774  -7.910   8.778  0.00  0.00    +0.020 A 
ATOM      5  C   UNL     1      -7.654  -8.478   9.363  0.00  0.00    +0.124 A 
ATOM      6  C   UNL     1      -8.292  -8.917   9.650  0.00  0.00    +0.020 A 
ATOM      7  C   UNL     1      -9.049  -8.786   9.351  0.00  0.00    -0.003 A 
ENDBRANCH   8   5
ENDBRANCH  11   8
ENDBRANCH  12  11
ENDBRANCH  13  12
BRANCH  15  16
ATOM     16  C   UNL     1      -3.510 -10.241  11.254  0.00  0.00    +0.117 C 
BRANCH  16  17
ATOM     17  C   UNL     1      -3.926 -10.460  11.932  0.00  0.00    +0.228 C 
ATOM     18  O   UNL     1      -4.731 -10.634  11.883  0.00  0.00    -0.275 OA
ATOM     19  N   UNL     1      -3.537 -10.506  12.658  0.00  0.00    -0.276 N 
ATOM     20  C   UNL     1      -3.953 -10.725  13.336  0.00  0.00    +0.115 C 
ATOM     21  C   UNL     1      -3.564 -10.771  14.062  0.00  0.00    +0.112 C 
ATOM     22  N   UNL     1      -2.759 -10.598  14.110  0.00  0.00    -0.304 N 
ATOM     23  C   UNL     1      -2.343 -10.378  13.432  0.00  0.00    +0.112 C 
ATOM     24  C   UNL     1      -2.731 -10.332  12.706  0.00  0.00    +0.115 C 
BRANCH  22  25
ATOM     25  C   UNL     1      -2.370 -10.643  14.836  0.00  0.00    +0.048 A 
ATOM     26  C   UNL     1      -1.547 -10.603  14.867  0.00  0.00    +0.017 A 
ATOM     27  C   UNL     1      -1.159 -10.649  15.594  0.00  0.00    +0.031 A 
ATOM     28  C   UNL     1      -1.594 -10.735  16.289  0.00  0.00    +0.140 A 
ATOM     29  F   UNL     1      -1.205 -10.781  17.016  0.00  0.00    -0.204 F 
ATOM     30  C   UNL     1      -2.417 -10.775  16.259  0.00  0.00    +0.031 A 
ATOM     31  C   UNL     1      -2.805 -10.730  15.532  0.00  0.00    +0.017 A 
ENDBRANCH  22  25
ENDBRANCH  16  17
ENDBRANCH  15  16
TORSDOF 7
ENDMDL
MODEL 8
REMARK VINA RESULT:     -10.0     14.330     16.796
REMARK  Name = 
REMARK  7 active torsions:
REMARK  status: ('A' for Active; 'I' for Inactive)
REMARK    1  A    between atoms: C_5  and  S_8
REMARK    2  A    between atoms: S_8  and  N_11
REMARK    3  A    between atoms: N_11  and  C_12
REMARK    4  A    between atoms: C_12  and  C_13
REMARK    5  A    between atoms: C_15  and  C_16
REMARK    6  A    between atoms: C_16  and  C_17
REMARK    7  A    between atoms: N_22  and  C_25
REMARK                            x       y       z     vdW  Elec       q    Type
REMARK                         _______ _______ _______ _____ _____    ______ ____
ROOT
ATOM     13  C   UNL     1      -8.108 -10.406  15.117  0.00  0.00    +0.167 C 
ATOM     14  O   UNL     1      -7.577 -10.268  14.501  0.00  0.00    -0.351 OA
ATOM     15  C   UNL     1      -7.978 -10.378  13.788  0.00  0.00    +0.157 C 
ATOM     32  C   UNL     1      -8.758 -10.583  13.964  0.00  0.00    +0.212 C 
ATOM     33  O   UNL     1      -9.353 -10.743  13.415  0.00  0.00    -0.218 OA
ATOM     34  C   UNL     1      -8.838 -10.601  14.785  0.00  0.00    +0.213 C 
ATOM     35  O   UNL     1      -9.527 -10.781  15.201  0.00  0.00    -0.218 OA
ENDROOT
BRANCH  13  12
ATOM     12  C   UNL     1      -7.939 -10.358  15.923  0.00  0.00    +0.148 C 
BRANCH  12  11
ATOM     11  N   UNL     1      -7.226 -10.029  16.176  0.00  0.00    -0.075 NA
BRANCH  11   8
ATOM      8  S   UNL     1      -6.954 -10.174  16.941  0.00  0.00    +0.077 S 
ATOM      9  O   UNL     1      -7.722 -10.083  17.231  0.00  0.00    -0.152 OA
ATOM     10  O   UNL     1      -6.187 -10.264  16.650  0.00  0.00    -0.152 OA
BRANCH   8   5
ATOM      1  C   UNL     1      -5.863 -10.754  20.001  0.00  0.00    +0.031 C 
ATOM      2  C   UNL     1      -6.136 -10.609  19.237  0.00  0.00    -0.022 A 
ATOM      3  C   UNL     1      -5.656 -10.781  18.588  0.00  0.00    -0.003 A 
ATOM      4  C   UNL     1      -5.929 -10.636  17.823  0.00  0.00    +0.020 A 
ATOM      5  C   UNL     1      -6.681 -10.319  17.707  0.00  0.00    +0.124 A 
ATOM      6  C   UNL     1      -7.161 -10.146  18.355  0.00  0.00    +0.020 A 
ATOM      7  C   UNL     1      -6.889 -10.291  19.120  0.00  0.00    -0.003 A 
ENDBRANCH   8   5
ENDBRANCH  11   8
ENDBRANCH  12  11
ENDBRANCH  13  12
BRANCH  15  16
ATOM     16  C   UNL     1      -7.657 -10.296  13.033  0.00  0.00    +0.117 C 
BRANCH  16  17
ATOM     17  C   UNL     1      -7.377  -9.562  12.780  0.00  0.00    +0.228 C 
ATOM     18  O   UNL     1      -7.793  -8.875  12.970  0.00  0.00    -0.275 OA
ATOM     19  N   UNL     1      -6.682  -9.514  12.339  0.00  0.00    -0.276 N 
ATOM     20  C   UNL     1      -6.403  -8.781  12.086  0.00  0.00    +0.115 C 
ATOM     21  C   UNL     1      -5.708  -8.733  11.645  0.00  0.00    +0.112 C 
ATOM     22  N   UNL     1      -5.292  -9.420  11.455  0.00  0.00    -0.304 N 
ATOM     23  C   UNL     1      -5.571 -10.154  11.708  0.00  0.00    +0.112 C 
ATOM     24  C   UNL     1      -6.266 -10.202  12.150  0.00  0.00    +0.115 C 
BRANCH  22  25
ATOM     25  C   UNL     1      -4.597  -9.372  11.014  0.00  0.00    +0.048 A 
ATOM     26  C   UNL     1      -4.577  -8.925  10.321  0.00  0.00    +0.017 A 
ATOM     27  C   UNL     1      -3.881  -8.878   9.880  0.00  0.00    +0.031 A 
ATOM     28  C   UNL     1      -3.206  -9.278  10.131  0.00  0.00    +0.140 A 
ATOM     29  F   UNL     1      -2.510  -9.231   9.690  0.00  0.00    -0.204 F 
ATOM     30  C   UNL     1      -3.224  -9.726  10.824  0.00  0.00    +0.031 A 
ATOM     31  C   UNL     1      -3.920  -9.773  11.265  0.00  0.00    +0.017 A 
ENDBRANCH  22  25
ENDBRANCH  16  17
ENDBRANCH  15  16
TORSDOF 7
ENDMDL
MODEL 9
REMARK VINA RESULT:      -9.8     15.293     17.356
REMARK  Name = 
REMARK  7 active torsions:
REMARK  status: ('A' for Active; 'I' for Inactive)
REMARK    1  A    between atoms: C_5  and  S_8
REMARK    2  A    between atoms: S_8  and  N_11
REMARK    3  A    between atoms: N_11  and  C_12
REMARK    4  A    between atoms: C_12  and  C_13
REMARK    5  A    between atoms: C_15  and  C_16
REMARK    6  A    between atoms: C_16  and  C_17
REMARK    7  A    between atoms: N_22  and  C_25
REMARK                            x       y       z     vdW  Elec       q    Type
REMARK                         _______ _______ _______ _____ _____    ______ ____
ROOT
ATOM     13  C   UNL     1      -9.154 -10.025  12.939  0.00  0.00    +0.167 C 
ATOM     14  O   UNL     1      -8.349  -9.992  12.759  0.00  0.00    -0.351 OA
ATOM     15  C   UNL     1      -8.249 -10.263  11.986  0.00  0.00    +0.157 C 
ATOM     32  C   UNL     1      -8.992 -10.464  11.688  0.00  0.00    +0.212 C 
ATOM     33  O   UNL     1      -9.148 -10.760  10.935  0.00  0.00    -0.218 OA
ATOM     34  C   UNL     1      -9.551 -10.317  12.277  0.00  0.00    +0.213 C 
ATOM     35  O   UNL     1     -10.364 -10.441  12.215  0.00  0.00    -0.218 OA
ENDROOT
BRANCH  13  12
ATOM     12  C   UNL     1      -9.500  -9.806  13.655  0.00  0.00    +0.148 C 
BRANCH  12  11
ATOM     11  N   UNL     1      -9.049  -9.430  14.234  0.00  0.00    -0.075 NA
BRANCH  11   8
ATOM      8  S   UNL     1      -9.383  -9.253  14.967  0.00  0.00    +0.077 S 
ATOM      9  O   UNL     1      -9.663  -8.537  14.666  0.00  0.00    -0.152 OA
ATOM     10  O   UNL     1      -9.103  -9.969  15.267  0.00  0.00    -0.152 OA
BRANCH   8   5
ATOM      1  C   UNL     1     -10.719  -8.545  17.900  0.00  0.00    +0.031 C 
ATOM      2  C   UNL     1     -10.385  -8.722  17.168  0.00  0.00    -0.022 A 
ATOM      3  C   UNL     1      -9.762  -8.267  16.877  0.00  0.00    -0.003 A 
ATOM      4  C   UNL     1      -9.428  -8.444  16.144  0.00  0.00    +0.020 A 
ATOM      5  C   UNL     1      -9.717  -9.076  15.701  0.00  0.00    +0.124 A 
ATOM      6  C   UNL     1     -10.341  -9.533  15.991  0.00  0.00    +0.020 A 
ATOM      7  C   UNL     1     -10.675  -9.356  16.724  0.00  0.00    -0.003 A 
ENDBRANCH   8   5
ENDBRANCH  11   8
ENDBRANCH  12  11
ENDBRANCH  13  12
BRANCH  15  16
ATOM     16  C   UNL     1      -7.532 -10.322  11.583  0.00  0.00    +0.117 C 
BRANCH  16  17
ATOM     17  C   UNL     1      -7.018  -9.677  11.558  0.00  0.00    +0.228 C 
ATOM     18  O   UNL     1      -7.319  -8.913  11.487  0.00  0.00    -0.275 OA
ATOM     19  N   UNL     1      -6.203  -9.797  11.603  0.00  0.00    -0.276 N 
ATOM     20  C   UNL     1      -5.689  -9.153  11.578  0.00  0.00    +0.115 C 
ATOM     21  C   UNL     1      -4.874  -9.273  11.623  0.00  0.00    +0.112 C 
ATOM     22  N   UNL     1      -4.573 -10.037  11.694  0.00  0.00    -0.304 N 
ATOM     23  C   UNL     1      -5.087 -10.682  11.719  0.00  0.00    +0.112 C 
ATOM     24  C   UNL     1      -5.902 -10.563  11.674  0.00  0.00    +0.115 C 
BRANCH  22  25
ATOM     25  C   UNL     1      -3.758 -10.157  11.739  0.00  0.00    +0.048 A 
ATOM     26  C   UNL     1      -3.284 -10.022  11.079  0.00  0.00    +0.017 A 
ATOM     27  C   UNL     1      -2.468 -10.142  11.125  0.00  0.00    +0.031 A 
ATOM     28  C   UNL     1      -2.129 -10.397  11.832  0.00  0.00    +0.140 A 
ATOM     29  F   UNL     1      -1.313 -10.517  11.878  0.00  0.00    -0.204 F 
ATOM     30  C   UNL     1      -2.602 -10.533  12.493  0.00  0.00    +0.031 A 
ATOM     31  C   UNL     1      -3.418 -10.413  12.447  0.00  0.00    +0.017 A 
ENDBRANCH  22  25
ENDBRANCH  16  17
ENDBRANCH  15  16
TORSDOF 7
ENDMDL
