MODEL 1
REMARK VINA RESULT:     -11.4      0.000      0.000
REMARK  Name = 
REMARK  6 active torsions:
REMARK  status: ('A' for Active; 'I' for Inactive)
REMARK    1  A    between atoms: C_1  and  N_2
REMARK    2  A    between atoms: C_1  and  C_25
REMARK    3  A    between atoms: C_6  and  C_7
REMARK    4  A    between atoms: C_9  and  C_12
REMARK    5  A    between atoms: C_15  and  O_16
REMARK    6  A    between atoms: O_16  and  C_17
REMARK                            x       y       z     vdW  Elec       q    Type
REMARK                         _______ _______ _______ _____ _____    ______ ____
ROOT
ATOM      7  C   UNL     1      -4.037   2.879  25.136  0.00  0.00    +0.251 A 
ATOM      8  N   UNL     1      -3.799   2.089  25.148  0.00  0.00    -0.190 NA
ATOM      9  C   UNL     1      -4.222   1.687  24.565  0.00  0.00    +0.205 A 
ATOM     10  N   UNL     1      -4.721   2.229  24.193  0.00  0.00    -0.056 NA
ATOM     11  O   UNL     1      -4.606   2.965  24.546  0.00  0.00    -0.336 OA
ENDROOT
BRANCH   9  12
ATOM     12  C   UNL     1      -4.158   0.884  24.385  0.00  0.00    +0.058 A 
ATOM     13  C   UNL     1      -4.652   0.338  24.757  0.00  0.00    +0.010 A 
ATOM     14  C   UNL     1      -4.588  -0.465  24.577  0.00  0.00    +0.058 A 
ATOM     15  C   UNL     1      -4.029  -0.721  24.026  0.00  0.00    +0.225 A 
ATOM     23  N   UNL     1      -3.535  -0.175  23.655  0.00  0.00    -0.210 NA
ATOM     24  C   UNL     1      -3.600   0.628  23.834  0.00  0.00    +0.105 A 
BRANCH  15  16
ATOM     16  O   UNL     1      -3.965  -1.524  23.847  0.00  0.00    -0.464 OA
BRANCH  16  17
ATOM     17  C   UNL     1      -3.433  -1.998  24.262  0.00  0.00    +0.168 C 
ATOM     18  C   UNL     1      -3.689  -2.427  24.919  0.00  0.00    +0.044 C 
ATOM     19  C   UNL     1      -3.157  -2.901  25.334  0.00  0.00    +0.004 C 
ATOM     20  C   UNL     1      -2.370  -2.947  25.094  0.00  0.00    +0.000 C 
ATOM     21  C   UNL     1      -2.114  -2.518  24.437  0.00  0.00    +0.004 C 
ATOM     22  C   UNL     1      -2.645  -2.044  24.021  0.00  0.00    +0.044 C 
ENDBRANCH  16  17
ENDBRANCH  15  16
ENDBRANCH   9  12
BRANCH   7   6
ATOM      2  N   UNL     1      -3.080   3.935  25.497  0.00  0.00    -0.263 NA
ATOM      3  C   UNL     1      -3.005   4.464  26.126  0.00  0.00    +0.073 C 
ATOM      4  C   UNL     1      -3.632   4.333  26.646  0.00  0.00    +0.019 C 
ATOM      5  C   UNL     1      -4.095   3.724  26.338  0.00  0.00    +0.027 C 
ATOM      6  C   UNL     1      -3.754   3.477  25.628  0.00  0.00    +0.138 C 
BRANCH   2   1
ATOM      1  C   UNL     1      -2.571   3.875  24.851  0.00  0.00    +0.101 C 
BRANCH   1  25
ATOM     25  C   UNL     1      -1.812   4.194  24.892  0.00  0.00    +0.013 A 
ATOM     26  C   UNL     1      -1.696   5.000  24.759  0.00  0.00    +0.000 A 
ATOM     27  C   UNL     1      -0.936   5.320  24.801  0.00  0.00    +0.020 A 
ATOM     28  C   UNL     1      -0.293   4.834  24.976  0.00  0.00    +0.099 A 
ATOM     29  N   UNL     1      -0.409   4.028  25.109  0.00  0.00    -0.243 NA
ATOM     30  C   UNL     1      -1.168   3.708  25.067  0.00  0.00    +0.096 A 
ENDBRANCH   1  25
ENDBRANCH   2   1
ENDBRANCH   7   6
TORSDOF 6
ENDMDL
MODEL 2
REMARK VINA RESULT:     -11.4      1.834      2.930
REMARK  Name = 
REMARK  6 active torsions:
REMARK  status: ('A' for Active; 'I' for Inactive)
REMARK    1  A    between atoms: C_1  and  N_2
REMARK    2  A    between atoms: C_1  and  C_25
REMARK    3  A    between atoms: C_6  and  C_7
REMARK    4  A    between atoms: C_9  and  C_12
REMARK    5  A    between atoms: C_15  and  O_16
REMARK    6  A    between atoms: O_16  and  C_17
REMARK                            x       y       z     vdW  Elec       q    Type
REMARK                         _______ _______ _______ _____ _____    ______ ____
ROOT
ATOM      7  C   UNL     1      -0.978   2.651  25.483  0.00  0.00    +0.251 A 
ATOM      8  N   UNL     1      -1.316   1.946  25.219  0.00  0.00    -0.190 NA
ATOM      9  C   UNL     1      -0.850   1.323  25.490  0.00  0.00    +0.205 A 
ATOM     10  N   UNL     1      -0.224   1.641  25.921  0.00  0.00    -0.056 NA
ATOM     11  O   UNL     1      -0.303   2.463  25.917  0.00  0.00    -0.336 OA
ENDROOT
BRANCH   9  12
ATOM     12  C   UNL     1      -0.986   0.520  25.353  0.00  0.00    +0.058 A 
ATOM     13  C   UNL     1      -1.128   0.013  25.988  0.00  0.00    +0.010 A 
ATOM     14  C   UNL     1      -1.265  -0.790  25.851  0.00  0.00    +0.058 A 
ATOM     15  C   UNL     1      -1.258  -1.084  25.080  0.00  0.00    +0.225 A 
ATOM     23  N   UNL     1      -1.116  -0.577  24.446  0.00  0.00    -0.210 NA
ATOM     24  C   UNL     1      -0.980   0.226  24.583  0.00  0.00    +0.105 A 
BRANCH  15  16
ATOM     16  O   UNL     1      -1.395  -1.887  24.944  0.00  0.00    -0.464 OA
BRANCH  16  17
ATOM     17  C   UNL     1      -2.161  -2.157  24.803  0.00  0.00    +0.168 C 
ATOM     18  C   UNL     1      -2.693  -2.231  25.428  0.00  0.00    +0.044 C 
ATOM     19  C   UNL     1      -3.460  -2.501  25.287  0.00  0.00    +0.004 C 
ATOM     20  C   UNL     1      -3.694  -2.697  24.521  0.00  0.00    +0.000 C 
ATOM     21  C   UNL     1      -3.162  -2.622  23.895  0.00  0.00    +0.004 C 
ATOM     22  C   UNL     1      -2.395  -2.352  24.036  0.00  0.00    +0.044 C 
ENDBRANCH  16  17
ENDBRANCH  15  16
ENDBRANCH   9  12
BRANCH   7   6
ATOM      2  N   UNL     1      -2.045   3.661  25.434  0.00  0.00    -0.263 NA
ATOM      3  C   UNL     1      -2.085   4.458  25.227  0.00  0.00    +0.073 C 
ATOM      4  C   UNL     1      -1.329   4.701  25.003  0.00  0.00    +0.019 C 
ATOM      5  C   UNL     1      -0.822   4.054  25.072  0.00  0.00    +0.027 C 
ATOM      6  C   UNL     1      -1.265   3.411  25.338  0.00  0.00    +0.138 C 
BRANCH   2   1
ATOM      1  C   UNL     1      -2.676   3.195  25.692  0.00  0.00    +0.101 C 
BRANCH   1  25
ATOM     25  C   UNL     1      -3.450   3.421  25.525  0.00  0.00    +0.013 A 
ATOM     26  C   UNL     1      -3.792   3.217  24.802  0.00  0.00    +0.000 A 
ATOM     27  C   UNL     1      -4.568   3.443  24.633  0.00  0.00    +0.020 A 
ATOM     28  C   UNL     1      -5.002   3.872  25.189  0.00  0.00    +0.099 A 
ATOM     29  N   UNL     1      -4.660   4.075  25.912  0.00  0.00    -0.243 NA
ATOM     30  C   UNL     1      -3.885   3.850  26.080  0.00  0.00    +0.096 A 
ENDBRANCH   1  25
ENDBRANCH   2   1
ENDBRANCH   7   6
TORSDOF 6
ENDMDL
MODEL 3
REMARK VINA RESULT:     -10.5      2.387      5.264
REMARK  Name = 
REMARK  6 active torsions:
REMARK  status: ('A' for Active; 'I' for Inactive)
REMARK    1  A    between atoms: C_1  and  N_2
REMARK    2  A    between atoms: C_1  and  C_25
REMARK    3  A    between atoms: C_6  and  C_7
REMARK    4  A    between atoms: C_9  and  C_12
REMARK    5  A    between atoms: C_15  and  O_16
REMARK    6  A    between atoms: O_16  and  C_17
REMARK                            x       y       z     vdW  Elec       q    Type
REMARK                         _______ _______ _______ _____ _____    ______ ____
ROOT
ATOM      7  C   UNL     1      -0.452   1.331  24.009  0.00  0.00    +0.251 A 
ATOM      8  N   UNL     1      -1.273   1.416  24.016  0.00  0.00    -0.190 NA
ATOM      9  C   UNL     1      -1.449   2.172  24.297  0.00  0.00    +0.205 A 
ATOM     10  N   UNL     1      -0.737   2.553  24.463  0.00  0.00    -0.056 NA
ATOM     11  O   UNL     1      -0.121   2.033  24.285  0.00  0.00    -0.336 OA
ENDROOT
BRANCH   9  12
ATOM     12  C   UNL     1      -2.204   2.490  24.394  0.00  0.00    +0.058 A 
ATOM     13  C   UNL     1      -2.742   2.471  23.769  0.00  0.00    +0.010 A 
ATOM     14  C   UNL     1      -3.498   2.789  23.866  0.00  0.00    +0.058 A 
ATOM     15  C   UNL     1      -3.714   3.126  24.588  0.00  0.00    +0.225 A 
ATOM     23  N   UNL     1      -3.176   3.145  25.212  0.00  0.00    -0.210 NA
ATOM     24  C   UNL     1      -2.420   2.827  25.115  0.00  0.00    +0.105 A 
BRANCH  15  16
ATOM     16  O   UNL     1      -4.469   3.444  24.685  0.00  0.00    -0.464 OA
BRANCH  16  17
ATOM     17  C   UNL     1      -5.061   2.998  25.047  0.00  0.00    +0.168 C 
ATOM     18  C   UNL     1      -5.278   3.156  25.827  0.00  0.00    +0.044 C 
ATOM     19  C   UNL     1      -5.870   2.710  26.189  0.00  0.00    +0.004 C 
ATOM     20  C   UNL     1      -6.245   2.106  25.771  0.00  0.00    +0.000 C 
ATOM     21  C   UNL     1      -6.028   1.948  24.991  0.00  0.00    +0.004 C 
ATOM     22  C   UNL     1      -5.436   2.394  24.629  0.00  0.00    +0.044 C 
ENDBRANCH  16  17
ENDBRANCH  15  16
ENDBRANCH   9  12
BRANCH   7   6
ATOM      2  N   UNL     1      -0.113  -0.097  24.086  0.00  0.00    -0.263 NA
ATOM      3  C   UNL     1       0.405  -0.596  23.682  0.00  0.00    +0.073 C 
ATOM      4  C   UNL     1       0.800  -0.147  23.113  0.00  0.00    +0.019 C 
ATOM      5  C   UNL     1       0.527   0.630  23.167  0.00  0.00    +0.027 C 
ATOM      6  C   UNL     1      -0.037   0.661  23.768  0.00  0.00    +0.138 C 
BRANCH   2   1
ATOM      1  C   UNL     1      -0.617  -0.317  24.701  0.00  0.00    +0.101 C 
BRANCH   1  25
ATOM     25  C   UNL     1      -0.854  -1.103  24.778  0.00  0.00    +0.013 A 
ATOM     26  C   UNL     1      -1.534  -1.368  24.394  0.00  0.00    +0.000 A 
ATOM     27  C   UNL     1      -1.772  -2.155  24.472  0.00  0.00    +0.020 A 
ATOM     28  C   UNL     1      -1.329  -2.676  24.933  0.00  0.00    +0.099 A 
ATOM     29  N   UNL     1      -0.649  -2.410  25.317  0.00  0.00    -0.243 NA
ATOM     30  C   UNL     1      -0.412  -1.625  25.240  0.00  0.00    +0.096 A 
ENDBRANCH   1  25
ENDBRANCH   2   1
ENDBRANCH   7   6
TORSDOF 6
ENDMDL
MODEL 4
REMARK VINA RESULT:     -10.5      2.083      6.211
REMARK  Name = 
REMARK  6 active torsions:
REMARK  status: ('A' for Active; 'I' for Inactive)
REMARK    1  A    between atoms: C_1  and  N_2
REMARK    2  A    between atoms: C_1  and  C_25
REMARK    3  A    between atoms: C_6  and  C_7
REMARK    4  A    between atoms: C_9  and  C_12
REMARK    5  A    between atoms: C_15  and  O_16
REMARK    6  A    between atoms: O_16  and  C_17
REMARK                            x       y       z     vdW  Elec       q    Type
REMARK                         _______ _______ _______ _____ _____    ______ ____
ROOT
ATOM      7  C   UNL     1      -0.626  -0.625  24.550  0.00  0.00    +0.251 A 
ATOM      8  N   UNL     1      -0.761   0.088  24.943  0.00  0.00    -0.190 NA
ATOM      9  C   UNL     1      -0.340   0.679  24.552  0.00  0.00    +0.205 A 
ATOM     10  N   UNL     1       0.056   0.332  23.917  0.00  0.00    -0.056 NA
ATOM     11  O   UNL     1      -0.121  -0.473  23.916  0.00  0.00    -0.336 OA
ENDROOT
BRANCH   9  12
ATOM     12  C   UNL     1      -0.318   1.478  24.759  0.00  0.00    +0.058 A 
ATOM     13  C   UNL     1      -0.287   1.697  25.554  0.00  0.00    +0.010 A 
ATOM     14  C   UNL     1      -0.265   2.495  25.761  0.00  0.00    +0.058 A 
ATOM     15  C   UNL     1      -0.275   3.074  25.174  0.00  0.00    +0.225 A 
ATOM     23  N   UNL     1      -0.306   2.856  24.379  0.00  0.00    -0.210 NA
ATOM     24  C   UNL     1      -0.328   2.057  24.172  0.00  0.00    +0.105 A 
BRANCH  15  16
ATOM     16  O   UNL     1      -0.253   3.873  25.381  0.00  0.00    -0.464 OA
BRANCH  16  17
ATOM     17  C   UNL     1      -0.938   4.330  25.335  0.00  0.00    +0.168 C 
ATOM     18  C   UNL     1      -1.619   4.092  25.735  0.00  0.00    +0.044 C 
ATOM     19  C   UNL     1      -2.305   4.549  25.689  0.00  0.00    +0.004 C 
ATOM     20  C   UNL     1      -2.309   5.243  25.244  0.00  0.00    +0.000 C 
ATOM     21  C   UNL     1      -1.627   5.481  24.844  0.00  0.00    +0.004 C 
ATOM     22  C   UNL     1      -0.942   5.024  24.889  0.00  0.00    +0.044 C 
ENDBRANCH  16  17
ENDBRANCH  15  16
ENDBRANCH   9  12
BRANCH   7   6
ATOM      2  N   UNL     1      -1.676  -1.653  24.525  0.00  0.00    -0.263 NA
ATOM      3  C   UNL     1      -1.765  -2.403  24.854  0.00  0.00    +0.073 C 
ATOM      4  C   UNL     1      -1.084  -2.574  25.288  0.00  0.00    +0.019 C 
ATOM      5  C   UNL     1      -0.574  -1.929  25.227  0.00  0.00    +0.027 C 
ATOM      6  C   UNL     1      -0.940  -1.359  24.755  0.00  0.00    +0.138 C 
BRANCH   2   1
ATOM      1  C   UNL     1      -2.227  -1.263  24.049  0.00  0.00    +0.101 C 
BRANCH   1  25
ATOM     25  C   UNL     1      -3.023  -1.475  24.083  0.00  0.00    +0.013 A 
ATOM     26  C   UNL     1      -3.578  -0.945  24.385  0.00  0.00    +0.000 A 
ATOM     27  C   UNL     1      -4.375  -1.156  24.419  0.00  0.00    +0.020 A 
ATOM     28  C   UNL     1      -4.616  -1.897  24.149  0.00  0.00    +0.099 A 
ATOM     29  N   UNL     1      -4.061  -2.427  23.847  0.00  0.00    -0.243 NA
ATOM     30  C   UNL     1      -3.265  -2.216  23.813  0.00  0.00    +0.096 A 
ENDBRANCH   1  25
ENDBRANCH   2   1
ENDBRANCH   7   6
TORSDOF 6
ENDMDL
MODEL 5
REMARK VINA RESULT:     -10.5      1.332      5.421
REMARK  Name = 
REMARK  6 active torsions:
REMARK  status: ('A' for Active; 'I' for Inactive)
REMARK    1  A    between atoms: C_1  and  N_2
REMARK    2  A    between atoms: C_1  and  C_25
REMARK    3  A    between atoms: C_6  and  C_7
REMARK    4  A    between atoms: C_9  and  C_12
REMARK    5  A    between atoms: C_15  and  O_16
REMARK    6  A    between atoms: O_16  and  C_17
REMARK                            x       y       z     vdW  Elec       q    Type
REMARK                         _______ _______ _______ _____ _____    ______ ____
ROOT
ATOM      7  C   UNL     1      -4.183  -0.296  24.617  0.00  0.00    +0.251 A 
ATOM      8  N   UNL     1      -3.756   0.377  24.404  0.00  0.00    -0.190 NA
ATOM      9  C   UNL     1      -4.126   1.031  24.743  0.00  0.00    +0.205 A 
ATOM     10  N   UNL     1      -4.781   0.763  25.166  0.00  0.00    -0.056 NA
ATOM     11  O   UNL     1      -4.816  -0.058  25.088  0.00  0.00    -0.336 OA
ENDROOT
BRANCH   9  12
ATOM     12  C   UNL     1      -3.884   1.817  24.672  0.00  0.00    +0.058 A 
ATOM     13  C   UNL     1      -3.725   2.133  23.927  0.00  0.00    +0.010 A 
ATOM     14  C   UNL     1      -3.482   2.919  23.856  0.00  0.00    +0.058 A 
ATOM     15  C   UNL     1      -3.399   3.388  24.530  0.00  0.00    +0.225 A 
ATOM     23  N   UNL     1      -3.558   3.071  25.275  0.00  0.00    -0.210 NA
ATOM     24  C   UNL     1      -3.801   2.286  25.346  0.00  0.00    +0.105 A 
BRANCH  15  16
ATOM     16  O   UNL     1      -3.156   4.173  24.458  0.00  0.00    -0.464 OA
BRANCH  16  17
ATOM     17  C   UNL     1      -2.382   4.385  24.651  0.00  0.00    +0.168 C 
ATOM     18  C   UNL     1      -2.244   4.966  25.220  0.00  0.00    +0.044 C 
ATOM     19  C   UNL     1      -1.470   5.178  25.413  0.00  0.00    +0.004 C 
ATOM     20  C   UNL     1      -0.835   4.809  25.037  0.00  0.00    +0.000 C 
ATOM     21  C   UNL     1      -0.974   4.227  24.468  0.00  0.00    +0.004 C 
ATOM     22  C   UNL     1      -1.748   4.015  24.275  0.00  0.00    +0.044 C 
ENDBRANCH  16  17
ENDBRANCH  15  16
ENDBRANCH   9  12
BRANCH   7   6
ATOM      2  N   UNL     1      -3.358  -1.513  24.655  0.00  0.00    -0.263 NA
ATOM      3  C   UNL     1      -3.398  -2.256  24.299  0.00  0.00    +0.073 C 
ATOM      4  C   UNL     1      -4.071  -2.274  23.821  0.00  0.00    +0.019 C 
ATOM      5  C   UNL     1      -4.447  -1.542  23.882  0.00  0.00    +0.027 C 
ATOM      6  C   UNL     1      -4.006  -1.071  24.398  0.00  0.00    +0.138 C 
BRANCH   2   1
ATOM      1  C   UNL     1      -2.773  -1.256  25.177  0.00  0.00    +0.101 C 
BRANCH   1  25
ATOM     25  C   UNL     1      -1.996  -1.514  25.084  0.00  0.00    +0.013 A 
ATOM     26  C   UNL     1      -1.424  -1.000  24.784  0.00  0.00    +0.000 A 
ATOM     27  C   UNL     1      -0.645  -1.257  24.690  0.00  0.00    +0.020 A 
ATOM     28  C   UNL     1      -0.439  -2.029  24.897  0.00  0.00    +0.099 A 
ATOM     29  N   UNL     1      -1.011  -2.543  25.197  0.00  0.00    -0.243 NA
ATOM     30  C   UNL     1      -1.788  -2.285  25.290  0.00  0.00    +0.096 A 
ENDBRANCH   1  25
ENDBRANCH   2   1
ENDBRANCH   7   6
TORSDOF 6
ENDMDL
MODEL 6
REMARK VINA RESULT:     -10.1      3.748      4.995
REMARK  Name = 
REMARK  6 active torsions:
REMARK  status: ('A' for Active; 'I' for Inactive)
REMARK    1  A    between atoms: C_1  and  N_2
REMARK    2  A    between atoms: C_1  and  C_25
REMARK    3  A    between atoms: C_6  and  C_7
REMARK    4  A    between atoms: C_9  and  C_12
REMARK    5  A    between atoms: C_15  and  O_16
REMARK    6  A    between atoms: O_16  and  C_17
REMARK                            x       y       z     vdW  Elec       q    Type
REMARK                         _______ _______ _______ _____ _____    ______ ____
ROOT
ATOM      7  C   UNL     1      -1.779   0.363  24.788  0.00  0.00    +0.251 A 
ATOM      8  N   UNL     1      -1.314   0.316  24.108  0.00  0.00    -0.190 NA
ATOM      9  C   UNL     1      -0.523   0.310  24.340  0.00  0.00    +0.205 A 
ATOM     10  N   UNL     1      -0.499   0.353  25.163  0.00  0.00    -0.056 NA
ATOM     11  O   UNL     1      -1.275   0.386  25.440  0.00  0.00    -0.336 OA
ENDROOT
BRANCH   9  12
ATOM     12  C   UNL     1       0.130   0.267  23.837  0.00  0.00    +0.058 A 
ATOM     13  C   UNL     1       0.334  -0.451  23.486  0.00  0.00    +0.010 A 
ATOM     14  C   UNL     1       0.987  -0.493  22.983  0.00  0.00    +0.058 A 
ATOM     15  C   UNL     1       1.435   0.182  22.832  0.00  0.00    +0.225 A 
ATOM     23  N   UNL     1       1.232   0.901  23.183  0.00  0.00    -0.210 NA
ATOM     24  C   UNL     1       0.579   0.943  23.686  0.00  0.00    +0.105 A 
BRANCH  15  16
ATOM     16  O   UNL     1       2.088   0.140  22.329  0.00  0.00    -0.464 OA
BRANCH  16  17
ATOM     17  C   UNL     1       2.851   0.198  22.638  0.00  0.00    +0.168 C 
ATOM     18  C   UNL     1       3.261   0.912  22.594  0.00  0.00    +0.044 C 
ATOM     19  C   UNL     1       4.023   0.969  22.903  0.00  0.00    +0.004 C 
ATOM     20  C   UNL     1       4.377   0.312  23.255  0.00  0.00    +0.000 C 
ATOM     21  C   UNL     1       3.967  -0.403  23.298  0.00  0.00    +0.004 C 
ATOM     22  C   UNL     1       3.204  -0.460  22.990  0.00  0.00    +0.044 C 
ENDBRANCH  16  17
ENDBRANCH  15  16
ENDBRANCH   9  12
BRANCH   7   6
ATOM      2  N   UNL     1      -3.073   1.062  24.785  0.00  0.00    -0.263 NA
ATOM      3  C   UNL     1      -3.862   0.827  24.822  0.00  0.00    +0.073 C 
ATOM      4  C   UNL     1      -3.882   0.003  24.871  0.00  0.00    +0.019 C 
ATOM      5  C   UNL     1      -3.104  -0.271  24.864  0.00  0.00    +0.027 C 
ATOM      6  C   UNL     1      -2.603   0.383  24.811  0.00  0.00    +0.138 C 
BRANCH   2   1
ATOM      1  C   UNL     1      -2.800   1.839  24.732  0.00  0.00    +0.101 C 
BRANCH   1  25
ATOM     25  C   UNL     1      -3.337   2.463  24.702  0.00  0.00    +0.013 A 
ATOM     26  C   UNL     1      -3.594   2.751  23.973  0.00  0.00    +0.000 A 
ATOM     27  C   UNL     1      -4.132   3.377  23.943  0.00  0.00    +0.020 A 
ATOM     28  C   UNL     1      -4.412   3.713  24.642  0.00  0.00    +0.099 A 
ATOM     29  N   UNL     1      -4.155   3.425  25.371  0.00  0.00    -0.243 NA
ATOM     30  C   UNL     1      -3.618   2.801  25.401  0.00  0.00    +0.096 A 
ENDBRANCH   1  25
ENDBRANCH   2   1
ENDBRANCH   7   6
TORSDOF 6
ENDMDL
MODEL 7
REMARK VINA RESULT:      -7.5     14.651     17.007
REMARK  Name = 
REMARK  6 active torsions:
REMARK  status: ('A' for Active; 'I' for Inactive)
REMARK    1  A    between atoms: C_1  and  N_2
REMARK    2  A    between atoms: C_1  and  C_25
REMARK    3  A    between atoms: C_6  and  C_7
REMARK    4  A    between atoms: C_9  and  C_12
REMARK    5  A    between atoms: C_15  and  O_16
REMARK    6  A    between atoms: O_16  and  C_17
REMARK                            x       y       z     vdW  Elec       q    Type
REMARK                         _______ _______ _______ _____ _____    ______ ____
ROOT
ATOM      7  C   UNL     1      -5.712 -10.245  14.417  0.00  0.00    +0.251 A 
ATOM      8  N   UNL     1      -5.416  -9.714  13.858  0.00  0.00    -0.190 NA
ATOM      9  C   UNL     1      -5.723  -9.923  13.122  0.00  0.00    +0.205 A 
ATOM     10  N   UNL     1      -6.208 -10.582  13.225  0.00  0.00    -0.056 NA
ATOM     11  O   UNL     1      -6.201 -10.781  14.025  0.00  0.00    -0.336 OA
ENDROOT
BRANCH   9  12
ATOM     12  C   UNL     1      -5.571  -9.539  12.407  0.00  0.00    +0.058 A 
ATOM     13  C   UNL     1      -6.136  -9.031  12.084  0.00  0.00    +0.010 A 
ATOM     14  C   UNL     1      -5.984  -8.647  11.369  0.00  0.00    +0.058 A 
ATOM     15  C   UNL     1      -5.268  -8.771  10.978  0.00  0.00    +0.225 A 
ATOM     23  N   UNL     1      -4.704  -9.279  11.301  0.00  0.00    -0.210 NA
ATOM     24  C   UNL     1      -4.856  -9.663  12.016  0.00  0.00    +0.105 A 
BRANCH  15  16
ATOM     16  O   UNL     1      -5.116  -8.387  10.264  0.00  0.00    -0.464 OA
BRANCH  16  17
ATOM     17  C   UNL     1      -5.162  -8.805   9.554  0.00  0.00    +0.168 C 
ATOM     18  C   UNL     1      -5.889  -8.896   9.175  0.00  0.00    +0.044 C 
ATOM     19  C   UNL     1      -5.934  -9.313   8.465  0.00  0.00    +0.004 C 
ATOM     20  C   UNL     1      -5.253  -9.639   8.133  0.00  0.00    +0.000 C 
ATOM     21  C   UNL     1      -4.526  -9.547   8.512  0.00  0.00    +0.004 C 
ATOM     22  C   UNL     1      -4.480  -9.130   9.222  0.00  0.00    +0.044 C 
ENDBRANCH  16  17
ENDBRANCH  15  16
ENDBRANCH   9  12
BRANCH   7   6
ATOM      2  N   UNL     1      -6.092 -10.107  15.830  0.00  0.00    -0.263 NA
ATOM      3  C   UNL     1      -5.690 -10.152  16.549  0.00  0.00    +0.073 C 
ATOM      4  C   UNL     1      -4.897 -10.314  16.389  0.00  0.00    +0.019 C 
ATOM      5  C   UNL     1      -4.809 -10.369  15.570  0.00  0.00    +0.027 C 
ATOM      6  C   UNL     1      -5.547 -10.240  15.225  0.00  0.00    +0.138 C 
BRANCH   2   1
ATOM      1  C   UNL     1      -6.897  -9.954  15.733  0.00  0.00    +0.101 C 
BRANCH   1  25
ATOM     25  C   UNL     1      -7.392  -9.917  16.392  0.00  0.00    +0.013 A 
ATOM     26  C   UNL     1      -7.557  -9.188  16.742  0.00  0.00    +0.000 A 
ATOM     27  C   UNL     1      -8.052  -9.150  17.402  0.00  0.00    +0.020 A 
ATOM     28  C   UNL     1      -8.382  -9.841  17.710  0.00  0.00    +0.099 A 
ATOM     29  N   UNL     1      -8.216 -10.570  17.359  0.00  0.00    -0.243 NA
ATOM     30  C   UNL     1      -7.722 -10.607  16.701  0.00  0.00    +0.096 A 
ENDBRANCH   1  25
ENDBRANCH   2   1
ENDBRANCH   7   6
TORSDOF 6
ENDMDL
