REMARK  Name = 
REMARK  4 active torsions:
REMARK  status: ('A' for Active; 'I' for Inactive)
REMARK    1  A    between atoms: C_1  and  C_2
REMARK    2  A    between atoms: C_1  and  N_8
REMARK    3  A    between atoms: C_13  and  C_14
REMARK    4  A    between atoms: C_16  and  C_19
REMARK                            x       y       z     vdW  Elec       q    Type
REMARK                         _______ _______ _______ _____ _____    ______ ____
ROOT
ATOM      8  N   UNL     1       4.834  -1.134   0.000  0.00  0.00    -0.261 NA
ATOM      9  C   UNL     1       5.169  -1.888   0.000  0.00  0.00    +0.120 C 
ATOM     10  C   UNL     1       4.684  -2.555   0.000  0.00  0.00    +0.090 A 
ATOM     11  C   UNL     1       3.864  -2.469   0.000  0.00  0.00    +0.077 A 
ATOM     12  C   UNL     1       3.528  -1.715   0.000  0.00  0.00    +0.073 C 
ATOM     13  C   UNL     1       4.013  -1.048   0.000  0.00  0.00    +0.144 C 
ATOM     28  N   UNL     1       3.528  -3.223   0.000  0.00  0.00    -0.227 NA
ATOM     29  C   UNL     1       4.141  -3.775   0.000  0.00  0.00    +0.198 A 
ATOM     30  N   UNL     1       4.856  -3.362   0.000  0.00  0.00    -0.226 NA
ENDROOT
BRANCH  13  14
ATOM     14  C   UNL     1       3.678  -0.294   0.000  0.00  0.00    +0.251 A 
ATOM     15  N   UNL     1       2.871  -0.122   0.000  0.00  0.00    -0.190 NA
ATOM     16  C   UNL     1       2.784   0.698   0.000  0.00  0.00    +0.203 A 
ATOM     17  N   UNL     1       3.538   1.034   0.000  0.00  0.00    -0.056 NA
ATOM     18  O   UNL     1       4.090   0.420   0.000  0.00  0.00    -0.336 OA
BRANCH  16  19
ATOM     19  C   UNL     1       2.070   1.110   0.000  0.00  0.00    +0.042 A 
ATOM     20  C   UNL     1       1.356   0.698   0.000  0.00  0.00    +0.043 A 
ATOM     21  C   UNL     1       0.641   1.110   0.000  0.00  0.00    +0.177 A 
ATOM     22  C   UNL     1       0.641   1.935   0.000  0.00  0.00    +0.176 A 
ATOM     23  O   UNL     1      -0.143   2.190   0.000  0.00  0.00    -0.435 OA
ATOM     24  C   UNL     1      -0.628   1.523   0.000  0.00  0.00    +0.429 C 
ATOM     25  O   UNL     1      -0.143   0.856   0.000  0.00  0.00    -0.435 OA
ATOM     26  C   UNL     1       1.356   2.348   0.000  0.00  0.00    +0.040 A 
ATOM     27  C   UNL     1       2.070   1.935   0.000  0.00  0.00    +0.006 A 
ENDBRANCH  16  19
ENDBRANCH  13  14
BRANCH   8   1
ATOM      1  C   UNL     1       5.319  -0.467   0.000  0.00  0.00    +0.073 C 
BRANCH   1   2
ATOM      2  C   UNL     1       6.139  -0.553   0.000  0.00  0.00    +0.016 C 
ATOM      3  C   UNL     1       6.624   0.115   0.000  0.00  0.00    +0.001 C 
ATOM      4  C   UNL     1       7.445   0.028   0.000  0.00  0.00    +0.000 C 
ATOM      5  C   UNL     1       7.780  -0.725   0.000  0.00  0.00    +0.000 C 
ATOM      6  C   UNL     1       7.295  -1.393   0.000  0.00  0.00    +0.000 C 
ATOM      7  C   UNL     1       6.475  -1.306   0.000  0.00  0.00    +0.001 C 
ENDBRANCH   1   2
ENDBRANCH   8   1
TORSDOF 4
