MODEL 1
REMARK VINA RESULT:     -13.6      0.000      0.000
REMARK  Name = 
REMARK  7 active torsions:
REMARK  status: ('A' for Active; 'I' for Inactive)
REMARK    1  A    between atoms: C_2  and  C_3
REMARK    2  A    between atoms: C_2  and  C_26
REMARK    3  A    between atoms: C_10  and  N_11
REMARK    4  A    between atoms: C_12  and  C_14
REMARK    5  A    between atoms: C_14  and  C_15
REMARK    6  A    between atoms: N_28  and  C_29
REMARK    7  A    between atoms: C_29  and  C_30
REMARK                            x       y       z     vdW  Elec       q    Type
REMARK                         _______ _______ _______ _____ _____    ______ ____
ROOT
ATOM      3  C   UNL     1      -4.033   3.293  24.831  0.00  0.00    +0.039 C 
ATOM      4  C   UNL     1      -4.628   3.333  25.402  0.00  0.00    +0.003 C 
ATOM      5  C   UNL     1      -5.076   2.664  25.578  0.00  0.00    +0.000 C 
ATOM      6  C   UNL     1      -4.931   1.955  25.184  0.00  0.00    +0.002 C 
ATOM      7  C   UNL     1      -5.525   1.995  25.754  0.00  0.00    +0.000 C 
ATOM      8  C   UNL     1      -5.379   1.285  25.359  0.00  0.00    +0.002 C 
ATOM      9  C   UNL     1      -5.234   0.576  24.965  0.00  0.00    +0.022 C 
ATOM     10  C   UNL     1      -4.638   0.535  24.394  0.00  0.00    +0.095 C 
ATOM     21  C   UNL     1      -4.190   1.204  24.219  0.00  0.00    +0.022 C 
ATOM     22  C   UNL     1      -3.595   1.164  23.648  0.00  0.00    +0.002 C 
ATOM     23  C   UNL     1      -4.335   1.915  24.613  0.00  0.00    +0.032 C 
ATOM     24  C   UNL     1      -3.887   2.584  24.437  0.00  0.00    +0.152 C 
ATOM     25  O   UNL     1      -3.292   2.543  23.867  0.00  0.00    -0.223 OA
ENDROOT
BRANCH  10  11
ATOM     11  N   UNL     1      -4.493  -0.175  24.000  0.00  0.00    -0.207 NA
ATOM     12  C   UNL     1      -4.307  -0.854  24.428  0.00  0.00    +0.246 C 
ATOM     13  O   UNL     1      -4.267  -0.825  25.253  0.00  0.00    -0.273 OA
BRANCH  12  14
ATOM     14  C   UNL     1      -4.162  -1.565  24.034  0.00  0.00    +0.113 C 
BRANCH  14  15
ATOM     15  C   UNL     1      -3.551  -2.059  24.285  0.00  0.00    -0.013 A 
ATOM     16  C   UNL     1      -3.723  -2.736  24.725  0.00  0.00    -0.004 A 
ATOM     17  C   UNL     1      -3.111  -3.230  24.976  0.00  0.00    -0.000 A 
ATOM     18  C   UNL     1      -2.329  -3.048  24.787  0.00  0.00    -0.000 A 
ATOM     19  C   UNL     1      -2.158  -2.371  24.347  0.00  0.00    -0.000 A 
ATOM     20  C   UNL     1      -2.769  -1.877  24.096  0.00  0.00    -0.004 A 
ENDBRANCH  14  15
ENDBRANCH  12  14
ENDBRANCH  10  11
BRANCH   3   2
ATOM      1  C   UNL     1      -3.772   4.426  23.999  0.00  0.00    +0.010 C 
ATOM      2  C   UNL     1      -3.584   3.963  24.656  0.00  0.00    +0.081 C 
BRANCH   2  26
ATOM     26  C   UNL     1      -2.947   4.170  25.137  0.00  0.00    +0.241 C 
ATOM     27  O   UNL     1      -3.049   4.723  25.742  0.00  0.00    -0.273 OA
ATOM     28  N   UNL     1      -2.207   3.824  25.015  0.00  0.00    -0.201 NA
BRANCH  28  29
ATOM     29  C   UNL     1      -1.571   4.030  25.496  0.00  0.00    +0.141 C 
BRANCH  29  30
ATOM     30  C   UNL     1      -0.936   3.512  25.587  0.00  0.00    -0.001 A 
ATOM     31  C   UNL     1      -0.363   3.453  24.996  0.00  0.00    -0.003 A 
ATOM     32  C   UNL     1       0.271   2.935  25.088  0.00  0.00    -0.000 A 
ATOM     33  C   UNL     1       0.333   2.474  25.769  0.00  0.00    -0.000 A 
ATOM     34  C   UNL     1      -0.240   2.532  26.360  0.00  0.00    -0.000 A 
ATOM     35  C   UNL     1      -0.875   3.052  26.269  0.00  0.00    -0.003 A 
ENDBRANCH  29  30
ENDBRANCH  28  29
ENDBRANCH   2  26
ENDBRANCH   3   2
TORSDOF 7
ENDMDL
MODEL 2
REMARK VINA RESULT:     -13.2      1.779      3.712
REMARK  Name = 
REMARK  7 active torsions:
REMARK  status: ('A' for Active; 'I' for Inactive)
REMARK    1  A    between atoms: C_2  and  C_3
REMARK    2  A    between atoms: C_2  and  C_26
REMARK    3  A    between atoms: C_10  and  N_11
REMARK    4  A    between atoms: C_12  and  C_14
REMARK    5  A    between atoms: C_14  and  C_15
REMARK    6  A    between atoms: N_28  and  C_29
REMARK    7  A    between atoms: C_29  and  C_30
REMARK                            x       y       z     vdW  Elec       q    Type
REMARK                         _______ _______ _______ _____ _____    ______ ____
ROOT
ATOM      3  C   UNL     1      -0.222   2.257  25.195  0.00  0.00    +0.039 C 
ATOM      4  C   UNL     1       0.205   2.326  24.492  0.00  0.00    +0.003 C 
ATOM      5  C   UNL     1       0.324   1.664  24.015  0.00  0.00    +0.000 C 
ATOM      6  C   UNL     1       0.016   0.933  24.240  0.00  0.00    +0.002 C 
ATOM      7  C   UNL     1       0.443   1.002  23.538  0.00  0.00    +0.000 C 
ATOM      8  C   UNL     1       0.135   0.271  23.762  0.00  0.00    +0.002 C 
ATOM      9  C   UNL     1      -0.173  -0.460  23.987  0.00  0.00    +0.022 C 
ATOM     10  C   UNL     1      -0.601  -0.530  24.690  0.00  0.00    +0.095 C 
ATOM     21  C   UNL     1      -0.719   0.132  25.167  0.00  0.00    +0.022 C 
ATOM     22  C   UNL     1      -1.146   0.063  25.870  0.00  0.00    +0.002 C 
ATOM     23  C   UNL     1      -0.411   0.864  24.943  0.00  0.00    +0.032 C 
ATOM     24  C   UNL     1      -0.530   1.526  25.420  0.00  0.00    +0.152 C 
ATOM     25  O   UNL     1      -0.957   1.456  26.122  0.00  0.00    -0.223 OA
ENDROOT
BRANCH  10  11
ATOM     11  N   UNL     1      -0.909  -1.262  24.915  0.00  0.00    -0.207 NA
ATOM     12  C   UNL     1      -1.333  -1.715  24.373  0.00  0.00    +0.246 C 
ATOM     13  O   UNL     1      -1.451  -1.436  23.604  0.00  0.00    -0.273 OA
BRANCH  12  14
ATOM     14  C   UNL     1      -1.641  -2.447  24.597  0.00  0.00    +0.113 C 
BRANCH  14  15
ATOM     15  C   UNL     1      -2.455  -2.579  24.568  0.00  0.00    -0.013 A 
ATOM     16  C   UNL     1      -2.911  -2.499  25.252  0.00  0.00    -0.004 A 
ATOM     17  C   UNL     1      -3.725  -2.632  25.222  0.00  0.00    -0.000 A 
ATOM     18  C   UNL     1      -4.083  -2.844  24.510  0.00  0.00    -0.000 A 
ATOM     19  C   UNL     1      -3.626  -2.925  23.827  0.00  0.00    -0.000 A 
ATOM     20  C   UNL     1      -2.813  -2.792  23.856  0.00  0.00    -0.004 A 
ENDBRANCH  14  15
ENDBRANCH  12  14
ENDBRANCH  10  11
BRANCH   3   2
ATOM      1  C   UNL     1       0.046   2.981  26.398  0.00  0.00    +0.010 C 
ATOM      2  C   UNL     1      -0.341   2.919  25.672  0.00  0.00    +0.081 C 
BRANCH   2  26
ATOM     26  C   UNL     1      -0.847   3.521  25.423  0.00  0.00    +0.241 C 
ATOM     27  O   UNL     1      -0.542   4.186  25.039  0.00  0.00    -0.273 OA
ATOM     28  N   UNL     1      -1.660   3.459  25.557  0.00  0.00    -0.201 NA
BRANCH  28  29
ATOM     29  C   UNL     1      -2.166   4.060  25.308  0.00  0.00    +0.141 C 
BRANCH  29  30
ATOM     30  C   UNL     1      -2.979   3.926  25.268  0.00  0.00    -0.001 A 
ATOM     31  C   UNL     1      -3.434   3.939  25.956  0.00  0.00    -0.003 A 
ATOM     32  C   UNL     1      -4.246   3.805  25.916  0.00  0.00    -0.000 A 
ATOM     33  C   UNL     1      -4.605   3.657  25.187  0.00  0.00    -0.000 A 
ATOM     34  C   UNL     1      -4.150   3.643  24.499  0.00  0.00    -0.000 A 
ATOM     35  C   UNL     1      -3.336   3.778  24.539  0.00  0.00    -0.003 A 
ENDBRANCH  29  30
ENDBRANCH  28  29
ENDBRANCH   2  26
ENDBRANCH   3   2
TORSDOF 7
ENDMDL
MODEL 3
REMARK VINA RESULT:     -12.4      3.000      5.164
REMARK  Name = 
REMARK  7 active torsions:
REMARK  status: ('A' for Active; 'I' for Inactive)
REMARK    1  A    between atoms: C_2  and  C_3
REMARK    2  A    between atoms: C_2  and  C_26
REMARK    3  A    between atoms: C_10  and  N_11
REMARK    4  A    between atoms: C_12  and  C_14
REMARK    5  A    between atoms: C_14  and  C_15
REMARK    6  A    between atoms: N_28  and  C_29
REMARK    7  A    between atoms: C_29  and  C_30
REMARK                            x       y       z     vdW  Elec       q    Type
REMARK                         _______ _______ _______ _____ _____    ______ ____
ROOT
ATOM      3  C   UNL     1       0.090   0.792  23.880  0.00  0.00    +0.039 C 
ATOM      4  C   UNL     1       0.550   1.347  24.283  0.00  0.00    +0.003 C 
ATOM      5  C   UNL     1       0.215   2.057  24.534  0.00  0.00    +0.000 C 
ATOM      6  C   UNL     1      -0.581   2.213  24.384  0.00  0.00    +0.002 C 
ATOM      7  C   UNL     1      -0.121   2.766  24.786  0.00  0.00    +0.000 C 
ATOM      8  C   UNL     1      -0.917   2.923  24.636  0.00  0.00    +0.002 C 
ATOM      9  C   UNL     1      -1.713   3.079  24.486  0.00  0.00    +0.022 C 
ATOM     10  C   UNL     1      -2.173   2.524  24.083  0.00  0.00    +0.095 C 
ATOM     21  C   UNL     1      -1.838   1.815  23.831  0.00  0.00    +0.022 C 
ATOM     22  C   UNL     1      -2.298   1.261  23.429  0.00  0.00    +0.002 C 
ATOM     23  C   UNL     1      -1.041   1.658  23.981  0.00  0.00    +0.032 C 
ATOM     24  C   UNL     1      -0.706   0.948  23.730  0.00  0.00    +0.152 C 
ATOM     25  O   UNL     1      -1.166   0.394  23.327  0.00  0.00    -0.223 OA
ENDROOT
BRANCH  10  11
ATOM     11  N   UNL     1      -2.970   2.681  23.933  0.00  0.00    -0.207 NA
ATOM     12  C   UNL     1      -3.440   3.023  24.517  0.00  0.00    +0.246 C 
ATOM     13  O   UNL     1      -3.115   3.209  25.253  0.00  0.00    -0.273 OA
BRANCH  12  14
ATOM     14  C   UNL     1      -4.237   3.179  24.367  0.00  0.00    +0.113 C 
BRANCH  14  15
ATOM     15  C   UNL     1      -4.821   2.836  24.837  0.00  0.00    -0.013 A 
ATOM     16  C   UNL     1      -5.021   3.177  25.562  0.00  0.00    -0.004 A 
ATOM     17  C   UNL     1      -5.605   2.833  26.032  0.00  0.00    -0.000 A 
ATOM     18  C   UNL     1      -5.990   2.150  25.779  0.00  0.00    -0.000 A 
ATOM     19  C   UNL     1      -5.790   1.809  25.054  0.00  0.00    -0.000 A 
ATOM     20  C   UNL     1      -5.206   2.152  24.584  0.00  0.00    -0.004 A 
ENDBRANCH  14  15
ENDBRANCH  12  14
ENDBRANCH  10  11
BRANCH   3   2
ATOM      1  C   UNL     1       0.203  -0.630  23.980  0.00  0.00    +0.010 C 
ATOM      2  C   UNL     1       0.426   0.082  23.628  0.00  0.00    +0.081 C 
BRANCH   2  26
ATOM     26  C   UNL     1       0.987   0.084  23.023  0.00  0.00    +0.241 C 
ATOM     27  O   UNL     1       0.744   0.065  22.234  0.00  0.00    -0.273 OA
ATOM     28  N   UNL     1       1.792   0.105  23.206  0.00  0.00    -0.201 NA
BRANCH  28  29
ATOM     29  C   UNL     1       2.353   0.107  22.602  0.00  0.00    +0.141 C 
BRANCH  29  30
ATOM     30  C   UNL     1       3.152   0.207  22.781  0.00  0.00    -0.001 A 
ATOM     31  C   UNL     1       3.579  -0.409  23.125  0.00  0.00    -0.003 A 
ATOM     32  C   UNL     1       4.377  -0.308  23.303  0.00  0.00    -0.000 A 
ATOM     33  C   UNL     1       4.750   0.409  23.137  0.00  0.00    -0.000 A 
ATOM     34  C   UNL     1       4.323   1.025  22.793  0.00  0.00    -0.000 A 
ATOM     35  C   UNL     1       3.523   0.925  22.615  0.00  0.00    -0.003 A 
ENDBRANCH  29  30
ENDBRANCH  28  29
ENDBRANCH   2  26
ENDBRANCH   3   2
TORSDOF 7
ENDMDL
MODEL 4
REMARK VINA RESULT:     -12.2      1.824      5.303
REMARK  Name = 
REMARK  7 active torsions:
REMARK  status: ('A' for Active; 'I' for Inactive)
REMARK    1  A    between atoms: C_2  and  C_3
REMARK    2  A    between atoms: C_2  and  C_26
REMARK    3  A    between atoms: C_10  and  N_11
REMARK    4  A    between atoms: C_12  and  C_14
REMARK    5  A    between atoms: C_14  and  C_15
REMARK    6  A    between atoms: N_28  and  C_29
REMARK    7  A    between atoms: C_29  and  C_30
REMARK                            x       y       z     vdW  Elec       q    Type
REMARK                         _______ _______ _______ _____ _____    ______ ____
ROOT
ATOM      3  C   UNL     1      -0.284   0.698  24.199  0.00  0.00    +0.039 C 
ATOM      4  C   UNL     1       0.246   1.045  24.730  0.00  0.00    +0.003 C 
ATOM      5  C   UNL     1       0.067   1.772  25.075  0.00  0.00    +0.000 C 
ATOM      6  C   UNL     1      -0.640   2.153  24.891  0.00  0.00    +0.002 C 
ATOM      7  C   UNL     1      -0.111   2.499  25.420  0.00  0.00    +0.000 C 
ATOM      8  C   UNL     1      -0.819   2.881  25.236  0.00  0.00    +0.002 C 
ATOM      9  C   UNL     1      -1.526   3.263  25.052  0.00  0.00    +0.022 C 
ATOM     10  C   UNL     1      -2.056   2.916  24.521  0.00  0.00    +0.095 C 
ATOM     21  C   UNL     1      -1.877   2.189  24.175  0.00  0.00    +0.022 C 
ATOM     22  C   UNL     1      -2.406   1.844  23.645  0.00  0.00    +0.002 C 
ATOM     23  C   UNL     1      -1.169   1.807  24.360  0.00  0.00    +0.032 C 
ATOM     24  C   UNL     1      -0.991   1.080  24.015  0.00  0.00    +0.152 C 
ATOM     25  O   UNL     1      -1.520   0.734  23.484  0.00  0.00    -0.223 OA
ENDROOT
BRANCH  10  11
ATOM     11  N   UNL     1      -2.763   3.299  24.336  0.00  0.00    -0.207 NA
ATOM     12  C   UNL     1      -3.290   3.504  24.936  0.00  0.00    +0.246 C 
ATOM     13  O   UNL     1      -3.109   3.328  25.723  0.00  0.00    -0.273 OA
BRANCH  12  14
ATOM     14  C   UNL     1      -3.998   3.887  24.752  0.00  0.00    +0.113 C 
BRANCH  14  15
ATOM     15  C   UNL     1      -4.712   3.597  25.045  0.00  0.00    -0.013 A 
ATOM     16  C   UNL     1      -5.129   4.026  25.614  0.00  0.00    -0.004 A 
ATOM     17  C   UNL     1      -5.844   3.736  25.906  0.00  0.00    -0.000 A 
ATOM     18  C   UNL     1      -6.142   3.018  25.631  0.00  0.00    -0.000 A 
ATOM     19  C   UNL     1      -5.725   2.589  25.062  0.00  0.00    -0.000 A 
ATOM     20  C   UNL     1      -5.010   2.879  24.769  0.00  0.00    -0.004 A 
ENDBRANCH  14  15
ENDBRANCH  12  14
ENDBRANCH  10  11
BRANCH   3   2
ATOM      1  C   UNL     1       0.222  -0.059  23.096  0.00  0.00    +0.010 C 
ATOM      2  C   UNL     1      -0.104  -0.029  23.854  0.00  0.00    +0.081 C 
BRANCH   2  26
ATOM     26  C   UNL     1      -0.252  -0.728  24.266  0.00  0.00    +0.241 C 
ATOM     27  O   UNL     1       0.361  -1.106  24.671  0.00  0.00    -0.273 OA
ATOM     28  N   UNL     1      -1.012  -1.050  24.274  0.00  0.00    -0.201 NA
BRANCH  28  29
ATOM     29  C   UNL     1      -1.160  -1.749  24.686  0.00  0.00    +0.141 C 
BRANCH  29  30
ATOM     30  C   UNL     1      -1.932  -2.025  24.767  0.00  0.00    -0.001 A 
ATOM     31  C   UNL     1      -2.416  -1.730  25.366  0.00  0.00    -0.003 A 
ATOM     32  C   UNL     1      -3.189  -2.007  25.446  0.00  0.00    -0.000 A 
ATOM     33  C   UNL     1      -3.478  -2.579  24.927  0.00  0.00    -0.000 A 
ATOM     34  C   UNL     1      -2.994  -2.875  24.328  0.00  0.00    -0.000 A 
ATOM     35  C   UNL     1      -2.221  -2.598  24.247  0.00  0.00    -0.003 A 
ENDBRANCH  29  30
ENDBRANCH  28  29
ENDBRANCH   2  26
ENDBRANCH   3   2
TORSDOF 7
ENDMDL
MODEL 5
REMARK VINA RESULT:     -12.2      3.246      5.725
REMARK  Name = 
REMARK  7 active torsions:
REMARK  status: ('A' for Active; 'I' for Inactive)
REMARK    1  A    between atoms: C_2  and  C_3
REMARK    2  A    between atoms: C_2  and  C_26
REMARK    3  A    between atoms: C_10  and  N_11
REMARK    4  A    between atoms: C_12  and  C_14
REMARK    5  A    between atoms: C_14  and  C_15
REMARK    6  A    between atoms: N_28  and  C_29
REMARK    7  A    between atoms: C_29  and  C_30
REMARK                            x       y       z     vdW  Elec       q    Type
REMARK                         _______ _______ _______ _____ _____    ______ ____
ROOT
ATOM      3  C   UNL     1      -1.591   0.480  24.849  0.00  0.00    +0.039 C 
ATOM      4  C   UNL     1      -1.511   1.265  25.090  0.00  0.00    +0.003 C 
ATOM      5  C   UNL     1      -0.838   1.693  24.882  0.00  0.00    +0.000 C 
ATOM      6  C   UNL     1      -0.245   1.337  24.433  0.00  0.00    +0.002 C 
ATOM      7  C   UNL     1      -0.165   2.121  24.674  0.00  0.00    +0.000 C 
ATOM      8  C   UNL     1       0.429   1.765  24.225  0.00  0.00    +0.002 C 
ATOM      9  C   UNL     1       1.022   1.409  23.776  0.00  0.00    +0.022 C 
ATOM     10  C   UNL     1       0.942   0.623  23.535  0.00  0.00    +0.095 C 
ATOM     21  C   UNL     1       0.269   0.195  23.743  0.00  0.00    +0.022 C 
ATOM     22  C   UNL     1       0.189  -0.590  23.502  0.00  0.00    +0.002 C 
ATOM     23  C   UNL     1      -0.325   0.551  24.192  0.00  0.00    +0.032 C 
ATOM     24  C   UNL     1      -0.998   0.123  24.400  0.00  0.00    +0.152 C 
ATOM     25  O   UNL     1      -1.078  -0.662  24.159  0.00  0.00    -0.223 OA
ENDROOT
BRANCH  10  11
ATOM     11  N   UNL     1       1.536   0.267  23.086  0.00  0.00    -0.207 NA
ATOM     12  C   UNL     1       2.286   0.608  23.049  0.00  0.00    +0.246 C 
ATOM     13  O   UNL     1       2.443   1.306  23.461  0.00  0.00    -0.273 OA
BRANCH  12  14
ATOM     14  C   UNL     1       2.879   0.252  22.600  0.00  0.00    +0.113 C 
BRANCH  14  15
ATOM     15  C   UNL     1       3.639   0.172  22.909  0.00  0.00    -0.013 A 
ATOM     16  C   UNL     1       4.185   0.786  22.827  0.00  0.00    -0.004 A 
ATOM     17  C   UNL     1       4.946   0.706  23.137  0.00  0.00    -0.000 A 
ATOM     18  C   UNL     1       5.161   0.013  23.529  0.00  0.00    -0.000 A 
ATOM     19  C   UNL     1       4.615  -0.601  23.612  0.00  0.00    -0.000 A 
ATOM     20  C   UNL     1       3.855  -0.521  23.302  0.00  0.00    -0.004 A 
ENDBRANCH  14  15
ENDBRANCH  12  14
ENDBRANCH  10  11
BRANCH   3   2
ATOM      1  C   UNL     1      -2.222  -0.531  25.640  0.00  0.00    +0.010 C 
ATOM      2  C   UNL     1      -2.265   0.051  25.057  0.00  0.00    +0.081 C 
BRANCH   2  26
ATOM     26  C   UNL     1      -2.984   0.206  24.682  0.00  0.00    +0.241 C 
ATOM     27  O   UNL     1      -3.184  -0.198  23.991  0.00  0.00    -0.273 OA
ATOM     28  N   UNL     1      -3.503   0.765  24.999  0.00  0.00    -0.201 NA
BRANCH  28  29
ATOM     29  C   UNL     1      -4.220   0.920  24.624  0.00  0.00    +0.141 C 
BRANCH  29  30
ATOM     30  C   UNL     1      -4.704   1.531  24.894  0.00  0.00    -0.001 A 
ATOM     31  C   UNL     1      -4.588   2.301  24.621  0.00  0.00    -0.003 A 
ATOM     32  C   UNL     1      -5.072   2.911  24.892  0.00  0.00    -0.000 A 
ATOM     33  C   UNL     1      -5.672   2.753  25.436  0.00  0.00    -0.000 A 
ATOM     34  C   UNL     1      -5.787   1.983  25.709  0.00  0.00    -0.000 A 
ATOM     35  C   UNL     1      -5.303   1.371  25.438  0.00  0.00    -0.003 A 
ENDBRANCH  29  30
ENDBRANCH  28  29
ENDBRANCH   2  26
ENDBRANCH   3   2
TORSDOF 7
ENDMDL
MODEL 6
REMARK VINA RESULT:     -12.2      1.425      3.322
REMARK  Name = 
REMARK  7 active torsions:
REMARK  status: ('A' for Active; 'I' for Inactive)
REMARK    1  A    between atoms: C_2  and  C_3
REMARK    2  A    between atoms: C_2  and  C_26
REMARK    3  A    between atoms: C_10  and  N_11
REMARK    4  A    between atoms: C_12  and  C_14
REMARK    5  A    between atoms: C_14  and  C_15
REMARK    6  A    between atoms: N_28  and  C_29
REMARK    7  A    between atoms: C_29  and  C_30
REMARK                            x       y       z     vdW  Elec       q    Type
REMARK                         _______ _______ _______ _____ _____    ______ ____
ROOT
ATOM      3  C   UNL     1      -0.982   3.157  25.071  0.00  0.00    +0.039 C 
ATOM      4  C   UNL     1      -0.633   3.086  25.817  0.00  0.00    +0.003 C 
ATOM      5  C   UNL     1      -0.460   2.339  26.120  0.00  0.00    +0.000 C 
ATOM      6  C   UNL     1      -0.635   1.664  25.680  0.00  0.00    +0.002 C 
ATOM      7  C   UNL     1      -0.287   1.592  26.424  0.00  0.00    +0.000 C 
ATOM      8  C   UNL     1      -0.462   0.916  25.984  0.00  0.00    +0.002 C 
ATOM      9  C   UNL     1      -0.636   0.242  25.544  0.00  0.00    +0.022 C 
ATOM     10  C   UNL     1      -0.985   0.313  24.799  0.00  0.00    +0.095 C 
ATOM     21  C   UNL     1      -1.158   1.060  24.495  0.00  0.00    +0.022 C 
ATOM     22  C   UNL     1      -1.506   1.132  23.751  0.00  0.00    +0.002 C 
ATOM     23  C   UNL     1      -0.983   1.736  24.935  0.00  0.00    +0.032 C 
ATOM     24  C   UNL     1      -1.157   2.482  24.631  0.00  0.00    +0.152 C 
ATOM     25  O   UNL     1      -1.505   2.554  23.887  0.00  0.00    -0.223 OA
ENDROOT
BRANCH  10  11
ATOM     11  N   UNL     1      -1.160  -0.363  24.359  0.00  0.00    -0.207 NA
ATOM     12  C   UNL     1      -1.543  -1.000  24.715  0.00  0.00    +0.246 C 
ATOM     13  O   UNL     1      -1.752  -0.962  25.513  0.00  0.00    -0.273 OA
BRANCH  12  14
ATOM     14  C   UNL     1      -1.717  -1.675  24.275  0.00  0.00    +0.113 C 
BRANCH  14  15
ATOM     15  C   UNL     1      -2.461  -2.026  24.334  0.00  0.00    -0.013 A 
ATOM     16  C   UNL     1      -3.118  -1.662  23.991  0.00  0.00    -0.004 A 
ATOM     17  C   UNL     1      -3.862  -2.013  24.050  0.00  0.00    -0.000 A 
ATOM     18  C   UNL     1      -3.951  -2.727  24.453  0.00  0.00    -0.000 A 
ATOM     19  C   UNL     1      -3.294  -3.092  24.796  0.00  0.00    -0.000 A 
ATOM     20  C   UNL     1      -2.550  -2.741  24.737  0.00  0.00    -0.004 A 
ENDBRANCH  14  15
ENDBRANCH  12  14
ENDBRANCH  10  11
BRANCH   3   2
ATOM      1  C   UNL     1      -0.673   4.238  24.187  0.00  0.00    +0.010 C 
ATOM      2  C   UNL     1      -1.155   3.905  24.768  0.00  0.00    +0.081 C 
BRANCH   2  26
ATOM     26  C   UNL     1      -1.812   4.320  25.046  0.00  0.00    +0.241 C 
ATOM     27  O   UNL     1      -1.713   5.060  25.398  0.00  0.00    -0.273 OA
ATOM     28  N   UNL     1      -2.567   3.996  24.971  0.00  0.00    -0.201 NA
BRANCH  28  29
ATOM     29  C   UNL     1      -3.223   4.411  25.249  0.00  0.00    +0.141 C 
BRANCH  29  30
ATOM     30  C   UNL     1      -3.949   4.029  25.331  0.00  0.00    -0.001 A 
ATOM     31  C   UNL     1      -4.228   3.827  26.081  0.00  0.00    -0.003 A 
ATOM     32  C   UNL     1      -4.954   3.445  26.162  0.00  0.00    -0.000 A 
ATOM     33  C   UNL     1      -5.402   3.264  25.493  0.00  0.00    -0.000 A 
ATOM     34  C   UNL     1      -5.124   3.466  24.743  0.00  0.00    -0.000 A 
ATOM     35  C   UNL     1      -4.397   3.848  24.662  0.00  0.00    -0.003 A 
ENDBRANCH  29  30
ENDBRANCH  28  29
ENDBRANCH   2  26
ENDBRANCH   3   2
TORSDOF 7
ENDMDL
MODEL 7
REMARK VINA RESULT:     -11.8      1.956      6.195
REMARK  Name = 
REMARK  7 active torsions:
REMARK  status: ('A' for Active; 'I' for Inactive)
REMARK    1  A    between atoms: C_2  and  C_3
REMARK    2  A    between atoms: C_2  and  C_26
REMARK    3  A    between atoms: C_10  and  N_11
REMARK    4  A    between atoms: C_12  and  C_14
REMARK    5  A    between atoms: C_14  and  C_15
REMARK    6  A    between atoms: N_28  and  C_29
REMARK    7  A    between atoms: C_29  and  C_30
REMARK                            x       y       z     vdW  Elec       q    Type
REMARK                         _______ _______ _______ _____ _____    ______ ____
ROOT
ATOM      3  C   UNL     1      -0.513  -1.016  24.655  0.00  0.00    +0.039 C 
ATOM      4  C   UNL     1      -0.195  -1.015  23.892  0.00  0.00    +0.003 C 
ATOM      5  C   UNL     1       0.078  -0.311  23.561  0.00  0.00    +0.000 C 
ATOM      6  C   UNL     1       0.033   0.391  23.990  0.00  0.00    +0.002 C 
ATOM      7  C   UNL     1       0.351   0.393  23.229  0.00  0.00    +0.000 C 
ATOM      8  C   UNL     1       0.306   1.096  23.658  0.00  0.00    +0.002 C 
ATOM      9  C   UNL     1       0.261   1.799  24.087  0.00  0.00    +0.022 C 
ATOM     10  C   UNL     1      -0.057   1.797  24.849  0.00  0.00    +0.095 C 
ATOM     21  C   UNL     1      -0.330   1.094  25.181  0.00  0.00    +0.022 C 
ATOM     22  C   UNL     1      -0.647   1.092  25.942  0.00  0.00    +0.002 C 
ATOM     23  C   UNL     1      -0.285   0.390  24.752  0.00  0.00    +0.032 C 
ATOM     24  C   UNL     1      -0.558  -0.314  25.083  0.00  0.00    +0.152 C 
ATOM     25  O   UNL     1      -0.875  -0.315  25.845  0.00  0.00    -0.223 OA
ENDROOT
BRANCH  10  11
ATOM     11  N   UNL     1      -0.101   2.501  25.278  0.00  0.00    -0.207 NA
ATOM     12  C   UNL     1      -0.388   3.186  24.920  0.00  0.00    +0.246 C 
ATOM     13  O   UNL     1      -0.631   3.168  24.131  0.00  0.00    -0.273 OA
BRANCH  12  14
ATOM     14  C   UNL     1      -0.433   3.889  25.349  0.00  0.00    +0.113 C 
BRANCH  14  15
ATOM     15  C   UNL     1      -1.123   4.339  25.333  0.00  0.00    -0.013 A 
ATOM     16  C   UNL     1      -1.132   5.068  24.945  0.00  0.00    -0.004 A 
ATOM     17  C   UNL     1      -1.824   5.518  24.929  0.00  0.00    -0.000 A 
ATOM     18  C   UNL     1      -2.505   5.241  25.302  0.00  0.00    -0.000 A 
ATOM     19  C   UNL     1      -2.496   4.512  25.691  0.00  0.00    -0.000 A 
ATOM     20  C   UNL     1      -1.805   4.062  25.706  0.00  0.00    -0.004 A 
ENDBRANCH  14  15
ENDBRANCH  12  14
ENDBRANCH  10  11
BRANCH   3   2
ATOM      1  C   UNL     1      -0.374  -2.072  25.609  0.00  0.00    +0.010 C 
ATOM      2  C   UNL     1      -0.786  -1.721  24.986  0.00  0.00    +0.081 C 
BRANCH   2  26
ATOM     26  C   UNL     1      -1.472  -2.075  24.694  0.00  0.00    +0.241 C 
ATOM     27  O   UNL     1      -1.418  -2.711  24.170  0.00  0.00    -0.273 OA
ATOM     28  N   UNL     1      -2.212  -1.793  24.927  0.00  0.00    -0.201 NA
BRANCH  28  29
ATOM     29  C   UNL     1      -2.897  -2.147  24.635  0.00  0.00    +0.141 C 
BRANCH  29  30
ATOM     30  C   UNL     1      -3.574  -1.693  24.509  0.00  0.00    -0.001 A 
ATOM     31  C   UNL     1      -3.797  -1.121  25.060  0.00  0.00    -0.003 A 
ATOM     32  C   UNL     1      -4.474  -0.668  24.932  0.00  0.00    -0.000 A 
ATOM     33  C   UNL     1      -4.929  -0.786  24.254  0.00  0.00    -0.000 A 
ATOM     34  C   UNL     1      -4.706  -1.358  23.703  0.00  0.00    -0.000 A 
ATOM     35  C   UNL     1      -4.028  -1.812  23.830  0.00  0.00    -0.003 A 
ENDBRANCH  29  30
ENDBRANCH  28  29
ENDBRANCH   2  26
ENDBRANCH   3   2
TORSDOF 7
ENDMDL
MODEL 8
REMARK VINA RESULT:     -11.8      1.102      4.888
REMARK  Name = 
REMARK  7 active torsions:
REMARK  status: ('A' for Active; 'I' for Inactive)
REMARK    1  A    between atoms: C_2  and  C_3
REMARK    2  A    between atoms: C_2  and  C_26
REMARK    3  A    between atoms: C_10  and  N_11
REMARK    4  A    between atoms: C_12  and  C_14
REMARK    5  A    between atoms: C_14  and  C_15
REMARK    6  A    between atoms: N_28  and  C_29
REMARK    7  A    between atoms: C_29  and  C_30
REMARK                            x       y       z     vdW  Elec       q    Type
REMARK                         _______ _______ _______ _____ _____    ______ ____
ROOT
ATOM      3  C   UNL     1      -4.382   0.116  24.389  0.00  0.00    +0.039 C 
ATOM      4  C   UNL     1      -5.021   0.123  24.913  0.00  0.00    +0.003 C 
ATOM      5  C   UNL     1      -5.246   0.826  25.280  0.00  0.00    +0.000 C 
ATOM      6  C   UNL     1      -4.833   1.522  25.125  0.00  0.00    +0.002 C 
ATOM      7  C   UNL     1      -5.470   1.529  25.647  0.00  0.00    +0.000 C 
ATOM      8  C   UNL     1      -5.057   2.226  25.492  0.00  0.00    +0.002 C 
ATOM      9  C   UNL     1      -4.645   2.923  25.337  0.00  0.00    +0.022 C 
ATOM     10  C   UNL     1      -4.006   2.916  24.813  0.00  0.00    +0.095 C 
ATOM     21  C   UNL     1      -3.781   2.213  24.446  0.00  0.00    +0.022 C 
ATOM     22  C   UNL     1      -3.143   2.207  23.923  0.00  0.00    +0.002 C 
ATOM     23  C   UNL     1      -4.194   1.516  24.601  0.00  0.00    +0.032 C 
ATOM     24  C   UNL     1      -3.970   0.813  24.234  0.00  0.00    +0.152 C 
ATOM     25  O   UNL     1      -3.332   0.806  23.711  0.00  0.00    -0.223 OA
ENDROOT
BRANCH  10  11
ATOM     11  N   UNL     1      -3.593   3.614  24.658  0.00  0.00    -0.207 NA
ATOM     12  C   UNL     1      -3.209   4.011  25.270  0.00  0.00    +0.246 C 
ATOM     13  O   UNL     1      -3.238   3.711  26.039  0.00  0.00    -0.273 OA
BRANCH  12  14
ATOM     14  C   UNL     1      -2.796   4.709  25.115  0.00  0.00    +0.113 C 
BRANCH  14  15
ATOM     15  C   UNL     1      -1.972   4.705  25.096  0.00  0.00    -0.013 A 
ATOM     16  C   UNL     1      -1.567   5.280  24.663  0.00  0.00    -0.004 A 
ATOM     17  C   UNL     1      -0.742   5.276  24.644  0.00  0.00    -0.000 A 
ATOM     18  C   UNL     1      -0.322   4.699  25.056  0.00  0.00    -0.000 A 
ATOM     19  C   UNL     1      -0.727   4.123  25.489  0.00  0.00    -0.000 A 
ATOM     20  C   UNL     1      -1.552   4.127  25.508  0.00  0.00    -0.004 A 
ENDBRANCH  14  15
ENDBRANCH  12  14
ENDBRANCH  10  11
BRANCH   3   2
ATOM      1  C   UNL     1      -4.290  -0.694  23.214  0.00  0.00    +0.010 C 
ATOM      2  C   UNL     1      -4.158  -0.588  24.022  0.00  0.00    +0.081 C 
BRANCH   2  26
ATOM     26  C   UNL     1      -3.802  -1.187  24.463  0.00  0.00    +0.241 C 
ATOM     27  O   UNL     1      -4.268  -1.732  24.873  0.00  0.00    -0.273 OA
ATOM     28  N   UNL     1      -2.979  -1.243  24.495  0.00  0.00    -0.201 NA
BRANCH  28  29
ATOM     29  C   UNL     1      -2.623  -1.842  24.935  0.00  0.00    +0.141 C 
BRANCH  29  30
ATOM     30  C   UNL     1      -1.803  -1.858  25.023  0.00  0.00    -0.001 A 
ATOM     31  C   UNL     1      -1.432  -1.332  25.541  0.00  0.00    -0.003 A 
ATOM     32  C   UNL     1      -0.613  -1.349  25.628  0.00  0.00    -0.000 A 
ATOM     33  C   UNL     1      -0.162  -1.891  25.199  0.00  0.00    -0.000 A 
ATOM     34  C   UNL     1      -0.533  -2.416  24.681  0.00  0.00    -0.000 A 
ATOM     35  C   UNL     1      -1.353  -2.400  24.593  0.00  0.00    -0.003 A 
ENDBRANCH  29  30
ENDBRANCH  28  29
ENDBRANCH   2  26
ENDBRANCH   3   2
TORSDOF 7
ENDMDL
