MODEL 1
REMARK VINA RESULT:     -12.6      0.000      0.000
REMARK  Name = 
REMARK  6 active torsions:
REMARK  status: ('A' for Active; 'I' for Inactive)
REMARK    1  A    between atoms: N_2  and  C_3
REMARK    2  A    between atoms: C_3  and  C_4
REMARK    3  A    between atoms: C_10  and  C_12
REMARK    4  A    between atoms: N_17  and  C_18
REMARK    5  A    between atoms: C_18  and  C_19
REMARK    6  A    between atoms: C_22  and  C_25
REMARK                            x       y       z     vdW  Elec       q    Type
REMARK                         _______ _______ _______ _____ _____    ______ ____
ROOT
ATOM     12  C   UNL     1      -4.124   1.389  24.580  0.00  0.00    +0.142 C 
ATOM     13  C   UNL     1      -4.936   1.358  24.715  0.00  0.00    +0.072 C 
ATOM     14  C   UNL     1      -5.306   1.955  25.148  0.00  0.00    +0.077 A 
ATOM     15  C   UNL     1      -4.862   2.582  25.447  0.00  0.00    +0.090 A 
ATOM     16  C   UNL     1      -4.048   2.614  25.313  0.00  0.00    +0.121 C 
ATOM     17  N   UNL     1      -3.680   2.016  24.879  0.00  0.00    -0.257 NA
ATOM     28  N   UNL     1      -5.374   3.087  25.851  0.00  0.00    -0.226 NA
ATOM     29  C   UNL     1      -6.134   2.772  25.802  0.00  0.00    +0.198 A 
ATOM     30  N   UNL     1      -6.092   2.072  25.368  0.00  0.00    -0.227 NA
ENDROOT
BRANCH  12  10
ATOM      1  C   UNL     1      -4.036  -0.141  25.192  0.00  0.00    +0.115 C 
ATOM      2  N   UNL     1      -3.711   0.027  24.453  0.00  0.00    -0.273 N 
ATOM     10  C   UNL     1      -3.754   0.792  24.147  0.00  0.00    +0.241 C 
ATOM     11  O   UNL     1      -3.428   0.960  23.408  0.00  0.00    -0.273 OA
BRANCH   2   3
ATOM      3  C   UNL     1      -3.341  -0.570  24.019  0.00  0.00    +0.120 C 
BRANCH   3   4
ATOM      4  C   UNL     1      -3.468  -1.361  24.216  0.00  0.00    -0.002 A 
ATOM      5  C   UNL     1      -2.991  -1.728  24.780  0.00  0.00    -0.003 A 
ATOM      6  C   UNL     1      -3.118  -2.519  24.976  0.00  0.00    -0.000 A 
ATOM      7  C   UNL     1      -3.722  -2.944  24.608  0.00  0.00    -0.000 A 
ATOM      8  C   UNL     1      -4.199  -2.577  24.043  0.00  0.00    -0.000 A 
ATOM      9  C   UNL     1      -4.072  -1.785  23.847  0.00  0.00    -0.003 A 
ENDBRANCH   3   4
ENDBRANCH   2   3
ENDBRANCH  12  10
BRANCH  17  18
ATOM     18  C   UNL     1      -2.866   2.048  24.745  0.00  0.00    +0.100 C 
BRANCH  18  19
ATOM     19  C   UNL     1      -2.460   2.760  24.835  0.00  0.00    -0.006 A 
ATOM     20  C   UNL     1      -2.485   3.327  24.237  0.00  0.00    -0.003 A 
ATOM     21  C   UNL     1      -2.079   4.039  24.327  0.00  0.00    +0.006 A 
ATOM     22  C   UNL     1      -1.648   4.185  25.015  0.00  0.00    +0.080 A 
ATOM     23  C   UNL     1      -1.623   3.617  25.614  0.00  0.00    +0.006 A 
ATOM     24  C   UNL     1      -2.029   2.905  25.524  0.00  0.00    -0.003 A 
BRANCH  22  25
ATOM     25  C   UNL     1      -1.241   4.897  25.105  0.00  0.00    +0.388 C 
ATOM     26  O   UNL     1      -1.637   5.566  25.381  0.00  0.00    -0.241 OA
ATOM     27  O   UNL     1      -0.439   4.940  24.918  0.00  0.00    -0.241 OA
ENDBRANCH  22  25
ENDBRANCH  18  19
ENDBRANCH  17  18
TORSDOF 6
ENDMDL
MODEL 2
REMARK VINA RESULT:     -12.2      1.312      4.779
REMARK  Name = 
REMARK  6 active torsions:
REMARK  status: ('A' for Active; 'I' for Inactive)
REMARK    1  A    between atoms: N_2  and  C_3
REMARK    2  A    between atoms: C_3  and  C_4
REMARK    3  A    between atoms: C_10  and  C_12
REMARK    4  A    between atoms: N_17  and  C_18
REMARK    5  A    between atoms: C_18  and  C_19
REMARK    6  A    between atoms: C_22  and  C_25
REMARK                            x       y       z     vdW  Elec       q    Type
REMARK                         _______ _______ _______ _____ _____    ______ ____
ROOT
ATOM     12  C   UNL     1      -4.048   2.113  24.487  0.00  0.00    +0.142 C 
ATOM     13  C   UNL     1      -4.626   2.605  24.808  0.00  0.00    +0.072 C 
ATOM     14  C   UNL     1      -5.267   2.281  25.214  0.00  0.00    +0.077 A 
ATOM     15  C   UNL     1      -5.329   1.462  25.299  0.00  0.00    +0.090 A 
ATOM     16  C   UNL     1      -4.750   0.969  24.979  0.00  0.00    +0.121 C 
ATOM     17  N   UNL     1      -4.109   1.294  24.573  0.00  0.00    -0.257 NA
ATOM     28  N   UNL     1      -6.017   1.302  25.724  0.00  0.00    -0.226 NA
ATOM     29  C   UNL     1      -6.381   2.020  25.901  0.00  0.00    +0.198 A 
ATOM     30  N   UNL     1      -5.917   2.625  25.586  0.00  0.00    -0.227 NA
ENDROOT
BRANCH  12  10
ATOM      1  C   UNL     1      -2.943   3.036  25.294  0.00  0.00    +0.115 C 
ATOM      2  N   UNL     1      -2.855   2.899  24.485  0.00  0.00    -0.273 N 
ATOM     10  C   UNL     1      -3.408   2.437  24.082  0.00  0.00    +0.241 C 
ATOM     11  O   UNL     1      -3.318   2.301  23.273  0.00  0.00    -0.273 OA
BRANCH   2   3
ATOM      3  C   UNL     1      -2.214   3.225  24.079  0.00  0.00    +0.120 C 
BRANCH   3   4
ATOM      4  C   UNL     1      -1.649   3.666  24.487  0.00  0.00    -0.002 A 
ATOM      5  C   UNL     1      -1.781   4.465  24.638  0.00  0.00    -0.003 A 
ATOM      6  C   UNL     1      -1.216   4.907  25.046  0.00  0.00    -0.000 A 
ATOM      7  C   UNL     1      -0.518   4.549  25.302  0.00  0.00    -0.000 A 
ATOM      8  C   UNL     1      -0.386   3.748  25.150  0.00  0.00    -0.000 A 
ATOM      9  C   UNL     1      -0.951   3.307  24.742  0.00  0.00    -0.003 A 
ENDBRANCH   3   4
ENDBRANCH   2   3
ENDBRANCH  12  10
BRANCH  17  18
ATOM     18  C   UNL     1      -3.531   0.801  24.253  0.00  0.00    +0.100 C 
BRANCH  18  19
ATOM     19  C   UNL     1      -3.572  -0.015  24.372  0.00  0.00    -0.006 A 
ATOM     20  C   UNL     1      -3.989  -0.488  23.842  0.00  0.00    -0.003 A 
ATOM     21  C   UNL     1      -4.030  -1.303  23.961  0.00  0.00    +0.006 A 
ATOM     22  C   UNL     1      -3.654  -1.645  24.610  0.00  0.00    +0.080 A 
ATOM     23  C   UNL     1      -3.236  -1.171  25.141  0.00  0.00    +0.006 A 
ATOM     24  C   UNL     1      -3.195  -0.355  25.022  0.00  0.00    -0.003 A 
BRANCH  22  25
ATOM     25  C   UNL     1      -3.694  -2.461  24.729  0.00  0.00    +0.388 C 
ATOM     26  O   UNL     1      -3.490  -2.781  25.461  0.00  0.00    -0.241 OA
ATOM     27  O   UNL     1      -3.939  -2.955  24.115  0.00  0.00    -0.241 OA
ENDBRANCH  22  25
ENDBRANCH  18  19
ENDBRANCH  17  18
TORSDOF 6
ENDMDL
MODEL 3
REMARK VINA RESULT:     -12.0      2.305      3.477
REMARK  Name = 
REMARK  6 active torsions:
REMARK  status: ('A' for Active; 'I' for Inactive)
REMARK    1  A    between atoms: N_2  and  C_3
REMARK    2  A    between atoms: C_3  and  C_4
REMARK    3  A    between atoms: C_10  and  C_12
REMARK    4  A    between atoms: N_17  and  C_18
REMARK    5  A    between atoms: C_18  and  C_19
REMARK    6  A    between atoms: C_22  and  C_25
REMARK                            x       y       z     vdW  Elec       q    Type
REMARK                         _______ _______ _______ _____ _____    ______ ____
ROOT
ATOM     12  C   UNL     1      -0.858   0.028  24.744  0.00  0.00    +0.142 C 
ATOM     13  C   UNL     1      -0.363  -0.403  24.245  0.00  0.00    +0.072 C 
ATOM     14  C   UNL     1       0.229  -0.018  23.817  0.00  0.00    +0.077 A 
ATOM     15  C   UNL     1       0.325   0.798  23.890  0.00  0.00    +0.090 A 
ATOM     16  C   UNL     1      -0.170   1.230  24.390  0.00  0.00    +0.121 C 
ATOM     17  N   UNL     1      -0.762   0.844  24.817  0.00  0.00    -0.257 NA
ATOM     28  N   UNL     1       0.951   1.025  23.404  0.00  0.00    -0.226 NA
ATOM     29  C   UNL     1       1.242   0.349  23.031  0.00  0.00    +0.198 A 
ATOM     30  N   UNL     1       0.795  -0.295  23.287  0.00  0.00    -0.227 NA
ENDROOT
BRANCH  12  10
ATOM      1  C   UNL     1      -2.083  -0.739  23.949  0.00  0.00    +0.115 C 
ATOM      2  N   UNL     1      -2.062  -0.740  24.773  0.00  0.00    -0.273 N 
ATOM     10  C   UNL     1      -1.449  -0.356  25.171  0.00  0.00    +0.241 C 
ATOM     11  O   UNL     1      -1.429  -0.358  25.996  0.00  0.00    -0.273 OA
BRANCH   2   3
ATOM      3  C   UNL     1      -2.654  -1.125  25.201  0.00  0.00    +0.120 C 
BRANCH   3   4
ATOM      4  C   UNL     1      -3.208  -1.593  24.808  0.00  0.00    -0.002 A 
ATOM      5  C   UNL     1      -3.132  -2.414  24.814  0.00  0.00    -0.003 A 
ATOM      6  C   UNL     1      -3.686  -2.882  24.421  0.00  0.00    -0.000 A 
ATOM      7  C   UNL     1      -4.316  -2.530  24.022  0.00  0.00    -0.000 A 
ATOM      8  C   UNL     1      -4.392  -1.708  24.016  0.00  0.00    -0.000 A 
ATOM      9  C   UNL     1      -3.838  -1.239  24.409  0.00  0.00    -0.003 A 
ENDBRANCH   3   4
ENDBRANCH   2   3
ENDBRANCH  12  10
BRANCH  17  18
ATOM     18  C   UNL     1      -1.256   1.276  25.316  0.00  0.00    +0.100 C 
BRANCH  18  19
ATOM     19  C   UNL     1      -1.259   2.100  25.283  0.00  0.00    -0.006 A 
ATOM     20  C   UNL     1      -0.722   2.532  25.736  0.00  0.00    -0.003 A 
ATOM     21  C   UNL     1      -0.724   3.357  25.704  0.00  0.00    +0.006 A 
ATOM     22  C   UNL     1      -1.263   3.749  25.218  0.00  0.00    +0.080 A 
ATOM     23  C   UNL     1      -1.800   3.316  24.764  0.00  0.00    +0.006 A 
ATOM     24  C   UNL     1      -1.798   2.492  24.797  0.00  0.00    -0.003 A 
BRANCH  22  25
ATOM     25  C   UNL     1      -1.266   4.573  25.185  0.00  0.00    +0.388 C 
ATOM     26  O   UNL     1      -1.922   4.995  25.453  0.00  0.00    -0.241 OA
ATOM     27  O   UNL     1      -0.611   4.976  24.885  0.00  0.00    -0.241 OA
ENDBRANCH  22  25
ENDBRANCH  18  19
ENDBRANCH  17  18
TORSDOF 6
ENDMDL
MODEL 4
REMARK VINA RESULT:     -11.8      2.485      5.825
REMARK  Name = 
REMARK  6 active torsions:
REMARK  status: ('A' for Active; 'I' for Inactive)
REMARK    1  A    between atoms: N_2  and  C_3
REMARK    2  A    between atoms: C_3  and  C_4
REMARK    3  A    between atoms: C_10  and  C_12
REMARK    4  A    between atoms: N_17  and  C_18
REMARK    5  A    between atoms: C_18  and  C_19
REMARK    6  A    between atoms: C_22  and  C_25
REMARK                            x       y       z     vdW  Elec       q    Type
REMARK                         _______ _______ _______ _____ _____    ______ ____
ROOT
ATOM     12  C   UNL     1      -0.463   1.090  24.859  0.00  0.00    +0.142 C 
ATOM     13  C   UNL     1       0.218   1.186  24.405  0.00  0.00    +0.072 C 
ATOM     14  C   UNL     1       0.416   0.625  23.833  0.00  0.00    +0.077 A 
ATOM     15  C   UNL     1      -0.068  -0.033  23.716  0.00  0.00    +0.090 A 
ATOM     16  C   UNL     1      -0.751  -0.129  24.171  0.00  0.00    +0.121 C 
ATOM     17  N   UNL     1      -0.948   0.432  24.742  0.00  0.00    -0.257 NA
ATOM     28  N   UNL     1       0.264  -0.491  23.117  0.00  0.00    -0.226 NA
ATOM     29  C   UNL     1       0.954  -0.117  22.863  0.00  0.00    +0.198 A 
ATOM     30  N   UNL     1       1.048   0.572  23.306  0.00  0.00    -0.227 NA
ENDROOT
BRANCH  12  10
ATOM      1  C   UNL     1      -0.861   2.625  24.405  0.00  0.00    +0.115 C 
ATOM      2  N   UNL     1      -0.859   2.418  25.203  0.00  0.00    -0.273 N 
ATOM     10  C   UNL     1      -0.661   1.650  25.430  0.00  0.00    +0.241 C 
ATOM     11  O   UNL     1      -0.660   1.444  26.229  0.00  0.00    -0.273 OA
BRANCH   2   3
ATOM      3  C   UNL     1      -1.057   2.980  25.775  0.00  0.00    +0.120 C 
BRANCH   3   4
ATOM      4  C   UNL     1      -1.342   3.720  25.546  0.00  0.00    -0.002 A 
ATOM      5  C   UNL     1      -0.820   4.294  25.268  0.00  0.00    -0.003 A 
ATOM      6  C   UNL     1      -1.105   5.034  25.039  0.00  0.00    -0.000 A 
ATOM      7  C   UNL     1      -1.912   5.199  25.087  0.00  0.00    -0.000 A 
ATOM      8  C   UNL     1      -2.434   4.623  25.366  0.00  0.00    -0.000 A 
ATOM      9  C   UNL     1      -2.149   3.883  25.595  0.00  0.00    -0.003 A 
ENDBRANCH   3   4
ENDBRANCH   2   3
ENDBRANCH  12  10
BRANCH  17  18
ATOM     18  C   UNL     1      -1.630   0.336  25.196  0.00  0.00    +0.100 C 
BRANCH  18  19
ATOM     19  C   UNL     1      -2.164  -0.267  25.016  0.00  0.00    -0.006 A 
ATOM     20  C   UNL     1      -2.797  -0.118  24.510  0.00  0.00    -0.003 A 
ATOM     21  C   UNL     1      -3.331  -0.720  24.329  0.00  0.00    +0.006 A 
ATOM     22  C   UNL     1      -3.232  -1.471  24.655  0.00  0.00    +0.080 A 
ATOM     23  C   UNL     1      -2.598  -1.620  25.162  0.00  0.00    +0.006 A 
ATOM     24  C   UNL     1      -2.063  -1.018  25.342  0.00  0.00    -0.003 A 
BRANCH  22  25
ATOM     25  C   UNL     1      -3.766  -2.074  24.475  0.00  0.00    +0.388 C 
ATOM     26  O   UNL     1      -4.374  -1.937  23.935  0.00  0.00    -0.241 OA
ATOM     27  O   UNL     1      -3.692  -2.812  24.836  0.00  0.00    -0.241 OA
ENDBRANCH  22  25
ENDBRANCH  18  19
ENDBRANCH  17  18
TORSDOF 6
ENDMDL
MODEL 5
REMARK VINA RESULT:     -11.0      1.951      5.225
REMARK  Name = 
REMARK  6 active torsions:
REMARK  status: ('A' for Active; 'I' for Inactive)
REMARK    1  A    between atoms: N_2  and  C_3
REMARK    2  A    between atoms: C_3  and  C_4
REMARK    3  A    between atoms: C_10  and  C_12
REMARK    4  A    between atoms: N_17  and  C_18
REMARK    5  A    between atoms: C_18  and  C_19
REMARK    6  A    between atoms: C_22  and  C_25
REMARK                            x       y       z     vdW  Elec       q    Type
REMARK                         _______ _______ _______ _____ _____    ______ ____
ROOT
ATOM     12  C   UNL     1      -2.351   1.434  23.864  0.00  0.00    +0.142 C 
ATOM     13  C   UNL     1      -1.595   1.748  23.760  0.00  0.00    +0.072 C 
ATOM     14  C   UNL     1      -0.930   1.290  23.933  0.00  0.00    +0.077 A 
ATOM     15  C   UNL     1      -1.022   0.519  24.210  0.00  0.00    +0.090 A 
ATOM     16  C   UNL     1      -1.779   0.204  24.314  0.00  0.00    +0.121 C 
ATOM     17  N   UNL     1      -2.442   0.663  24.141  0.00  0.00    -0.257 NA
ATOM     28  N   UNL     1      -0.271   0.201  24.333  0.00  0.00    -0.226 NA
ATOM     29  C   UNL     1       0.285   0.776  24.133  0.00  0.00    +0.198 A 
ATOM     30  N   UNL     1      -0.123   1.449  23.885  0.00  0.00    -0.227 NA
ENDROOT
BRANCH  12  10
ATOM      1  C   UNL     1      -2.815   2.636  24.895  0.00  0.00    +0.115 C 
ATOM      2  N   UNL     1      -3.247   2.493  24.207  0.00  0.00    -0.273 N 
ATOM     10  C   UNL     1      -3.014   1.892  23.691  0.00  0.00    +0.241 C 
ATOM     11  O   UNL     1      -3.447   1.749  23.003  0.00  0.00    -0.273 OA
BRANCH   2   3
ATOM      3  C   UNL     1      -3.911   2.951  24.034  0.00  0.00    +0.120 C 
BRANCH   3   4
ATOM      4  C   UNL     1      -4.438   3.156  24.634  0.00  0.00    -0.002 A 
ATOM      5  C   UNL     1      -5.102   2.689  24.778  0.00  0.00    -0.003 A 
ATOM      6  C   UNL     1      -5.629   2.894  25.379  0.00  0.00    -0.000 A 
ATOM      7  C   UNL     1      -5.492   3.567  25.836  0.00  0.00    -0.000 A 
ATOM      8  C   UNL     1      -4.828   4.035  25.691  0.00  0.00    -0.000 A 
ATOM      9  C   UNL     1      -4.301   3.830  25.091  0.00  0.00    -0.003 A 
ENDBRANCH   3   4
ENDBRANCH   2   3
ENDBRANCH  12  10
BRANCH  17  18
ATOM     18  C   UNL     1      -3.198   0.348  24.245  0.00  0.00    +0.100 C 
BRANCH  18  19
ATOM     19  C   UNL     1      -3.292  -0.455  24.408  0.00  0.00    -0.006 A 
ATOM     20  C   UNL     1      -3.379  -0.993  23.790  0.00  0.00    -0.003 A 
ATOM     21  C   UNL     1      -3.474  -1.797  23.954  0.00  0.00    +0.006 A 
ATOM     22  C   UNL     1      -3.481  -2.061  24.735  0.00  0.00    +0.080 A 
ATOM     23  C   UNL     1      -3.393  -1.521  25.354  0.00  0.00    +0.006 A 
ATOM     24  C   UNL     1      -3.299  -0.718  25.190  0.00  0.00    -0.003 A 
BRANCH  22  25
ATOM     25  C   UNL     1      -3.575  -2.864  24.899  0.00  0.00    +0.388 C 
ATOM     26  O   UNL     1      -3.384  -3.158  25.645  0.00  0.00    -0.241 OA
ATOM     27  O   UNL     1      -3.860  -3.373  24.315  0.00  0.00    -0.241 OA
ENDBRANCH  22  25
ENDBRANCH  18  19
ENDBRANCH  17  18
TORSDOF 6
ENDMDL
MODEL 6
REMARK VINA RESULT:     -10.9      1.851      3.069
REMARK  Name = 
REMARK  6 active torsions:
REMARK  status: ('A' for Active; 'I' for Inactive)
REMARK    1  A    between atoms: N_2  and  C_3
REMARK    2  A    between atoms: C_3  and  C_4
REMARK    3  A    between atoms: C_10  and  C_12
REMARK    4  A    between atoms: N_17  and  C_18
REMARK    5  A    between atoms: C_18  and  C_19
REMARK    6  A    between atoms: C_22  and  C_25
REMARK                            x       y       z     vdW  Elec       q    Type
REMARK                         _______ _______ _______ _____ _____    ______ ____
ROOT
ATOM     12  C   UNL     1      -1.743   1.200  24.615  0.00  0.00    +0.142 C 
ATOM     13  C   UNL     1      -1.012   1.197  24.995  0.00  0.00    +0.072 C 
ATOM     14  C   UNL     1      -0.798   1.826  25.485  0.00  0.00    +0.077 A 
ATOM     15  C   UNL     1      -1.317   2.458  25.595  0.00  0.00    +0.090 A 
ATOM     16  C   UNL     1      -2.050   2.461  25.214  0.00  0.00    +0.121 C 
ATOM     17  N   UNL     1      -2.262   1.832  24.724  0.00  0.00    -0.257 NA
ATOM     28  N   UNL     1      -0.959   2.996  26.106  0.00  0.00    -0.226 NA
ATOM     29  C   UNL     1      -0.219   2.698  26.313  0.00  0.00    +0.198 A 
ATOM     30  N   UNL     1      -0.120   1.974  25.929  0.00  0.00    -0.227 NA
ENDROOT
BRANCH  12  10
ATOM      1  C   UNL     1      -1.902  -0.317  25.242  0.00  0.00    +0.115 C 
ATOM      2  N   UNL     1      -2.035  -0.187  24.439  0.00  0.00    -0.273 N 
ATOM     10  C   UNL     1      -1.956   0.572  24.125  0.00  0.00    +0.241 C 
ATOM     11  O   UNL     1      -2.090   0.702  23.321  0.00  0.00    -0.273 OA
BRANCH   2   3
ATOM      3  C   UNL     1      -2.249  -0.816  23.949  0.00  0.00    +0.120 C 
BRANCH   3   4
ATOM      4  C   UNL     1      -2.685  -1.447  24.254  0.00  0.00    -0.002 A 
ATOM      5  C   UNL     1      -2.299  -2.069  24.632  0.00  0.00    -0.003 A 
ATOM      6  C   UNL     1      -2.735  -2.700  24.937  0.00  0.00    -0.000 A 
ATOM      7  C   UNL     1      -3.557  -2.708  24.863  0.00  0.00    -0.000 A 
ATOM      8  C   UNL     1      -3.942  -2.084  24.483  0.00  0.00    -0.000 A 
ATOM      9  C   UNL     1      -3.506  -1.454  24.179  0.00  0.00    -0.003 A 
ENDBRANCH   3   4
ENDBRANCH   2   3
ENDBRANCH  12  10
BRANCH  17  18
ATOM     18  C   UNL     1      -2.994   1.836  24.344  0.00  0.00    +0.100 C 
BRANCH  18  19
ATOM     19  C   UNL     1      -3.619   2.277  24.654  0.00  0.00    -0.006 A 
ATOM     20  C   UNL     1      -4.145   1.928  25.184  0.00  0.00    -0.003 A 
ATOM     21  C   UNL     1      -4.770   2.369  25.495  0.00  0.00    +0.006 A 
ATOM     22  C   UNL     1      -4.868   3.158  25.276  0.00  0.00    +0.080 A 
ATOM     23  C   UNL     1      -4.340   3.507  24.745  0.00  0.00    +0.006 A 
ATOM     24  C   UNL     1      -3.716   3.066  24.434  0.00  0.00    -0.003 A 
BRANCH  22  25
ATOM     25  C   UNL     1      -5.492   3.598  25.586  0.00  0.00    +0.388 C 
ATOM     26  O   UNL     1      -5.582   4.390  25.376  0.00  0.00    -0.241 OA
ATOM     27  O   UNL     1      -6.026   3.246  26.107  0.00  0.00    -0.241 OA
ENDBRANCH  22  25
ENDBRANCH  18  19
ENDBRANCH  17  18
TORSDOF 6
ENDMDL
