REMARK  Name = 
REMARK  5 active torsions:
REMARK  status: ('A' for Active; 'I' for Inactive)
REMARK    1  A    between atoms: S_2  and  N_4
REMARK    2  A    between atoms: S_2  and  C_20
REMARK    3  A    between atoms: C_7  and  C_9
REMARK    4  A    between atoms: C_12  and  C_14
REMARK    5  A    between atoms: C_23  and  C_26
REMARK                            x       y       z     vdW  Elec       q    Type
REMARK                         _______ _______ _______ _____ _____    ______ ____
ROOT
ATOM      4  N   UNL     1       0.715  -2.062   0.000  0.00  0.00    -0.155 NA
ATOM      5  C   UNL     1       1.382  -2.547   0.000  0.00  0.00    +0.096 C 
ATOM      6  C   UNL     1       1.127  -3.332   0.000  0.00  0.00    +0.030 C 
ATOM      7  C   UNL     1       0.302  -3.332   0.000  0.00  0.00    +0.097 C 
ATOM      8  C   UNL     1       0.047  -2.547   0.000  0.00  0.00    +0.105 C 
ENDROOT
BRANCH   7   9
ATOM      9  C   UNL     1      -0.183  -3.999   0.000  0.00  0.00    +0.227 A 
ATOM     10  N   UNL     1       0.072  -4.784   0.000  0.00  0.00    -0.111 NA
ATOM     11  N   UNL     1      -0.596  -5.269   0.000  0.00  0.00    -0.107 NA
ATOM     12  C   UNL     1      -1.263  -4.784   0.000  0.00  0.00    +0.250 A 
ATOM     13  O   UNL     1      -1.008  -3.999   0.000  0.00  0.00    -0.419 OA
BRANCH  12  14
ATOM     14  C   UNL     1      -2.047  -5.039   0.000  0.00  0.00    +0.055 A 
ATOM     15  C   UNL     1      -2.219  -5.846   0.000  0.00  0.00    +0.005 A 
ATOM     16  C   UNL     1      -3.004  -6.101   0.000  0.00  0.00    +0.000 A 
ATOM     17  C   UNL     1      -3.617  -5.549   0.000  0.00  0.00    +0.000 A 
ATOM     18  C   UNL     1      -3.445  -4.742   0.000  0.00  0.00    +0.000 A 
ATOM     19  C   UNL     1      -2.661  -4.487   0.000  0.00  0.00    +0.005 A 
ENDBRANCH  12  14
ENDBRANCH   7   9
BRANCH   4   2
ATOM      1  O   UNL     1       1.540  -1.238   0.000  0.00  0.00    -0.153 OA
ATOM      2  S   UNL     1       0.715  -1.238   0.000  0.00  0.00    +0.063 S 
ATOM      3  O   UNL     1      -0.111  -1.238   0.000  0.00  0.00    -0.153 OA
BRANCH   2  20
ATOM     20  C   UNL     1       0.715  -0.412   0.000  0.00  0.00    +0.122 A 
ATOM     21  C   UNL     1       0.000   0.000   0.000  0.00  0.00    +0.021 A 
ATOM     22  C   UNL     1       0.000   0.825   0.000  0.00  0.00    +0.012 A 
ATOM     23  C   UNL     1       0.715   1.238   0.000  0.00  0.00    +0.069 A 
ATOM     24  C   UNL     1       1.429   0.825   0.000  0.00  0.00    +0.012 A 
ATOM     25  C   UNL     1       1.429   0.000   0.000  0.00  0.00    +0.021 A 
BRANCH  23  26
ATOM     26  C   UNL     1       0.715   2.062   0.000  0.00  0.00    +0.100 C 
ATOM     27  N   UNL     1       0.715   2.888   0.000  0.00  0.00    -0.191 NA
ENDBRANCH  23  26
ENDBRANCH   2  20
ENDBRANCH   4   2
TORSDOF 5
