REMARK  Name = 
REMARK  7 active torsions:
REMARK  status: ('A' for Active; 'I' for Inactive)
REMARK    1  A    between atoms: C_5  and  C_6
REMARK    2  A    between atoms: C_6  and  N_7
REMARK    3  A    between atoms: N_7  and  C_8
REMARK    4  A    between atoms: C_8  and  C_9
REMARK    5  A    between atoms: C_11  and  C_12
REMARK    6  A    between atoms: C_12  and  C_13
REMARK    7  A    between atoms: C_16  and  C_18
REMARK                            x       y       z     vdW  Elec       q    Type
REMARK                         _______ _______ _______ _____ _____    ______ ____
ROOT
ATOM      9  C   UNL     1       2.858   0.000   0.000  0.00  0.00    +0.163 C 
ATOM     10  O   UNL     1       2.143  -0.412   0.000  0.00  0.00    -0.354 OA
ATOM     11  C   UNL     1       1.429   0.000   0.000  0.00  0.00    +0.121 C 
ATOM     25  C   UNL     1       1.429   0.825   0.000  0.00  0.00    +0.033 C 
ATOM     26  C   UNL     1       2.143   1.238   0.000  0.00  0.00    +0.038 C 
ATOM     27  C   UNL     1       2.858   0.825   0.000  0.00  0.00    +0.180 C 
ATOM     28  O   UNL     1       3.572   1.238   0.000  0.00  0.00    -0.220 OA
ENDROOT
BRANCH   9   8
ATOM      8  C   UNL     1       3.572  -0.412   0.000  0.00  0.00    +0.121 C 
BRANCH   8   7
ATOM      7  N   UNL     1       4.287   0.000   0.000  0.00  0.00    -0.211 NA
BRANCH   7   6
ATOM      6  C   UNL     1       5.001  -0.412   0.000  0.00  0.00    +0.115 C 
BRANCH   6   5
ATOM      1  C   UNL     1       7.859   1.238   0.000  0.00  0.00    +0.031 C 
ATOM      2  C   UNL     1       7.145   0.825   0.000  0.00  0.00    -0.022 A 
ATOM      3  C   UNL     1       7.145   0.000   0.000  0.00  0.00    -0.005 A 
ATOM      4  C   UNL     1       6.430  -0.412   0.000  0.00  0.00    -0.003 A 
ATOM      5  C   UNL     1       5.716   0.000   0.000  0.00  0.00    -0.005 A 
ATOM     29  C   UNL     1       5.716   0.825   0.000  0.00  0.00    -0.003 A 
ATOM     30  C   UNL     1       6.430   1.238   0.000  0.00  0.00    -0.005 A 
ENDBRANCH   6   5
ENDBRANCH   7   6
ENDBRANCH   8   7
ENDBRANCH   9   8
BRANCH  11  12
ATOM     12  C   UNL     1       0.715  -0.412   0.000  0.00  0.00    +0.079 C 
BRANCH  12  13
ATOM     13  C   UNL     1       0.715  -1.238   0.000  0.00  0.00    +0.103 A 
ATOM     14  N   UNL     1       1.382  -1.722   0.000  0.00  0.00    -0.081 NA
ATOM     15  O   UNL     1       1.127  -2.507   0.000  0.00  0.00    -0.354 OA
ATOM     16  C   UNL     1       0.302  -2.507   0.000  0.00  0.00    +0.177 A 
ATOM     17  C   UNL     1       0.047  -1.722   0.000  0.00  0.00    +0.058 A 
BRANCH  16  18
ATOM     18  C   UNL     1      -0.183  -3.175   0.000  0.00  0.00    +0.037 A 
ATOM     19  C   UNL     1       0.153  -3.928   0.000  0.00  0.00    +0.005 A 
ATOM     20  C   UNL     1      -0.332  -4.596   0.000  0.00  0.00    +0.030 A 
ATOM     21  C   UNL     1      -1.153  -4.509   0.000  0.00  0.00    +0.140 A 
ATOM     22  F   UNL     1      -1.638  -5.177   0.000  0.00  0.00    -0.204 F 
ATOM     23  C   UNL     1      -1.488  -3.756   0.000  0.00  0.00    +0.030 A 
ATOM     24  C   UNL     1      -1.003  -3.088   0.000  0.00  0.00    +0.005 A 
ENDBRANCH  16  18
ENDBRANCH  12  13
ENDBRANCH  11  12
TORSDOF 7
