MODEL 1
REMARK VINA RESULT:     -13.1      0.000      0.000
REMARK  Name = 
REMARK  7 active torsions:
REMARK  status: ('A' for Active; 'I' for Inactive)
REMARK    1  A    between atoms: C_2  and  C_5
REMARK    2  A    between atoms: C_5  and  C_6
REMARK    3  A    between atoms: C_15  and  C_17
REMARK    4  A    between atoms: C_25  and  C_26
REMARK    5  A    between atoms: C_26  and  C_27
REMARK    6  A    between atoms: N_29  and  C_30
REMARK    7  A    between atoms: C_30  and  C_31
REMARK                            x       y       z     vdW  Elec       q    Type
REMARK                         _______ _______ _______ _____ _____    ______ ____
ROOT
ATOM      6  C   UNL     1       0.721   0.340  23.315  0.00  0.00    +0.247 C 
ATOM      7  O   UNL     1       1.085   1.036  23.567  0.00  0.00    -0.273 OA
ATOM      8  N   UNL     1      -0.098   0.260  23.372  0.00  0.00    -0.154 NA
ATOM      9  C   UNL     1      -0.553   0.875  23.681  0.00  0.00    +0.185 A 
ATOM     10  N   UNL     1      -1.373   0.873  23.770  0.00  0.00    -0.227 NA
ATOM     11  C   UNL     1      -1.594   1.597  24.098  0.00  0.00    +0.063 A 
ATOM     12  C   UNL     1      -0.911   2.046  24.211  0.00  0.00    +0.023 A 
ATOM     13  C   UNL     1      -0.964   2.803  24.534  0.00  0.00    +0.034 C 
ATOM     14  C   UNL     1      -1.699   3.112  24.745  0.00  0.00    +0.010 C 
ATOM     15  C   UNL     1      -1.751   3.868  25.068  0.00  0.00    +0.059 C 
ATOM     16  C   UNL     1      -0.936   3.817  24.956  0.00  0.00    +0.005 C 
ATOM     19  C   UNL     1      -2.487   4.178  25.279  0.00  0.00    +0.154 C 
ATOM     20  O   UNL     1      -2.540   4.935  25.602  0.00  0.00    -0.223 OA
ATOM     21  C   UNL     1      -3.170   3.729  25.166  0.00  0.00    +0.033 C 
ATOM     22  C   UNL     1      -3.118   2.971  24.843  0.00  0.00    +0.003 C 
ATOM     23  C   UNL     1      -2.382   2.663  24.632  0.00  0.00    +0.006 C 
ATOM     24  C   UNL     1      -3.065   2.215  24.520  0.00  0.00    +0.000 C 
ATOM     25  C   UNL     1      -2.330   1.906  24.309  0.00  0.00    +0.050 C 
ATOM     37  S   UNL     1      -0.267   1.599  23.952  0.00  0.00    -0.054 S 
ENDROOT
BRANCH  15  17
ATOM     17  C   UNL     1      -1.521   4.608  25.353  0.00  0.00    +0.184 C 
ATOM     18  O   UNL     1      -0.811   4.944  25.102  0.00  0.00    -0.220 OA
ENDBRANCH  15  17
BRANCH   6   5
ATOM      5  C   UNL     1       1.176  -0.275  23.007  0.00  0.00    +0.087 C 
BRANCH   5   2
ATOM      1  C   UNL     1       2.516   0.061  22.105  0.00  0.00    +0.000 C 
ATOM      2  C   UNL     1       1.846  -0.107  22.557  0.00  0.00    +0.009 C 
ATOM      3  C   UNL     1       1.415  -0.240  21.866  0.00  0.00    +0.000 C 
ATOM      4  C   UNL     1       2.278   0.026  23.247  0.00  0.00    +0.000 C 
ENDBRANCH   5   2
ENDBRANCH   6   5
BRANCH  25  26
ATOM     26  C   UNL     1      -3.013   1.458  24.197  0.00  0.00    +0.093 C 
BRANCH  26  27
ATOM     27  C   UNL     1      -3.207   0.861  24.731  0.00  0.00    +0.242 C 
ATOM     28  O   UNL     1      -3.141   0.997  25.542  0.00  0.00    -0.273 OA
ATOM     29  N   UNL     1      -3.468   0.128  24.456  0.00  0.00    -0.201 NA
BRANCH  29  30
ATOM     30  C   UNL     1      -3.663  -0.468  24.990  0.00  0.00    +0.141 C 
BRANCH  30  31
ATOM     31  C   UNL     1      -3.730  -1.248  24.731  0.00  0.00    -0.001 A 
ATOM     32  C   UNL     1      -3.310  -1.848  25.114  0.00  0.00    -0.003 A 
ATOM     33  C   UNL     1      -3.377  -2.629  24.855  0.00  0.00    -0.000 A 
ATOM     34  C   UNL     1      -3.864  -2.810  24.213  0.00  0.00    -0.000 A 
ATOM     35  C   UNL     1      -4.282  -2.211  23.831  0.00  0.00    -0.000 A 
ATOM     36  C   UNL     1      -4.215  -1.430  24.090  0.00  0.00    -0.003 A 
ENDBRANCH  30  31
ENDBRANCH  29  30
ENDBRANCH  26  27
ENDBRANCH  25  26
TORSDOF 7
ENDMDL
MODEL 2
REMARK VINA RESULT:     -12.7      2.064      5.868
REMARK  Name = 
REMARK  7 active torsions:
REMARK  status: ('A' for Active; 'I' for Inactive)
REMARK    1  A    between atoms: C_2  and  C_5
REMARK    2  A    between atoms: C_5  and  C_6
REMARK    3  A    between atoms: C_15  and  C_17
REMARK    4  A    between atoms: C_25  and  C_26
REMARK    5  A    between atoms: C_26  and  C_27
REMARK    6  A    between atoms: N_29  and  C_30
REMARK    7  A    between atoms: C_30  and  C_31
REMARK                            x       y       z     vdW  Elec       q    Type
REMARK                         _______ _______ _______ _____ _____    ______ ____
ROOT
ATOM      6  C   UNL     1      -4.985   1.653  24.732  0.00  0.00    +0.247 C 
ATOM      7  O   UNL     1      -5.185   0.865  24.867  0.00  0.00    -0.273 OA
ATOM      8  N   UNL     1      -4.197   1.862  24.605  0.00  0.00    -0.154 NA
ATOM      9  C   UNL     1      -3.610   1.282  24.612  0.00  0.00    +0.185 A 
ATOM     10  N   UNL     1      -2.803   1.408  24.494  0.00  0.00    -0.227 NA
ATOM     11  C   UNL     1      -2.421   0.679  24.548  0.00  0.00    +0.063 A 
ATOM     12  C   UNL     1      -2.992   0.103  24.700  0.00  0.00    +0.023 A 
ATOM     13  C   UNL     1      -2.768  -0.687  24.782  0.00  0.00    +0.034 C 
ATOM     14  C   UNL     1      -1.975  -0.901  24.713  0.00  0.00    +0.010 C 
ATOM     15  C   UNL     1      -1.752  -1.691  24.795  0.00  0.00    +0.059 C 
ATOM     16  C   UNL     1      -2.567  -1.760  24.907  0.00  0.00    +0.005 C 
ATOM     19  C   UNL     1      -0.958  -1.905  24.726  0.00  0.00    +0.154 C 
ATOM     20  O   UNL     1      -0.735  -2.695  24.808  0.00  0.00    -0.223 OA
ATOM     21  C   UNL     1      -0.388  -1.329  24.574  0.00  0.00    +0.033 C 
ATOM     22  C   UNL     1      -0.611  -0.539  24.492  0.00  0.00    +0.003 C 
ATOM     23  C   UNL     1      -1.404  -0.325  24.561  0.00  0.00    +0.006 C 
ATOM     24  C   UNL     1      -0.834   0.251  24.410  0.00  0.00    +0.000 C 
ATOM     25  C   UNL     1      -1.627   0.465  24.479  0.00  0.00    +0.050 C 
ATOM     37  S   UNL     1      -3.727   0.476  24.739  0.00  0.00    -0.054 S 
ENDROOT
BRANCH  15  17
ATOM     17  C   UNL     1      -1.812  -2.505  24.916  0.00  0.00    +0.184 C 
ATOM     18  O   UNL     1      -2.547  -2.876  24.873  0.00  0.00    -0.220 OA
ENDBRANCH  15  17
BRANCH   6   5
ATOM      5  C   UNL     1      -5.572   2.233  24.725  0.00  0.00    +0.087 C 
BRANCH   5   2
ATOM      1  C   UNL     1      -6.335   2.652  26.126  0.00  0.00    +0.000 C 
ATOM      2  C   UNL     1      -5.953   2.442  25.425  0.00  0.00    +0.009 C 
ATOM      3  C   UNL     1      -5.463   3.103  25.495  0.00  0.00    +0.000 C 
ATOM      4  C   UNL     1      -6.443   1.782  25.356  0.00  0.00    +0.000 C 
ENDBRANCH   5   2
ENDBRANCH   6   5
BRANCH  25  26
ATOM     26  C   UNL     1      -1.057   1.040  24.327  0.00  0.00    +0.093 C 
BRANCH  26  27
ATOM     27  C   UNL     1      -0.861   1.591  24.909  0.00  0.00    +0.242 C 
ATOM     28  O   UNL     1      -0.652   1.334  25.665  0.00  0.00    -0.273 OA
ATOM     29  N   UNL     1      -0.874   2.397  24.736  0.00  0.00    -0.201 NA
BRANCH  29  30
ATOM     30  C   UNL     1      -0.678   2.947  25.319  0.00  0.00    +0.141 C 
BRANCH  30  31
ATOM     31  C   UNL     1      -0.889   3.739  25.225  0.00  0.00    -0.001 A 
ATOM     32  C   UNL     1      -0.426   4.238  24.758  0.00  0.00    -0.003 A 
ATOM     33  C   UNL     1      -0.637   5.030  24.665  0.00  0.00    -0.000 A 
ATOM     34  C   UNL     1      -1.311   5.324  25.039  0.00  0.00    -0.000 A 
ATOM     35  C   UNL     1      -1.774   4.826  25.506  0.00  0.00    -0.000 A 
ATOM     36  C   UNL     1      -1.563   4.034  25.599  0.00  0.00    -0.003 A 
ENDBRANCH  30  31
ENDBRANCH  29  30
ENDBRANCH  26  27
ENDBRANCH  25  26
TORSDOF 7
ENDMDL
MODEL 3
REMARK VINA RESULT:     -12.5      2.325      4.437
REMARK  Name = 
REMARK  7 active torsions:
REMARK  status: ('A' for Active; 'I' for Inactive)
REMARK    1  A    between atoms: C_2  and  C_5
REMARK    2  A    between atoms: C_5  and  C_6
REMARK    3  A    between atoms: C_15  and  C_17
REMARK    4  A    between atoms: C_25  and  C_26
REMARK    5  A    between atoms: C_26  and  C_27
REMARK    6  A    between atoms: N_29  and  C_30
REMARK    7  A    between atoms: C_30  and  C_31
REMARK                            x       y       z     vdW  Elec       q    Type
REMARK                         _______ _______ _______ _____ _____    ______ ____
ROOT
ATOM      6  C   UNL     1      -3.754  -1.394  24.077  0.00  0.00    +0.247 C 
ATOM      7  O   UNL     1      -4.322  -1.309  24.669  0.00  0.00    -0.273 OA
ATOM      8  N   UNL     1      -3.435  -0.727  23.713  0.00  0.00    -0.154 NA
ATOM      9  C   UNL     1      -3.684   0.026  23.941  0.00  0.00    +0.185 A 
ATOM     10  N   UNL     1      -3.415   0.740  23.628  0.00  0.00    -0.227 NA
ATOM     11  C   UNL     1      -3.809   1.353  24.016  0.00  0.00    +0.063 A 
ATOM     12  C   UNL     1      -4.321   1.017  24.568  0.00  0.00    +0.023 A 
ATOM     13  C   UNL     1      -4.792   1.501  25.042  0.00  0.00    +0.034 C 
ATOM     14  C   UNL     1      -4.751   2.321  24.964  0.00  0.00    +0.010 C 
ATOM     15  C   UNL     1      -5.222   2.805  25.437  0.00  0.00    +0.059 C 
ATOM     16  C   UNL     1      -5.454   2.063  25.714  0.00  0.00    +0.005 C 
ATOM     19  C   UNL     1      -5.181   3.625  25.359  0.00  0.00    +0.154 C 
ATOM     20  O   UNL     1      -5.652   4.110  25.833  0.00  0.00    -0.223 OA
ATOM     21  C   UNL     1      -4.669   3.961  24.806  0.00  0.00    +0.033 C 
ATOM     22  C   UNL     1      -4.197   3.477  24.332  0.00  0.00    +0.003 C 
ATOM     23  C   UNL     1      -4.239   2.657  24.411  0.00  0.00    +0.006 C 
ATOM     24  C   UNL     1      -3.727   2.993  23.859  0.00  0.00    +0.000 C 
ATOM     25  C   UNL     1      -3.768   2.174  23.937  0.00  0.00    +0.050 C 
ATOM     37  S   UNL     1      -4.243   0.196  24.522  0.00  0.00    -0.054 S 
ENDROOT
BRANCH  15  17
ATOM     17  C   UNL     1      -5.774   3.032  26.007  0.00  0.00    +0.184 C 
ATOM     18  O   UNL     1      -6.086   2.471  26.525  0.00  0.00    -0.220 OA
ENDBRANCH  15  17
BRANCH   6   5
ATOM      5  C   UNL     1      -3.506  -2.147  23.849  0.00  0.00    +0.087 C 
BRANCH   5   2
ATOM      1  C   UNL     1      -3.381  -3.350  24.972  0.00  0.00    +0.000 C 
ATOM      2  C   UNL     1      -3.443  -2.748  24.410  0.00  0.00    +0.009 C 
ATOM      3  C   UNL     1      -4.200  -3.012  24.213  0.00  0.00    +0.000 C 
ATOM      4  C   UNL     1      -2.687  -2.486  24.607  0.00  0.00    +0.000 C 
ENDBRANCH   5   2
ENDBRANCH   6   5
BRANCH  25  26
ATOM     26  C   UNL     1      -3.256   2.510  23.385  0.00  0.00    +0.093 C 
BRANCH  26  27
ATOM     27  C   UNL     1      -2.447   2.356  23.425  0.00  0.00    +0.242 C 
ATOM     28  O   UNL     1      -2.085   1.904  22.837  0.00  0.00    -0.273 OA
ATOM     29  N   UNL     1      -2.000   2.653  24.052  0.00  0.00    -0.201 NA
BRANCH  29  30
ATOM     30  C   UNL     1      -1.191   2.499  24.091  0.00  0.00    +0.141 C 
BRANCH  30  31
ATOM     31  C   UNL     1      -0.786   2.598  24.803  0.00  0.00    -0.001 A 
ATOM     32  C   UNL     1      -0.551   1.939  25.240  0.00  0.00    -0.003 A 
ATOM     33  C   UNL     1      -0.146   2.038  25.952  0.00  0.00    -0.000 A 
ATOM     34  C   UNL     1       0.024   2.798  26.227  0.00  0.00    -0.000 A 
ATOM     35  C   UNL     1      -0.212   3.457  25.790  0.00  0.00    -0.000 A 
ATOM     36  C   UNL     1      -0.616   3.357  25.078  0.00  0.00    -0.003 A 
ENDBRANCH  30  31
ENDBRANCH  29  30
ENDBRANCH  26  27
ENDBRANCH  25  26
TORSDOF 7
ENDMDL
MODEL 4
REMARK VINA RESULT:     -12.4      2.253      4.734
REMARK  Name = 
REMARK  7 active torsions:
REMARK  status: ('A' for Active; 'I' for Inactive)
REMARK    1  A    between atoms: C_2  and  C_5
REMARK    2  A    between atoms: C_5  and  C_6
REMARK    3  A    between atoms: C_15  and  C_17
REMARK    4  A    between atoms: C_25  and  C_26
REMARK    5  A    between atoms: C_26  and  C_27
REMARK    6  A    between atoms: N_29  and  C_30
REMARK    7  A    between atoms: C_30  and  C_31
REMARK                            x       y       z     vdW  Elec       q    Type
REMARK                         _______ _______ _______ _____ _____    ______ ____
ROOT
ATOM      6  C   UNL     1      -0.600   1.927  25.414  0.00  0.00    +0.247 C 
ATOM      7  O   UNL     1      -0.118   1.317  25.137  0.00  0.00    -0.273 OA
ATOM      8  N   UNL     1      -1.406   1.794  25.529  0.00  0.00    -0.154 NA
ATOM      9  C   UNL     1      -1.730   1.053  25.367  0.00  0.00    +0.185 A 
ATOM     10  N   UNL     1      -2.522   0.842  25.456  0.00  0.00    -0.227 NA
ATOM     11  C   UNL     1      -2.601   0.051  25.231  0.00  0.00    +0.063 A 
ATOM     12  C   UNL     1      -1.857  -0.224  25.005  0.00  0.00    +0.023 A 
ATOM     13  C   UNL     1      -1.767  -1.004  24.751  0.00  0.00    +0.034 C 
ATOM     14  C   UNL     1      -2.419  -1.508  24.724  0.00  0.00    +0.010 C 
ATOM     15  C   UNL     1      -2.328  -2.287  24.470  0.00  0.00    +0.059 C 
ATOM     16  C   UNL     1      -1.550  -2.022  24.400  0.00  0.00    +0.005 C 
ATOM     19  C   UNL     1      -2.980  -2.792  24.443  0.00  0.00    +0.154 C 
ATOM     20  O   UNL     1      -2.890  -3.572  24.189  0.00  0.00    -0.223 OA
ATOM     21  C   UNL     1      -3.724  -2.516  24.670  0.00  0.00    +0.033 C 
ATOM     22  C   UNL     1      -3.815  -1.736  24.924  0.00  0.00    +0.003 C 
ATOM     23  C   UNL     1      -3.163  -1.232  24.950  0.00  0.00    +0.006 C 
ATOM     24  C   UNL     1      -3.906  -0.957  25.177  0.00  0.00    +0.000 C 
ATOM     25  C   UNL     1      -3.254  -0.453  25.204  0.00  0.00    +0.050 C 
ATOM     37  S   UNL     1      -1.319   0.396  25.089  0.00  0.00    -0.054 S 
ENDROOT
BRANCH  15  17
ATOM     17  C   UNL     1      -1.967  -2.975  24.192  0.00  0.00    +0.184 C 
ATOM     18  O   UNL     1      -1.206  -2.944  23.876  0.00  0.00    -0.220 OA
ENDBRANCH  15  17
BRANCH   6   5
ATOM      5  C   UNL     1      -0.276   2.668  25.577  0.00  0.00    +0.087 C 
BRANCH   5   2
ATOM      1  C   UNL     1      -0.506   3.917  24.524  0.00  0.00    +0.000 C 
ATOM      2  C   UNL     1      -0.391   3.292  25.050  0.00  0.00    +0.009 C 
ATOM      3  C   UNL     1      -0.928   3.635  25.574  0.00  0.00    +0.000 C 
ATOM      4  C   UNL     1       0.146   2.950  24.526  0.00  0.00    +0.000 C 
ENDBRANCH   5   2
ENDBRANCH   6   5
BRANCH  25  26
ATOM     26  C   UNL     1      -3.997  -0.178  25.431  0.00  0.00    +0.093 C 
BRANCH  26  27
ATOM     27  C   UNL     1      -4.408   0.349  24.947  0.00  0.00    +0.242 C 
ATOM     28  O   UNL     1      -4.519   0.172  24.149  0.00  0.00    -0.273 OA
ATOM     29  N   UNL     1      -4.706   1.051  25.260  0.00  0.00    -0.201 NA
BRANCH  29  30
ATOM     30  C   UNL     1      -5.117   1.577  24.775  0.00  0.00    +0.141 C 
BRANCH  30  31
ATOM     31  C   UNL     1      -5.204   2.365  25.003  0.00  0.00    -0.001 A 
ATOM     32  C   UNL     1      -4.716   2.946  24.677  0.00  0.00    -0.003 A 
ATOM     33  C   UNL     1      -4.803   3.734  24.905  0.00  0.00    -0.000 A 
ATOM     34  C   UNL     1      -5.379   3.942  25.458  0.00  0.00    -0.000 A 
ATOM     35  C   UNL     1      -5.867   3.362  25.783  0.00  0.00    -0.000 A 
ATOM     36  C   UNL     1      -5.780   2.574  25.556  0.00  0.00    -0.003 A 
ENDBRANCH  30  31
ENDBRANCH  29  30
ENDBRANCH  26  27
ENDBRANCH  25  26
TORSDOF 7
ENDMDL
MODEL 5
REMARK VINA RESULT:     -12.0      1.462      4.419
REMARK  Name = 
REMARK  7 active torsions:
REMARK  status: ('A' for Active; 'I' for Inactive)
REMARK    1  A    between atoms: C_2  and  C_5
REMARK    2  A    between atoms: C_5  and  C_6
REMARK    3  A    between atoms: C_15  and  C_17
REMARK    4  A    between atoms: C_25  and  C_26
REMARK    5  A    between atoms: C_26  and  C_27
REMARK    6  A    between atoms: N_29  and  C_30
REMARK    7  A    between atoms: C_30  and  C_31
REMARK                            x       y       z     vdW  Elec       q    Type
REMARK                         _______ _______ _______ _____ _____    ______ ____
ROOT
ATOM      6  C   UNL     1      -3.014  -1.676  24.708  0.00  0.00    +0.247 C 
ATOM      7  O   UNL     1      -2.361  -1.998  24.321  0.00  0.00    -0.273 OA
ATOM      8  N   UNL     1      -3.007  -0.883  24.937  0.00  0.00    -0.154 NA
ATOM      9  C   UNL     1      -2.348  -0.413  24.778  0.00  0.00    +0.185 A 
ATOM     10  N   UNL     1      -2.264   0.384  24.972  0.00  0.00    -0.227 NA
ATOM     11  C   UNL     1      -1.521   0.632  24.711  0.00  0.00    +0.063 A 
ATOM     12  C   UNL     1      -1.148  -0.012  24.355  0.00  0.00    +0.023 A 
ATOM     13  C   UNL     1      -0.390   0.074  24.039  0.00  0.00    +0.034 C 
ATOM     14  C   UNL     1      -0.006   0.802  24.079  0.00  0.00    +0.010 C 
ATOM     15  C   UNL     1       0.751   0.887  23.764  0.00  0.00    +0.059 C 
ATOM     16  C   UNL     1       0.613   0.092  23.593  0.00  0.00    +0.005 C 
ATOM     19  C   UNL     1       1.135   1.616  23.804  0.00  0.00    +0.154 C 
ATOM     20  O   UNL     1       1.893   1.702  23.488  0.00  0.00    -0.223 OA
ATOM     21  C   UNL     1       0.762   2.260  24.160  0.00  0.00    +0.033 C 
ATOM     22  C   UNL     1       0.004   2.175  24.476  0.00  0.00    +0.003 C 
ATOM     23  C   UNL     1      -0.379   1.446  24.435  0.00  0.00    +0.006 C 
ATOM     24  C   UNL     1      -0.753   2.090  24.791  0.00  0.00    +0.000 C 
ATOM     25  C   UNL     1      -1.137   1.362  24.751  0.00  0.00    +0.050 C 
ATOM     37  S   UNL     1      -1.660  -0.658  24.396  0.00  0.00    -0.054 S 
ENDROOT
BRANCH  15  17
ATOM     17  C   UNL     1       1.461   0.697  23.389  0.00  0.00    +0.184 C 
ATOM     18  O   UNL     1       1.529  -0.009  22.969  0.00  0.00    -0.220 OA
ENDBRANCH  15  17
BRANCH   6   5
ATOM      5  C   UNL     1      -3.673  -2.146  24.867  0.00  0.00    +0.087 C 
BRANCH   5   2
ATOM      1  C   UNL     1      -4.214  -3.218  23.736  0.00  0.00    +0.000 C 
ATOM      2  C   UNL     1      -3.943  -2.681  24.302  0.00  0.00    +0.009 C 
ATOM      3  C   UNL     1      -4.385  -2.083  23.945  0.00  0.00    +0.000 C 
ATOM      4  C   UNL     1      -3.502  -3.281  24.659  0.00  0.00    +0.000 C 
ENDBRANCH   5   2
ENDBRANCH   6   5
BRANCH  25  26
ATOM     26  C   UNL     1      -1.509   2.005  25.107  0.00  0.00    +0.093 C 
BRANCH  26  27
ATOM     27  C   UNL     1      -2.093   2.421  24.699  0.00  0.00    +0.242 C 
ATOM     28  O   UNL     1      -1.961   2.657  23.919  0.00  0.00    -0.273 OA
ATOM     29  N   UNL     1      -2.807   2.602  25.070  0.00  0.00    -0.201 NA
BRANCH  29  30
ATOM     30  C   UNL     1      -3.390   3.018  24.661  0.00  0.00    +0.141 C 
BRANCH  30  31
ATOM     31  C   UNL     1      -4.150   3.079  24.976  0.00  0.00    -0.001 A 
ATOM     32  C   UNL     1      -4.724   2.517  24.780  0.00  0.00    -0.003 A 
ATOM     33  C   UNL     1      -5.484   2.578  25.095  0.00  0.00    -0.000 A 
ATOM     34  C   UNL     1      -5.672   3.200  25.604  0.00  0.00    -0.000 A 
ATOM     35  C   UNL     1      -5.099   3.760  25.799  0.00  0.00    -0.000 A 
ATOM     36  C   UNL     1      -4.339   3.700  25.485  0.00  0.00    -0.003 A 
ENDBRANCH  30  31
ENDBRANCH  29  30
ENDBRANCH  26  27
ENDBRANCH  25  26
TORSDOF 7
ENDMDL
MODEL 6
REMARK VINA RESULT:     -11.8      1.524      5.383
REMARK  Name = 
REMARK  7 active torsions:
REMARK  status: ('A' for Active; 'I' for Inactive)
REMARK    1  A    between atoms: C_2  and  C_5
REMARK    2  A    between atoms: C_5  and  C_6
REMARK    3  A    between atoms: C_15  and  C_17
REMARK    4  A    between atoms: C_25  and  C_26
REMARK    5  A    between atoms: C_26  and  C_27
REMARK    6  A    between atoms: N_29  and  C_30
REMARK    7  A    between atoms: C_30  and  C_31
REMARK                            x       y       z     vdW  Elec       q    Type
REMARK                         _______ _______ _______ _____ _____    ______ ____
ROOT
ATOM      6  C   UNL     1      -1.453   2.960  25.596  0.00  0.00    +0.247 C 
ATOM      7  O   UNL     1      -2.237   2.732  25.712  0.00  0.00    -0.273 OA
ATOM      8  N   UNL     1      -0.897   2.405  25.344  0.00  0.00    -0.154 NA
ATOM      9  C   UNL     1      -1.124   1.624  25.208  0.00  0.00    +0.185 A 
ATOM     10  N   UNL     1      -0.631   1.013  24.956  0.00  0.00    -0.227 NA
ATOM     11  C   UNL     1      -1.087   0.328  24.891  0.00  0.00    +0.063 A 
ATOM     12  C   UNL     1      -1.862   0.517  25.104  0.00  0.00    +0.023 A 
ATOM     13  C   UNL     1      -2.446  -0.066  25.091  0.00  0.00    +0.034 C 
ATOM     14  C   UNL     1      -2.256  -0.836  24.867  0.00  0.00    +0.010 C 
ATOM     15  C   UNL     1      -2.840  -1.417  24.855  0.00  0.00    +0.059 C 
ATOM     16  C   UNL     1      -3.287  -0.771  25.105  0.00  0.00    +0.005 C 
ATOM     19  C   UNL     1      -2.651  -2.189  24.630  0.00  0.00    +0.154 C 
ATOM     20  O   UNL     1      -3.235  -2.771  24.618  0.00  0.00    -0.223 OA
ATOM     21  C   UNL     1      -1.876  -2.377  24.418  0.00  0.00    +0.033 C 
ATOM     22  C   UNL     1      -1.291  -1.795  24.430  0.00  0.00    +0.003 C 
ATOM     23  C   UNL     1      -1.482  -1.025  24.655  0.00  0.00    +0.006 C 
ATOM     24  C   UNL     1      -0.707  -1.213  24.443  0.00  0.00    +0.000 C 
ATOM     25  C   UNL     1      -0.897  -0.443  24.667  0.00  0.00    +0.050 C 
ATOM     37  S   UNL     1      -1.884   1.319  25.299  0.00  0.00    -0.054 S 
ENDROOT
BRANCH  15  17
ATOM     17  C   UNL     1      -3.580  -1.776  24.929  0.00  0.00    +0.184 C 
ATOM     18  O   UNL     1      -4.266  -1.321  24.874  0.00  0.00    -0.220 OA
ENDBRANCH  15  17
BRANCH   6   5
ATOM      5  C   UNL     1      -1.225   3.741  25.733  0.00  0.00    +0.087 C 
BRANCH   5   2
ATOM      1  C   UNL     1      -2.036   4.977  24.999  0.00  0.00    +0.000 C 
ATOM      2  C   UNL     1      -1.630   4.358  25.366  0.00  0.00    +0.009 C 
ATOM      3  C   UNL     1      -2.281   4.223  25.855  0.00  0.00    +0.000 C 
ATOM      4  C   UNL     1      -0.980   4.495  24.877  0.00  0.00    +0.000 C 
ENDBRANCH   5   2
ENDBRANCH   6   5
BRANCH  25  26
ATOM     26  C   UNL     1      -0.123  -0.632  24.455  0.00  0.00    +0.093 C 
BRANCH  26  27
ATOM     27  C   UNL     1       0.167  -0.413  23.714  0.00  0.00    +0.242 C 
ATOM     28  O   UNL     1      -0.341  -0.386  23.065  0.00  0.00    -0.273 OA
ATOM     29  N   UNL     1       0.965  -0.223  23.623  0.00  0.00    -0.201 NA
BRANCH  29  30
ATOM     30  C   UNL     1       1.254  -0.004  22.883  0.00  0.00    +0.141 C 
BRANCH  30  31
ATOM     31  C   UNL     1       2.043   0.220  22.798  0.00  0.00    -0.001 A 
ATOM     32  C   UNL     1       2.575  -0.279  22.411  0.00  0.00    -0.003 A 
ATOM     33  C   UNL     1       3.365  -0.055  22.326  0.00  0.00    -0.000 A 
ATOM     34  C   UNL     1       3.623   0.668  22.629  0.00  0.00    -0.000 A 
ATOM     35  C   UNL     1       3.092   1.166  23.016  0.00  0.00    -0.000 A 
ATOM     36  C   UNL     1       2.302   0.942  23.100  0.00  0.00    -0.003 A 
ENDBRANCH  30  31
ENDBRANCH  29  30
ENDBRANCH  26  27
ENDBRANCH  25  26
TORSDOF 7
ENDMDL
MODEL 7
REMARK VINA RESULT:     -11.7      1.428      4.393
REMARK  Name = 
REMARK  7 active torsions:
REMARK  status: ('A' for Active; 'I' for Inactive)
REMARK    1  A    between atoms: C_2  and  C_5
REMARK    2  A    between atoms: C_5  and  C_6
REMARK    3  A    between atoms: C_15  and  C_17
REMARK    4  A    between atoms: C_25  and  C_26
REMARK    5  A    between atoms: C_26  and  C_27
REMARK    6  A    between atoms: N_29  and  C_30
REMARK    7  A    between atoms: C_30  and  C_31
REMARK                            x       y       z     vdW  Elec       q    Type
REMARK                         _______ _______ _______ _____ _____    ______ ____
ROOT
ATOM      6  C   UNL     1       1.381   0.331  23.003  0.00  0.00    +0.247 C 
ATOM      7  O   UNL     1       1.333  -0.487  23.103  0.00  0.00    -0.273 OA
ATOM      8  N   UNL     1       0.755   0.812  23.240  0.00  0.00    -0.154 NA
ATOM      9  C   UNL     1       0.080   0.476  23.576  0.00  0.00    +0.185 A 
ATOM     10  N   UNL     1      -0.586   0.886  23.838  0.00  0.00    -0.227 NA
ATOM     11  C   UNL     1      -1.124   0.334  24.133  0.00  0.00    +0.063 A 
ATOM     12  C   UNL     1      -0.790  -0.416  24.054  0.00  0.00    +0.023 A 
ATOM     13  C   UNL     1      -1.208  -1.081  24.305  0.00  0.00    +0.034 C 
ATOM     14  C   UNL     1      -1.958  -0.998  24.636  0.00  0.00    +0.010 C 
ATOM     15  C   UNL     1      -2.375  -1.663  24.887  0.00  0.00    +0.059 C 
ATOM     16  C   UNL     1      -1.686  -2.022  24.611  0.00  0.00    +0.005 C 
ATOM     19  C   UNL     1      -3.127  -1.579  25.218  0.00  0.00    +0.154 C 
ATOM     20  O   UNL     1      -3.544  -2.245  25.470  0.00  0.00    -0.223 OA
ATOM     21  C   UNL     1      -3.461  -0.829  25.297  0.00  0.00    +0.033 C 
ATOM     22  C   UNL     1      -3.043  -0.163  25.046  0.00  0.00    +0.003 C 
ATOM     23  C   UNL     1      -2.293  -0.247  24.715  0.00  0.00    +0.006 C 
ATOM     24  C   UNL     1      -2.627   0.503  24.795  0.00  0.00    +0.000 C 
ATOM     25  C   UNL     1      -1.876   0.419  24.464  0.00  0.00    +0.050 C 
ATOM     37  S   UNL     1      -0.045  -0.328  23.709  0.00  0.00    -0.054 S 
ENDROOT
BRANCH  15  17
ATOM     17  C   UNL     1      -2.553  -2.454  25.043  0.00  0.00    +0.184 C 
ATOM     18  O   UNL     1      -2.161  -3.053  24.635  0.00  0.00    -0.220 OA
ENDBRANCH  15  17
BRANCH   6   5
ATOM      5  C   UNL     1       2.056   0.666  22.667  0.00  0.00    +0.087 C 
BRANCH   5   2
ATOM      1  C   UNL     1       3.459  -0.198  22.594  0.00  0.00    +0.000 C 
ATOM      2  C   UNL     1       2.757   0.234  22.631  0.00  0.00    +0.009 C 
ATOM      3  C   UNL     1       2.465  -0.187  21.984  0.00  0.00    +0.000 C 
ATOM      4  C   UNL     1       3.050   0.654  23.277  0.00  0.00    +0.000 C 
ENDBRANCH   5   2
ENDBRANCH   6   5
BRANCH  25  26
ATOM     26  C   UNL     1      -2.210   1.168  24.543  0.00  0.00    +0.093 C 
BRANCH  26  27
ATOM     27  C   UNL     1      -1.929   1.686  25.120  0.00  0.00    +0.242 C 
ATOM     28  O   UNL     1      -1.651   1.391  25.838  0.00  0.00    -0.273 OA
ATOM     29  N   UNL     1      -1.927   2.499  24.980  0.00  0.00    -0.201 NA
BRANCH  29  30
ATOM     30  C   UNL     1      -1.647   3.016  25.557  0.00  0.00    +0.141 C 
BRANCH  30  31
ATOM     31  C   UNL     1      -1.560   3.819  25.385  0.00  0.00    -0.001 A 
ATOM     32  C   UNL     1      -2.170   4.347  25.560  0.00  0.00    -0.003 A 
ATOM     33  C   UNL     1      -2.084   5.149  25.388  0.00  0.00    -0.000 A 
ATOM     34  C   UNL     1      -1.388   5.424  25.041  0.00  0.00    -0.000 A 
ATOM     35  C   UNL     1      -0.778   4.896  24.866  0.00  0.00    -0.000 A 
ATOM     36  C   UNL     1      -0.865   4.094  25.038  0.00  0.00    -0.003 A 
ENDBRANCH  30  31
ENDBRANCH  29  30
ENDBRANCH  26  27
ENDBRANCH  25  26
TORSDOF 7
ENDMDL
MODEL 8
REMARK VINA RESULT:     -11.5      1.668      2.550
REMARK  Name = 
REMARK  7 active torsions:
REMARK  status: ('A' for Active; 'I' for Inactive)
REMARK    1  A    between atoms: C_2  and  C_5
REMARK    2  A    between atoms: C_5  and  C_6
REMARK    3  A    between atoms: C_15  and  C_17
REMARK    4  A    between atoms: C_25  and  C_26
REMARK    5  A    between atoms: C_26  and  C_27
REMARK    6  A    between atoms: N_29  and  C_30
REMARK    7  A    between atoms: C_30  and  C_31
REMARK                            x       y       z     vdW  Elec       q    Type
REMARK                         _______ _______ _______ _____ _____    ______ ____
ROOT
ATOM      6  C   UNL     1      -0.953   1.967  23.707  0.00  0.00    +0.247 C 
ATOM      7  O   UNL     1      -1.094   2.734  23.976  0.00  0.00    -0.273 OA
ATOM      8  N   UNL     1      -1.555   1.405  23.734  0.00  0.00    -0.154 NA
ATOM      9  C   UNL     1      -2.298   1.609  24.030  0.00  0.00    +0.185 A 
ATOM     10  N   UNL     1      -2.949   1.106  24.091  0.00  0.00    -0.227 NA
ATOM     11  C   UNL     1      -3.574   1.538  24.416  0.00  0.00    +0.063 A 
ATOM     12  C   UNL     1      -3.307   2.306  24.556  0.00  0.00    +0.023 A 
ATOM     13  C   UNL     1      -3.817   2.866  24.882  0.00  0.00    +0.034 C 
ATOM     14  C   UNL     1      -4.593   2.659  25.069  0.00  0.00    +0.010 C 
ATOM     15  C   UNL     1      -5.103   3.219  25.395  0.00  0.00    +0.059 C 
ATOM     16  C   UNL     1      -4.421   3.676  25.312  0.00  0.00    +0.005 C 
ATOM     19  C   UNL     1      -5.879   3.012  25.582  0.00  0.00    +0.154 C 
ATOM     20  O   UNL     1      -6.390   3.572  25.908  0.00  0.00    -0.223 OA
ATOM     21  C   UNL     1      -6.146   2.244  25.442  0.00  0.00    +0.033 C 
ATOM     22  C   UNL     1      -5.636   1.682  25.115  0.00  0.00    +0.003 C 
ATOM     23  C   UNL     1      -4.860   1.891  24.929  0.00  0.00    +0.006 C 
ATOM     24  C   UNL     1      -5.126   1.123  24.789  0.00  0.00    +0.000 C 
ATOM     25  C   UNL     1      -4.351   1.330  24.602  0.00  0.00    +0.050 C 
ATOM     37  S   UNL     1      -2.518   2.349  24.317  0.00  0.00    -0.054 S 
ENDROOT
BRANCH  15  17
ATOM     17  C   UNL     1      -5.376   3.938  25.693  0.00  0.00    +0.184 C 
ATOM     18  O   UNL     1      -4.866   4.584  25.745  0.00  0.00    -0.220 OA
ENDBRANCH  15  17
BRANCH   6   5
ATOM      5  C   UNL     1      -0.210   1.764  23.411  0.00  0.00    +0.087 C 
BRANCH   5   2
ATOM      1  C   UNL     1       1.021   1.402  24.448  0.00  0.00    +0.000 C 
ATOM      2  C   UNL     1       0.405   1.583  23.929  0.00  0.00    +0.009 C 
ATOM      3  C   UNL     1       0.339   0.785  23.730  0.00  0.00    +0.000 C 
ATOM      4  C   UNL     1       0.471   2.380  24.130  0.00  0.00    +0.000 C 
ENDBRANCH   5   2
ENDBRANCH   6   5
BRANCH  25  26
ATOM     26  C   UNL     1      -4.617   0.563  24.463  0.00  0.00    +0.093 C 
BRANCH  26  27
ATOM     27  C   UNL     1      -4.380  -0.053  24.958  0.00  0.00    +0.242 C 
ATOM     28  O   UNL     1      -4.437   0.032  25.776  0.00  0.00    -0.273 OA
ATOM     29  N   UNL     1      -4.087  -0.754  24.634  0.00  0.00    -0.201 NA
BRANCH  29  30
ATOM     30  C   UNL     1      -3.851  -1.369  25.130  0.00  0.00    +0.141 C 
BRANCH  30  31
ATOM     31  C   UNL     1      -3.393  -1.986  24.831  0.00  0.00    -0.001 A 
ATOM     32  C   UNL     1      -3.754  -2.611  24.428  0.00  0.00    -0.003 A 
ATOM     33  C   UNL     1      -3.296  -3.228  24.129  0.00  0.00    -0.000 A 
ATOM     34  C   UNL     1      -2.477  -3.223  24.232  0.00  0.00    -0.000 A 
ATOM     35  C   UNL     1      -2.117  -2.599  24.633  0.00  0.00    -0.000 A 
ATOM     36  C   UNL     1      -2.575  -1.981  24.933  0.00  0.00    -0.003 A 
ENDBRANCH  30  31
ENDBRANCH  29  30
ENDBRANCH  26  27
ENDBRANCH  25  26
TORSDOF 7
ENDMDL
