REMARK  Name = 
REMARK  10 active torsions:
REMARK  status: ('A' for Active; 'I' for Inactive)
REMARK    1  A    between atoms: O_2  and  C_3
REMARK    2  A    between atoms: C_8  and  C_9
REMARK    3  A    between atoms: C_9  and  C_10
REMARK    4  A    between atoms: C_12  and  C_13
REMARK    5  A    between atoms: C_16  and  C_17
REMARK    6  A    between atoms: C_17  and  N_18
REMARK    7  A    between atoms: C_19  and  C_21
REMARK    8  A    between atoms: C_21  and  O_22
REMARK    9  A    between atoms: O_22  and  C_23
REMARK   10  A    between atoms: C_23  and  C_24
REMARK                            x       y       z     vdW  Elec       q    Type
REMARK                         _______ _______ _______ _____ _____    ______ ____
ROOT
ATOM     10  C   UNL     1      -1.183   6.941   0.000  0.00  0.00    +0.026 C 
ATOM     11  C   UNL     1      -0.469   7.353   0.000  0.00  0.00    +0.005 C 
ATOM     12  C   UNL     1       0.245   6.941   0.000  0.00  0.00    +0.006 C 
ATOM     16  C   UNL     1       0.245   6.116   0.000  0.00  0.00    +0.043 C 
ATOM     27  C   UNL     1      -0.469   5.703   0.000  0.00  0.00    -0.033 C 
ATOM     28  C   UNL     1      -1.183   6.116   0.000  0.00  0.00    -0.048 C 
ATOM     29  C   UNL     1      -1.898   5.703   0.000  0.00  0.00    +0.026 C 
ENDROOT
BRANCH  12  13
ATOM     13  C   UNL     1       0.960   7.353   0.000  0.00  0.00    +0.000 C 
ATOM     14  C   UNL     1       1.674   6.941   0.000  0.00  0.00    +0.000 C 
ATOM     15  C   UNL     1       0.960   8.178   0.000  0.00  0.00    +0.000 C 
ENDBRANCH  12  13
BRANCH  10   9
ATOM      9  C   UNL     1      -1.898   7.353   0.000  0.00  0.00    +0.070 C 
BRANCH   9   8
ATOM      3  C   UNL     1      -5.156   5.949   0.000  0.00  0.00    +0.140 A 
ATOM      4  C   UNL     1      -4.743   6.663   0.000  0.00  0.00    +0.058 A 
ATOM      5  C   UNL     1      -3.918   6.663   0.000  0.00  0.00    +0.103 A 
ATOM      6  C   UNL     1      -3.506   5.949   0.000  0.00  0.00    +0.100 A 
ATOM      7  N   UNL     1      -2.699   6.120   0.000  0.00  0.00    -0.229 NA
ATOM      8  C   UNL     1      -2.612   6.941   0.000  0.00  0.00    +0.139 A 
ATOM     30  N   UNL     1      -3.366   7.276   0.000  0.00  0.00    -0.229 NA
ATOM     31  C   UNL     1      -3.918   5.234   0.000  0.00  0.00    +0.024 A 
ATOM     32  C   UNL     1      -4.743   5.234   0.000  0.00  0.00    +0.039 A 
BRANCH   3   2
ATOM      1  C   UNL     1      -6.393   5.234   0.000  0.00  0.00    +0.252 C 
ATOM      2  O   UNL     1      -5.981   5.949   0.000  0.00  0.00    -0.471 OA
ENDBRANCH   3   2
ENDBRANCH   9   8
ENDBRANCH  10   9
BRANCH  16  17
ATOM     17  C   UNL     1       0.960   5.703   0.000  0.00  0.00    +0.119 C 
BRANCH  17  18
ATOM     18  N   UNL     1       1.674   6.116   0.000  0.00  0.00    -0.203 NA
ATOM     19  C   UNL     1       2.389   5.703   0.000  0.00  0.00    +0.272 C 
ATOM     20  O   UNL     1       2.389   4.878   0.000  0.00  0.00    -0.271 OA
BRANCH  19  21
ATOM     21  C   UNL     1       3.103   6.116   0.000  0.00  0.00    +0.229 C 
BRANCH  21  22
ATOM     22  O   UNL     1       3.818   5.703   0.000  0.00  0.00    -0.333 OA
BRANCH  22  23
ATOM     23  C   UNL     1       4.532   6.116   0.000  0.00  0.00    +0.257 C 
BRANCH  23  24
ATOM     24  C   UNL     1       5.247   5.703   0.000  0.00  0.00    +0.394 C 
ATOM     25  O   UNL     1       5.961   6.116   0.000  0.00  0.00    -0.243 OA
ATOM     26  O   UNL     1       5.247   4.878   0.000  0.00  0.00    -0.243 OA
ENDBRANCH  23  24
ENDBRANCH  22  23
ENDBRANCH  21  22
ENDBRANCH  19  21
ENDBRANCH  17  18
ENDBRANCH  16  17
TORSDOF 10
