MODEL 1
REMARK VINA RESULT:      -9.0      0.000      0.000
REMARK  Name = 
REMARK  6 active torsions:
REMARK  status: ('A' for Active; 'I' for Inactive)
REMARK    1  A    between atoms: C_2  and  N_3
REMARK    2  A    between atoms: C_2  and  C_20
REMARK    3  A    between atoms: C_4  and  C_6
REMARK    4  A    between atoms: C_8  and  N_9
REMARK    5  A    between atoms: C_10  and  C_12
REMARK    6  A    between atoms: C_12  and  C_13
REMARK                            x       y       z     vdW  Elec       q    Type
REMARK                         _______ _______ _______ _____ _____    ______ ____
ROOT
ATOM      6  C   UNL     1      -4.348   1.497  24.826  0.00  0.00    +0.033 C 
ATOM      7  C   UNL     1      -3.869   2.156  24.693  0.00  0.00    -0.002 C 
ATOM      8  C   UNL     1      -4.132   2.907  24.908  0.00  0.00    +0.150 C 
ATOM     15  C   UNL     1      -4.875   3.000  25.256  0.00  0.00    +0.206 C 
ATOM     16  O   UNL     1      -5.138   3.752  25.470  0.00  0.00    -0.218 OA
ATOM     17  C   UNL     1      -5.354   2.342  25.388  0.00  0.00    +0.189 C 
ATOM     18  O   UNL     1      -6.096   2.435  25.736  0.00  0.00    -0.220 OA
ATOM     19  C   UNL     1      -5.090   1.590  25.173  0.00  0.00    +0.066 C 
ENDROOT
BRANCH   6   4
ATOM      3  N   UNL     1      -3.929   0.181  25.191  0.00  0.00    -0.194 NA
ATOM      4  C   UNL     1      -4.084   0.746  24.611  0.00  0.00    +0.261 C 
ATOM      5  O   UNL     1      -3.975   0.559  23.814  0.00  0.00    -0.269 OA
BRANCH   3   2
ATOM      1  C   UNL     1      -3.843  -0.873  24.228  0.00  0.00    +0.033 C 
ATOM      2  C   UNL     1      -3.665  -0.571  24.977  0.00  0.00    +0.175 C 
BRANCH   2  20
ATOM     20  C   UNL     1      -3.225  -1.022  25.508  0.00  0.00    +0.281 C 
ATOM     21  N   UNL     1      -2.415  -1.123  25.391  0.00  0.00    -0.086 NA
ATOM     22  O   UNL     1      -3.594  -1.371  26.158  0.00  0.00    -0.270 OA
ENDBRANCH   2  20
ENDBRANCH   3   2
ENDBRANCH   6   4
BRANCH   8   9
ATOM      9  N   UNL     1      -3.654   3.565  24.775  0.00  0.00    -0.200 NA
ATOM     10  C   UNL     1      -2.930   3.635  25.166  0.00  0.00    +0.243 C 
ATOM     11  O   UNL     1      -2.686   3.045  25.689  0.00  0.00    -0.273 OA
BRANCH  10  12
ATOM     12  C   UNL     1      -2.451   4.294  25.034  0.00  0.00    +0.107 C 
BRANCH  12  13
ATOM     13  C   UNL     1      -1.675   4.301  25.310  0.00  0.00    +0.119 C 
ATOM     14  N   UNL     1      -1.175   4.931  25.122  0.00  0.00    -0.131 NA
ENDBRANCH  12  13
ENDBRANCH  10  12
ENDBRANCH   8   9
TORSDOF 6
ENDMDL
MODEL 2
REMARK VINA RESULT:      -8.7      1.097      3.773
REMARK  Name = 
REMARK  6 active torsions:
REMARK  status: ('A' for Active; 'I' for Inactive)
REMARK    1  A    between atoms: C_2  and  N_3
REMARK    2  A    between atoms: C_2  and  C_20
REMARK    3  A    between atoms: C_4  and  C_6
REMARK    4  A    between atoms: C_8  and  N_9
REMARK    5  A    between atoms: C_10  and  C_12
REMARK    6  A    between atoms: C_12  and  C_13
REMARK                            x       y       z     vdW  Elec       q    Type
REMARK                         _______ _______ _______ _____ _____    ______ ____
ROOT
ATOM      6  C   UNL     1      -3.860   3.046  25.141  0.00  0.00    +0.033 C 
ATOM      7  C   UNL     1      -3.957   2.322  24.758  0.00  0.00    -0.002 C 
ATOM      8  C   UNL     1      -4.658   1.897  24.848  0.00  0.00    +0.150 C 
ATOM     15  C   UNL     1      -5.264   2.198  25.321  0.00  0.00    +0.206 C 
ATOM     16  O   UNL     1      -5.966   1.774  25.411  0.00  0.00    -0.218 OA
ATOM     17  C   UNL     1      -5.168   2.922  25.704  0.00  0.00    +0.189 C 
ATOM     18  O   UNL     1      -5.773   3.222  26.177  0.00  0.00    -0.220 OA
ATOM     19  C   UNL     1      -4.466   3.346  25.614  0.00  0.00    +0.066 C 
ENDROOT
BRANCH   6   4
ATOM      3  N   UNL     1      -2.521   3.324  25.553  0.00  0.00    -0.194 NA
ATOM      4  C   UNL     1      -3.159   3.470  25.051  0.00  0.00    +0.261 C 
ATOM      5  O   UNL     1      -3.095   4.041  24.457  0.00  0.00    -0.269 OA
BRANCH   3   2
ATOM      1  C   UNL     1      -1.842   4.544  25.244  0.00  0.00    +0.033 C 
ATOM      2  C   UNL     1      -1.818   3.748  25.463  0.00  0.00    +0.175 C 
BRANCH   2  20
ATOM     20  C   UNL     1      -1.093   3.378  25.592  0.00  0.00    +0.281 C 
ATOM     21  N   UNL     1      -0.493   3.439  25.030  0.00  0.00    -0.086 NA
ATOM     22  O   UNL     1      -0.968   2.945  26.283  0.00  0.00    -0.270 OA
ENDBRANCH   2  20
ENDBRANCH   3   2
ENDBRANCH   6   4
BRANCH   8   9
ATOM      9  N   UNL     1      -4.755   1.174  24.465  0.00  0.00    -0.200 NA
ATOM     10  C   UNL     1      -4.271   0.534  24.663  0.00  0.00    +0.243 C 
ATOM     11  O   UNL     1      -3.692   0.621  25.245  0.00  0.00    -0.273 OA
BRANCH  10  12
ATOM     12  C   UNL     1      -4.368  -0.190  24.280  0.00  0.00    +0.107 C 
BRANCH  12  13
ATOM     13  C   UNL     1      -3.951  -0.852  24.540  0.00  0.00    +0.119 C 
ATOM     14  N   UNL     1      -4.072  -1.584  24.178  0.00  0.00    -0.131 NA
ENDBRANCH  12  13
ENDBRANCH  10  12
ENDBRANCH   8   9
TORSDOF 6
ENDMDL
MODEL 3
REMARK VINA RESULT:      -8.5      1.276      1.539
REMARK  Name = 
REMARK  6 active torsions:
REMARK  status: ('A' for Active; 'I' for Inactive)
REMARK    1  A    between atoms: C_2  and  N_3
REMARK    2  A    between atoms: C_2  and  C_20
REMARK    3  A    between atoms: C_4  and  C_6
REMARK    4  A    between atoms: C_8  and  N_9
REMARK    5  A    between atoms: C_10  and  C_12
REMARK    6  A    between atoms: C_12  and  C_13
REMARK                            x       y       z     vdW  Elec       q    Type
REMARK                         _______ _______ _______ _____ _____    ______ ____
ROOT
ATOM      6  C   UNL     1      -4.136   0.541  24.911  0.00  0.00    +0.033 C 
ATOM      7  C   UNL     1      -3.532   1.021  24.617  0.00  0.00    -0.002 C 
ATOM      8  C   UNL     1      -3.687   1.807  24.423  0.00  0.00    +0.150 C 
ATOM     15  C   UNL     1      -4.447   2.114  24.521  0.00  0.00    +0.206 C 
ATOM     16  O   UNL     1      -4.602   2.901  24.327  0.00  0.00    -0.218 OA
ATOM     17  C   UNL     1      -5.051   1.634  24.815  0.00  0.00    +0.189 C 
ATOM     18  O   UNL     1      -5.810   1.941  24.913  0.00  0.00    -0.220 OA
ATOM     19  C   UNL     1      -4.895   0.848  25.009  0.00  0.00    +0.066 C 
ENDROOT
BRANCH   6   4
ATOM      3  N   UNL     1      -3.917  -0.813  24.510  0.00  0.00    -0.194 NA
ATOM      4  C   UNL     1      -3.980  -0.245  25.105  0.00  0.00    +0.261 C 
ATOM      5  O   UNL     1      -3.887  -0.463  25.896  0.00  0.00    -0.269 OA
BRANCH   3   2
ATOM      1  C   UNL     1      -3.453  -1.788  25.447  0.00  0.00    +0.033 C 
ATOM      2  C   UNL     1      -3.761  -1.600  24.704  0.00  0.00    +0.175 C 
BRANCH   2  20
ATOM     20  C   UNL     1      -3.912  -2.198  24.158  0.00  0.00    +0.281 C 
ATOM     21  N   UNL     1      -3.613  -2.956  24.282  0.00  0.00    -0.086 NA
ATOM     22  O   UNL     1      -4.364  -2.038  23.486  0.00  0.00    -0.270 OA
ENDBRANCH   2  20
ENDBRANCH   3   2
ENDBRANCH   6   4
BRANCH   8   9
ATOM      9  N   UNL     1      -3.084   2.286  24.130  0.00  0.00    -0.200 NA
ATOM     10  C   UNL     1      -2.425   2.453  24.598  0.00  0.00    +0.243 C 
ATOM     11  O   UNL     1      -2.370   2.140  25.359  0.00  0.00    -0.273 OA
BRANCH  10  12
ATOM     12  C   UNL     1      -1.821   2.933  24.304  0.00  0.00    +0.107 C 
BRANCH  12  13
ATOM     13  C   UNL     1      -1.211   3.178  24.802  0.00  0.00    +0.119 C 
ATOM     14  N   UNL     1      -0.624   3.684  24.517  0.00  0.00    -0.131 NA
ENDBRANCH  12  13
ENDBRANCH  10  12
ENDBRANCH   8   9
TORSDOF 6
ENDMDL
MODEL 4
REMARK VINA RESULT:      -8.4      1.787      2.650
REMARK  Name = 
REMARK  6 active torsions:
REMARK  status: ('A' for Active; 'I' for Inactive)
REMARK    1  A    between atoms: C_2  and  N_3
REMARK    2  A    between atoms: C_2  and  C_20
REMARK    3  A    between atoms: C_4  and  C_6
REMARK    4  A    between atoms: C_8  and  N_9
REMARK    5  A    between atoms: C_10  and  C_12
REMARK    6  A    between atoms: C_12  and  C_13
REMARK                            x       y       z     vdW  Elec       q    Type
REMARK                         _______ _______ _______ _____ _____    ______ ____
ROOT
ATOM      6  C   UNL     1      -3.164   0.483  24.327  0.00  0.00    +0.033 C 
ATOM      7  C   UNL     1      -3.798   1.001  24.425  0.00  0.00    -0.002 C 
ATOM      8  C   UNL     1      -3.788   1.740  24.058  0.00  0.00    +0.150 C 
ATOM     15  C   UNL     1      -3.143   1.960  23.592  0.00  0.00    +0.206 C 
ATOM     16  O   UNL     1      -3.134   2.699  23.225  0.00  0.00    -0.218 OA
ATOM     17  C   UNL     1      -2.509   1.442  23.494  0.00  0.00    +0.189 C 
ATOM     18  O   UNL     1      -1.865   1.662  23.028  0.00  0.00    -0.220 OA
ATOM     19  C   UNL     1      -2.520   0.703  23.861  0.00  0.00    +0.066 C 
ENDROOT
BRANCH   6   4
ATOM      3  N   UNL     1      -3.611  -0.874  24.367  0.00  0.00    -0.194 NA
ATOM      4  C   UNL     1      -3.174  -0.255  24.694  0.00  0.00    +0.261 C 
ATOM      5  O   UNL     1      -2.746  -0.376  25.390  0.00  0.00    -0.269 OA
BRANCH   3   2
ATOM      1  C   UNL     1      -3.465  -1.674  25.543  0.00  0.00    +0.033 C 
ATOM      2  C   UNL     1      -3.622  -1.613  24.734  0.00  0.00    +0.175 C 
BRANCH   2  20
ATOM     20  C   UNL     1      -3.789  -2.290  24.295  0.00  0.00    +0.281 C 
ATOM     21  N   UNL     1      -3.321  -2.963  24.380  0.00  0.00    -0.086 NA
ATOM     22  O   UNL     1      -4.426  -2.294  23.770  0.00  0.00    -0.270 OA
ENDBRANCH   2  20
ENDBRANCH   3   2
ENDBRANCH   6   4
BRANCH   8   9
ATOM      9  N   UNL     1      -4.422   2.257  24.156  0.00  0.00    -0.200 NA
ATOM     10  C   UNL     1      -4.589   2.569  24.902  0.00  0.00    +0.243 C 
ATOM     11  O   UNL     1      -4.121   2.362  25.549  0.00  0.00    -0.273 OA
BRANCH  10  12
ATOM     12  C   UNL     1      -5.223   3.087  25.000  0.00  0.00    +0.107 C 
BRANCH  12  13
ATOM     13  C   UNL     1      -5.320   3.490  25.713  0.00  0.00    +0.119 C 
ATOM     14  N   UNL     1      -5.869   4.104  25.769  0.00  0.00    -0.131 NA
ENDBRANCH  12  13
ENDBRANCH  10  12
ENDBRANCH   8   9
TORSDOF 6
ENDMDL
MODEL 5
REMARK VINA RESULT:      -8.3      1.932      3.305
REMARK  Name = 
REMARK  6 active torsions:
REMARK  status: ('A' for Active; 'I' for Inactive)
REMARK    1  A    between atoms: C_2  and  N_3
REMARK    2  A    between atoms: C_2  and  C_20
REMARK    3  A    between atoms: C_4  and  C_6
REMARK    4  A    between atoms: C_8  and  N_9
REMARK    5  A    between atoms: C_10  and  C_12
REMARK    6  A    between atoms: C_12  and  C_13
REMARK                            x       y       z     vdW  Elec       q    Type
REMARK                         _______ _______ _______ _____ _____    ______ ____
ROOT
ATOM      6  C   UNL     1      -3.506   1.708  24.240  0.00  0.00    +0.033 C 
ATOM      7  C   UNL     1      -2.825   1.598  24.691  0.00  0.00    -0.002 C 
ATOM      8  C   UNL     1      -2.083   1.608  24.329  0.00  0.00    +0.150 C 
ATOM     15  C   UNL     1      -2.024   1.727  23.514  0.00  0.00    +0.206 C 
ATOM     16  O   UNL     1      -1.283   1.737  23.152  0.00  0.00    -0.218 OA
ATOM     17  C   UNL     1      -2.706   1.838  23.063  0.00  0.00    +0.189 C 
ATOM     18  O   UNL     1      -2.646   1.957  22.249  0.00  0.00    -0.220 OA
ATOM     19  C   UNL     1      -3.447   1.828  23.426  0.00  0.00    +0.066 C 
ENDROOT
BRANCH   6   4
ATOM      3  N   UNL     1      -4.611   2.408  24.817  0.00  0.00    -0.194 NA
ATOM      4  C   UNL     1      -4.247   1.699  24.602  0.00  0.00    +0.261 C 
ATOM      5  O   UNL     1      -4.624   0.980  24.750  0.00  0.00    -0.269 OA
BRANCH   3   2
ATOM      1  C   UNL     1      -5.894   1.804  24.996  0.00  0.00    +0.033 C 
ATOM      2  C   UNL     1      -5.352   2.399  25.180  0.00  0.00    +0.175 C 
BRANCH   2  20
ATOM     20  C   UNL     1      -5.551   2.983  25.727  0.00  0.00    +0.281 C 
ATOM     21  N   UNL     1      -5.502   3.778  25.517  0.00  0.00    -0.086 NA
ATOM     22  O   UNL     1      -5.799   2.771  26.485  0.00  0.00    -0.270 OA
ENDBRANCH   2  20
ENDBRANCH   3   2
ENDBRANCH   6   4
BRANCH   8   9
ATOM      9  N   UNL     1      -1.403   1.497  24.780  0.00  0.00    -0.200 NA
ATOM     10  C   UNL     1      -1.189   2.056  25.349  0.00  0.00    +0.243 C 
ATOM     11  O   UNL     1      -1.658   2.725  25.465  0.00  0.00    -0.273 OA
BRANCH  10  12
ATOM     12  C   UNL     1      -0.507   1.946  25.800  0.00  0.00    +0.107 C 
BRANCH  12  13
ATOM     13  C   UNL     1      -0.193   2.574  26.232  0.00  0.00    +0.119 C 
ATOM     14  N   UNL     1       0.557   2.507  26.571  0.00  0.00    -0.131 NA
ENDBRANCH  12  13
ENDBRANCH  10  12
ENDBRANCH   8   9
TORSDOF 6
ENDMDL
MODEL 6
REMARK VINA RESULT:      -8.2      2.242      3.336
REMARK  Name = 
REMARK  6 active torsions:
REMARK  status: ('A' for Active; 'I' for Inactive)
REMARK    1  A    between atoms: C_2  and  N_3
REMARK    2  A    between atoms: C_2  and  C_20
REMARK    3  A    between atoms: C_4  and  C_6
REMARK    4  A    between atoms: C_8  and  N_9
REMARK    5  A    between atoms: C_10  and  C_12
REMARK    6  A    between atoms: C_12  and  C_13
REMARK                            x       y       z     vdW  Elec       q    Type
REMARK                         _______ _______ _______ _____ _____    ______ ____
ROOT
ATOM      6  C   UNL     1      -1.459   0.229  24.967  0.00  0.00    +0.033 C 
ATOM      7  C   UNL     1      -1.389   0.996  25.265  0.00  0.00    -0.002 C 
ATOM      8  C   UNL     1      -0.769   1.480  25.017  0.00  0.00    +0.150 C 
ATOM     15  C   UNL     1      -0.218   1.196  24.472  0.00  0.00    +0.206 C 
ATOM     16  O   UNL     1       0.403   1.680  24.224  0.00  0.00    -0.218 OA
ATOM     17  C   UNL     1      -0.287   0.430  24.174  0.00  0.00    +0.189 C 
ATOM     18  O   UNL     1       0.263   0.147  23.630  0.00  0.00    -0.220 OA
ATOM     19  C   UNL     1      -0.909  -0.053  24.423  0.00  0.00    +0.066 C 
ENDROOT
BRANCH   6   4
ATOM      3  N   UNL     1      -2.749  -0.343  24.741  0.00  0.00    -0.194 NA
ATOM      4  C   UNL     1      -2.080  -0.254  25.215  0.00  0.00    +0.261 C 
ATOM      5  O   UNL     1      -2.031  -0.649  25.939  0.00  0.00    -0.269 OA
BRANCH   3   2
ATOM      1  C   UNL     1      -3.326  -1.214  25.717  0.00  0.00    +0.033 C 
ATOM      2  C   UNL     1      -3.370  -0.826  24.989  0.00  0.00    +0.175 C 
BRANCH   2  20
ATOM     20  C   UNL     1      -4.035  -0.922  24.510  0.00  0.00    +0.281 C 
ATOM     21  N   UNL     1      -4.164  -1.639  24.124  0.00  0.00    -0.086 NA
ATOM     22  O   UNL     1      -4.570  -0.301  24.418  0.00  0.00    -0.270 OA
ENDBRANCH   2  20
ENDBRANCH   3   2
ENDBRANCH   6   4
BRANCH   8   9
ATOM      9  N   UNL     1      -0.699   2.245  25.314  0.00  0.00    -0.200 NA
ATOM     10  C   UNL     1      -1.278   2.809  25.143  0.00  0.00    +0.243 C 
ATOM     11  O   UNL     1      -1.925   2.605  24.675  0.00  0.00    -0.273 OA
BRANCH  10  12
ATOM     12  C   UNL     1      -1.208   3.575  25.440  0.00  0.00    +0.107 C 
BRANCH  12  13
ATOM     13  C   UNL     1      -1.710   4.170  25.169  0.00  0.00    +0.119 C 
ATOM     14  N   UNL     1      -1.528   4.962  25.314  0.00  0.00    -0.131 NA
ENDBRANCH  12  13
ENDBRANCH  10  12
ENDBRANCH   8   9
TORSDOF 6
ENDMDL
MODEL 7
REMARK VINA RESULT:      -8.2      1.776      4.564
REMARK  Name = 
REMARK  6 active torsions:
REMARK  status: ('A' for Active; 'I' for Inactive)
REMARK    1  A    between atoms: C_2  and  N_3
REMARK    2  A    between atoms: C_2  and  C_20
REMARK    3  A    between atoms: C_4  and  C_6
REMARK    4  A    between atoms: C_8  and  N_9
REMARK    5  A    between atoms: C_10  and  C_12
REMARK    6  A    between atoms: C_12  and  C_13
REMARK                            x       y       z     vdW  Elec       q    Type
REMARK                         _______ _______ _______ _____ _____    ______ ____
ROOT
ATOM      6  C   UNL     1      -2.422   1.506  24.673  0.00  0.00    +0.033 C 
ATOM      7  C   UNL     1      -2.517   0.706  24.497  0.00  0.00    -0.002 C 
ATOM      8  C   UNL     1      -1.950   0.158  24.740  0.00  0.00    +0.150 C 
ATOM     15  C   UNL     1      -1.286   0.412  25.159  0.00  0.00    +0.206 C 
ATOM     16  O   UNL     1      -0.718  -0.135  25.402  0.00  0.00    -0.218 OA
ATOM     17  C   UNL     1      -1.190   1.213  25.335  0.00  0.00    +0.189 C 
ATOM     18  O   UNL     1      -0.527   1.466  25.754  0.00  0.00    -0.220 OA
ATOM     19  C   UNL     1      -1.758   1.759  25.092  0.00  0.00    +0.066 C 
ENDROOT
BRANCH   6   4
ATOM      3  N   UNL     1      -3.551   2.331  24.966  0.00  0.00    -0.194 NA
ATOM      4  C   UNL     1      -2.989   2.052  24.429  0.00  0.00    +0.261 C 
ATOM      5  O   UNL     1      -2.996   2.320  23.648  0.00  0.00    -0.269 OA
BRANCH   3   2
ATOM      1  C   UNL     1      -4.128   3.143  23.940  0.00  0.00    +0.033 C 
ATOM      2  C   UNL     1      -4.119   2.878  24.722  0.00  0.00    +0.175 C 
BRANCH   2  20
ATOM     20  C   UNL     1      -4.677   3.160  25.260  0.00  0.00    +0.281 C 
ATOM     21  N   UNL     1      -5.407   2.783  25.332  0.00  0.00    -0.086 NA
ATOM     22  O   UNL     1      -4.506   3.819  25.725  0.00  0.00    -0.270 OA
ENDBRANCH   2  20
ENDBRANCH   3   2
ENDBRANCH   6   4
BRANCH   8   9
ATOM      9  N   UNL     1      -2.046  -0.641  24.564  0.00  0.00    -0.200 NA
ATOM     10  C   UNL     1      -2.676  -1.063  24.890  0.00  0.00    +0.243 C 
ATOM     11  O   UNL     1      -3.210  -0.684  25.392  0.00  0.00    -0.273 OA
BRANCH  10  12
ATOM     12  C   UNL     1      -2.772  -1.863  24.714  0.00  0.00    +0.107 C 
BRANCH  12  13
ATOM     13  C   UNL     1      -3.494  -2.233  24.858  0.00  0.00    +0.119 C 
ATOM     14  N   UNL     1      -3.640  -2.987  24.555  0.00  0.00    -0.131 NA
ENDBRANCH  12  13
ENDBRANCH  10  12
ENDBRANCH   8   9
TORSDOF 6
ENDMDL
MODEL 8
REMARK VINA RESULT:      -8.2      2.070      3.986
REMARK  Name = 
REMARK  6 active torsions:
REMARK  status: ('A' for Active; 'I' for Inactive)
REMARK    1  A    between atoms: C_2  and  N_3
REMARK    2  A    between atoms: C_2  and  C_20
REMARK    3  A    between atoms: C_4  and  C_6
REMARK    4  A    between atoms: C_8  and  N_9
REMARK    5  A    between atoms: C_10  and  C_12
REMARK    6  A    between atoms: C_12  and  C_13
REMARK                            x       y       z     vdW  Elec       q    Type
REMARK                         _______ _______ _______ _____ _____    ______ ____
ROOT
ATOM      6  C   UNL     1      -2.673   3.083  24.991  0.00  0.00    +0.033 C 
ATOM      7  C   UNL     1      -2.269   2.378  25.133  0.00  0.00    -0.002 C 
ATOM      8  C   UNL     1      -1.469   2.393  25.330  0.00  0.00    +0.150 C 
ATOM     15  C   UNL     1      -1.071   3.115  25.384  0.00  0.00    +0.206 C 
ATOM     16  O   UNL     1      -0.270   3.130  25.581  0.00  0.00    -0.218 OA
ATOM     17  C   UNL     1      -1.475   3.820  25.242  0.00  0.00    +0.189 C 
ATOM     18  O   UNL     1      -1.078   4.540  25.296  0.00  0.00    -0.220 OA
ATOM     19  C   UNL     1      -2.276   3.803  25.045  0.00  0.00    +0.066 C 
ENDROOT
BRANCH   6   4
ATOM      3  N   UNL     1      -4.043   2.977  25.385  0.00  0.00    -0.194 NA
ATOM      4  C   UNL     1      -3.474   3.067  24.794  0.00  0.00    +0.261 C 
ATOM      5  O   UNL     1      -3.706   3.141  24.005  0.00  0.00    -0.269 OA
BRANCH   3   2
ATOM      1  C   UNL     1      -5.082   2.678  24.449  0.00  0.00    +0.033 C 
ATOM      2  C   UNL     1      -4.844   2.960  25.188  0.00  0.00    +0.175 C 
BRANCH   2  20
ATOM     20  C   UNL     1      -5.407   3.226  25.729  0.00  0.00    +0.281 C 
ATOM     21  N   UNL     1      -5.713   2.709  26.293  0.00  0.00    -0.086 NA
ATOM     22  O   UNL     1      -5.665   4.009  25.705  0.00  0.00    -0.270 OA
ENDBRANCH   2  20
ENDBRANCH   3   2
ENDBRANCH   6   4
BRANCH   8   9
ATOM      9  N   UNL     1      -1.065   1.689  25.473  0.00  0.00    -0.200 NA
ATOM     10  C   UNL     1      -1.015   1.115  24.881  0.00  0.00    +0.243 C 
ATOM     11  O   UNL     1      -1.369   1.247  24.148  0.00  0.00    -0.273 OA
BRANCH  10  12
ATOM     12  C   UNL     1      -0.611   0.409  25.024  0.00  0.00    +0.107 C 
BRANCH  12  13
ATOM     13  C   UNL     1      -0.647  -0.204  24.474  0.00  0.00    +0.119 C 
ATOM     14  N   UNL     1      -0.310  -0.937  24.652  0.00  0.00    -0.131 NA
ENDBRANCH  12  13
ENDBRANCH  10  12
ENDBRANCH   8   9
TORSDOF 6
ENDMDL
MODEL 9
REMARK VINA RESULT:      -8.2      1.705      3.478
REMARK  Name = 
REMARK  6 active torsions:
REMARK  status: ('A' for Active; 'I' for Inactive)
REMARK    1  A    between atoms: C_2  and  N_3
REMARK    2  A    between atoms: C_2  and  C_20
REMARK    3  A    between atoms: C_4  and  C_6
REMARK    4  A    between atoms: C_8  and  N_9
REMARK    5  A    between atoms: C_10  and  C_12
REMARK    6  A    between atoms: C_12  and  C_13
REMARK                            x       y       z     vdW  Elec       q    Type
REMARK                         _______ _______ _______ _____ _____    ______ ____
ROOT
ATOM      6  C   UNL     1      -3.909   0.422  24.955  0.00  0.00    +0.033 C 
ATOM      7  C   UNL     1      -3.170   0.601  24.636  0.00  0.00    -0.002 C 
ATOM      8  C   UNL     1      -2.540   0.078  24.734  0.00  0.00    +0.150 C 
ATOM     15  C   UNL     1      -2.649  -0.625  25.152  0.00  0.00    +0.206 C 
ATOM     16  O   UNL     1      -2.019  -1.148  25.250  0.00  0.00    -0.218 OA
ATOM     17  C   UNL     1      -3.388  -0.804  25.472  0.00  0.00    +0.189 C 
ATOM     18  O   UNL     1      -3.497  -1.506  25.890  0.00  0.00    -0.220 OA
ATOM     19  C   UNL     1      -4.018  -0.280  25.373  0.00  0.00    +0.066 C 
ENDROOT
BRANCH   6   4
ATOM      3  N   UNL     1      -4.631   1.582  25.374  0.00  0.00    -0.194 NA
ATOM      4  C   UNL     1      -4.538   0.945  24.857  0.00  0.00    +0.261 C 
ATOM      5  O   UNL     1      -5.077   0.832  24.241  0.00  0.00    -0.269 OA
BRANCH   3   2
ATOM      1  C   UNL     1      -5.824   1.969  24.687  0.00  0.00    +0.033 C 
ATOM      2  C   UNL     1      -5.261   2.106  25.276  0.00  0.00    +0.175 C 
BRANCH   2  20
ATOM     20  C   UNL     1      -5.329   2.767  25.764  0.00  0.00    +0.281 C 
ATOM     21  N   UNL     1      -4.962   3.474  25.555  0.00  0.00    -0.086 NA
ATOM     22  O   UNL     1      -5.764   2.719  26.463  0.00  0.00    -0.270 OA
ENDBRANCH   2  20
ENDBRANCH   3   2
ENDBRANCH   6   4
BRANCH   8   9
ATOM      9  N   UNL     1      -1.802   0.257  24.414  0.00  0.00    -0.200 NA
ATOM     10  C   UNL     1      -1.370   0.899  24.705  0.00  0.00    +0.243 C 
ATOM     11  O   UNL     1      -1.679   1.360  25.315  0.00  0.00    -0.273 OA
BRANCH  10  12
ATOM     12  C   UNL     1      -0.631   1.078  24.385  0.00  0.00    +0.107 C 
BRANCH  12  13
ATOM     13  C   UNL     1      -0.222   1.746  24.642  0.00  0.00    +0.119 C 
ATOM     14  N   UNL     1       0.511   1.933  24.311  0.00  0.00    -0.131 NA
ENDBRANCH  12  13
ENDBRANCH  10  12
ENDBRANCH   8   9
TORSDOF 6
ENDMDL
