MODEL 1
REMARK VINA RESULT:      -9.0      0.000      0.000
REMARK  Name = 
REMARK  8 active torsions:
REMARK  status: ('A' for Active; 'I' for Inactive)
REMARK    1  A    between atoms: O_2  and  C_3
REMARK    2  A    between atoms: C_3  and  C_4
REMARK    3  A    between atoms: C_4  and  O_5
REMARK    4  A    between atoms: O_5  and  C_6
REMARK    5  A    between atoms: C_9  and  C_12
REMARK    6  A    between atoms: C_15  and  C_17
REMARK    7  A    between atoms: N_21  and  C_22
REMARK    8  A    between atoms: C_22  and  C_23
REMARK                            x       y       z     vdW  Elec       q    Type
REMARK                         _______ _______ _______ _____ _____    ______ ____
ROOT
ATOM     12  C   UNL     1      -1.064   0.093  24.476  0.00  0.00    +0.205 A 
ATOM     13  N   UNL     1      -1.106   0.016  25.297  0.00  0.00    -0.056 NA
ATOM     14  O   UNL     1      -1.901   0.051  25.516  0.00  0.00    -0.336 OA
ATOM     15  C   UNL     1      -2.350   0.149  24.831  0.00  0.00    +0.251 A 
ATOM     16  N   UNL     1      -1.833   0.175  24.188  0.00  0.00    -0.190 NA
ENDROOT
BRANCH  12   9
ATOM      6  C   UNL     1       1.004   0.079  23.117  0.00  0.00    +0.225 A 
ATOM      7  C   UNL     1       0.648   0.796  23.320  0.00  0.00    +0.058 A 
ATOM      8  C   UNL     1      -0.041   0.800  23.773  0.00  0.00    +0.010 A 
ATOM      9  C   UNL     1      -0.375   0.088  24.023  0.00  0.00    +0.058 A 
ATOM     10  C   UNL     1      -0.020  -0.628  23.820  0.00  0.00    +0.105 A 
ATOM     11  N   UNL     1       0.669  -0.632  23.367  0.00  0.00    -0.210 NA
BRANCH   6   5
ATOM      5  O   UNL     1       1.693   0.074  22.664  0.00  0.00    -0.457 OA
BRANCH   5   4
ATOM      4  C   UNL     1       2.386   0.407  22.963  0.00  0.00    +0.239 C 
BRANCH   4   3
ATOM      3  C   UNL     1       3.095   0.326  22.550  0.00  0.00    +0.189 C 
BRANCH   3   2
ATOM      1  C   UNL     1       4.474   0.481  22.894  0.00  0.00    +0.174 C 
ATOM      2  O   UNL     1       3.736   0.813  22.730  0.00  0.00    -0.347 OA
ENDBRANCH   3   2
ENDBRANCH   4   3
ENDBRANCH   5   4
ENDBRANCH   6   5
ENDBRANCH  12   9
BRANCH  15  17
ATOM     17  C   UNL     1      -3.172   0.210  24.795  0.00  0.00    +0.138 C 
ATOM     18  C   UNL     1      -3.701  -0.415  24.690  0.00  0.00    +0.027 C 
ATOM     19  C   UNL     1      -4.465  -0.104  24.687  0.00  0.00    +0.019 C 
ATOM     20  C   UNL     1      -4.409   0.712  24.790  0.00  0.00    +0.073 C 
ATOM     21  N   UNL     1      -3.610   0.907  24.857  0.00  0.00    -0.263 NA
BRANCH  21  22
ATOM     22  C   UNL     1      -3.303   1.664  24.967  0.00  0.00    +0.099 C 
BRANCH  22  23
ATOM     23  C   UNL     1      -3.786   2.324  24.863  0.00  0.00    -0.006 A 
ATOM     24  C   UNL     1      -3.826   2.695  24.127  0.00  0.00    -0.003 A 
ATOM     25  C   UNL     1      -4.310   3.355  24.023  0.00  0.00    -0.000 A 
ATOM     26  C   UNL     1      -4.752   3.645  24.655  0.00  0.00    -0.000 A 
ATOM     27  C   UNL     1      -4.712   3.276  25.392  0.00  0.00    -0.000 A 
ATOM     28  C   UNL     1      -4.229   2.615  25.495  0.00  0.00    -0.003 A 
ENDBRANCH  22  23
ENDBRANCH  21  22
ENDBRANCH  15  17
TORSDOF 8
ENDMDL
MODEL 2
REMARK VINA RESULT:      -8.4      2.782      3.962
REMARK  Name = 
REMARK  8 active torsions:
REMARK  status: ('A' for Active; 'I' for Inactive)
REMARK    1  A    between atoms: O_2  and  C_3
REMARK    2  A    between atoms: C_3  and  C_4
REMARK    3  A    between atoms: C_4  and  O_5
REMARK    4  A    between atoms: O_5  and  C_6
REMARK    5  A    between atoms: C_9  and  C_12
REMARK    6  A    between atoms: C_15  and  C_17
REMARK    7  A    between atoms: N_21  and  C_22
REMARK    8  A    between atoms: C_22  and  C_23
REMARK                            x       y       z     vdW  Elec       q    Type
REMARK                         _______ _______ _______ _____ _____    ______ ____
ROOT
ATOM     12  C   UNL     1      -1.956   1.985  24.974  0.00  0.00    +0.205 A 
ATOM     13  N   UNL     1      -2.097   2.178  24.184  0.00  0.00    -0.056 NA
ATOM     14  O   UNL     1      -2.837   1.877  23.976  0.00  0.00    -0.336 OA
ATOM     15  C   UNL     1      -3.153   1.499  24.637  0.00  0.00    +0.251 A 
ATOM     16  N   UNL     1      -2.608   1.566  25.254  0.00  0.00    -0.190 NA
ENDROOT
BRANCH  12   9
ATOM      6  C   UNL     1       0.070   2.564  26.273  0.00  0.00    +0.225 A 
ATOM      7  C   UNL     1      -0.551   3.105  26.213  0.00  0.00    +0.058 A 
ATOM      8  C   UNL     1      -1.226   2.912  25.780  0.00  0.00    +0.010 A 
ATOM      9  C   UNL     1      -1.280   2.178  25.407  0.00  0.00    +0.058 A 
ATOM     10  C   UNL     1      -0.661   1.638  25.467  0.00  0.00    +0.105 A 
ATOM     11  N   UNL     1       0.014   1.831  25.900  0.00  0.00    -0.210 NA
BRANCH   6   5
ATOM      5  O   UNL     1       0.745   2.757  26.706  0.00  0.00    -0.457 OA
BRANCH   5   4
ATOM      4  C   UNL     1       0.792   2.561  27.505  0.00  0.00    +0.239 C 
BRANCH   4   3
ATOM      3  C   UNL     1       1.487   2.705  27.925  0.00  0.00    +0.189 C 
BRANCH   3   2
ATOM      1  C   UNL     1       2.219   2.636  29.151  0.00  0.00    +0.174 C 
ATOM      2  O   UNL     1       1.501   2.611  28.745  0.00  0.00    -0.347 OA
ENDBRANCH   3   2
ENDBRANCH   4   3
ENDBRANCH   5   4
ENDBRANCH   6   5
ENDBRANCH  12   9
BRANCH  15  17
ATOM     17  C   UNL     1      -3.884   1.120  24.676  0.00  0.00    +0.138 C 
ATOM     18  C   UNL     1      -4.596   1.464  24.914  0.00  0.00    +0.027 C 
ATOM     19  C   UNL     1      -5.185   0.887  24.869  0.00  0.00    +0.019 C 
ATOM     20  C   UNL     1      -4.837   0.188  24.603  0.00  0.00    +0.073 C 
ATOM     21  N   UNL     1      -4.033   0.332  24.484  0.00  0.00    -0.263 NA
BRANCH  21  22
ATOM     22  C   UNL     1      -3.477  -0.216  24.219  0.00  0.00    +0.099 C 
BRANCH  22  23
ATOM     23  C   UNL     1      -3.623  -1.024  24.298  0.00  0.00    -0.006 A 
ATOM     24  C   UNL     1      -4.052  -1.424  23.717  0.00  0.00    -0.003 A 
ATOM     25  C   UNL     1      -4.198  -2.232  23.796  0.00  0.00    -0.000 A 
ATOM     26  C   UNL     1      -3.917  -2.640  24.455  0.00  0.00    -0.000 A 
ATOM     27  C   UNL     1      -3.488  -2.241  25.036  0.00  0.00    -0.000 A 
ATOM     28  C   UNL     1      -3.342  -1.432  24.957  0.00  0.00    -0.003 A 
ENDBRANCH  22  23
ENDBRANCH  21  22
ENDBRANCH  15  17
TORSDOF 8
ENDMDL
MODEL 3
REMARK VINA RESULT:      -8.3      2.424      3.841
REMARK  Name = 
REMARK  8 active torsions:
REMARK  status: ('A' for Active; 'I' for Inactive)
REMARK    1  A    between atoms: O_2  and  C_3
REMARK    2  A    between atoms: C_3  and  C_4
REMARK    3  A    between atoms: C_4  and  O_5
REMARK    4  A    between atoms: O_5  and  C_6
REMARK    5  A    between atoms: C_9  and  C_12
REMARK    6  A    between atoms: C_15  and  C_17
REMARK    7  A    between atoms: N_21  and  C_22
REMARK    8  A    between atoms: C_22  and  C_23
REMARK                            x       y       z     vdW  Elec       q    Type
REMARK                         _______ _______ _______ _____ _____    ______ ____
ROOT
ATOM     12  C   UNL     1      -0.561   1.660  25.363  0.00  0.00    +0.205 A 
ATOM     13  N   UNL     1       0.073   2.001  25.766  0.00  0.00    -0.056 NA
ATOM     14  O   UNL     1      -0.046   2.818  25.784  0.00  0.00    -0.336 OA
ATOM     15  C   UNL     1      -0.753   2.981  25.393  0.00  0.00    +0.251 A 
ATOM     16  N   UNL     1      -1.071   2.265  25.132  0.00  0.00    -0.190 NA
ENDROOT
BRANCH  12   9
ATOM      6  C   UNL     1      -0.874  -0.756  24.924  0.00  0.00    +0.225 A 
ATOM      7  C   UNL     1      -1.097  -0.436  25.653  0.00  0.00    +0.058 A 
ATOM      8  C   UNL     1      -0.992   0.369  25.799  0.00  0.00    +0.010 A 
ATOM      9  C   UNL     1      -0.665   0.854  25.217  0.00  0.00    +0.058 A 
ATOM     10  C   UNL     1      -0.443   0.536  24.490  0.00  0.00    +0.105 A 
ATOM     11  N   UNL     1      -0.548  -0.270  24.344  0.00  0.00    -0.210 NA
BRANCH   6   5
ATOM      5  O   UNL     1      -0.979  -1.561  24.778  0.00  0.00    -0.457 OA
BRANCH   5   4
ATOM      4  C   UNL     1      -1.664  -1.826  24.404  0.00  0.00    +0.239 C 
BRANCH   4   3
ATOM      3  C   UNL     1      -1.931  -2.597  24.530  0.00  0.00    +0.189 C 
BRANCH   3   2
ATOM      1  C   UNL     1      -3.293  -3.026  24.466  0.00  0.00    +0.174 C 
ATOM      2  O   UNL     1      -2.569  -2.889  24.095  0.00  0.00    -0.347 OA
ENDBRANCH   3   2
ENDBRANCH   4   3
ENDBRANCH   5   4
ENDBRANCH   6   5
ENDBRANCH  12   9
BRANCH  15  17
ATOM     17  C   UNL     1      -1.085   3.727  25.280  0.00  0.00    +0.138 C 
ATOM     18  C   UNL     1      -0.690   4.396  25.002  0.00  0.00    +0.027 C 
ATOM     19  C   UNL     1      -1.231   5.020  24.976  0.00  0.00    +0.019 C 
ATOM     20  C   UNL     1      -1.959   4.736  25.238  0.00  0.00    +0.073 C 
ATOM     21  N   UNL     1      -1.869   3.937  25.426  0.00  0.00    -0.263 NA
BRANCH  21  22
ATOM     22  C   UNL     1      -2.460   3.437  25.710  0.00  0.00    +0.099 C 
BRANCH  22  23
ATOM     23  C   UNL     1      -3.253   3.611  25.567  0.00  0.00    -0.006 A 
ATOM     24  C   UNL     1      -3.711   3.966  26.155  0.00  0.00    -0.003 A 
ATOM     25  C   UNL     1      -4.504   4.140  26.011  0.00  0.00    -0.000 A 
ATOM     26  C   UNL     1      -4.840   3.961  25.280  0.00  0.00    -0.000 A 
ATOM     27  C   UNL     1      -4.383   3.607  24.691  0.00  0.00    -0.000 A 
ATOM     28  C   UNL     1      -3.589   3.432  24.835  0.00  0.00    -0.003 A 
ENDBRANCH  22  23
ENDBRANCH  21  22
ENDBRANCH  15  17
TORSDOF 8
ENDMDL
MODEL 4
REMARK VINA RESULT:      -8.2      1.191      2.657
REMARK  Name = 
REMARK  8 active torsions:
REMARK  status: ('A' for Active; 'I' for Inactive)
REMARK    1  A    between atoms: O_2  and  C_3
REMARK    2  A    between atoms: C_3  and  C_4
REMARK    3  A    between atoms: C_4  and  O_5
REMARK    4  A    between atoms: O_5  and  C_6
REMARK    5  A    between atoms: C_9  and  C_12
REMARK    6  A    between atoms: C_15  and  C_17
REMARK    7  A    between atoms: N_21  and  C_22
REMARK    8  A    between atoms: C_22  and  C_23
REMARK                            x       y       z     vdW  Elec       q    Type
REMARK                         _______ _______ _______ _____ _____    ______ ____
ROOT
ATOM     12  C   UNL     1      -0.669   0.836  24.479  0.00  0.00    +0.205 A 
ATOM     13  N   UNL     1      -0.722   1.096  25.260  0.00  0.00    -0.056 NA
ATOM     14  O   UNL     1      -1.518   1.087  25.479  0.00  0.00    -0.336 OA
ATOM     15  C   UNL     1      -1.956   0.820  24.833  0.00  0.00    +0.251 A 
ATOM     16  N   UNL     1      -1.431   0.666  24.215  0.00  0.00    -0.190 NA
ENDROOT
BRANCH  12   9
ATOM      6  C   UNL     1       1.413   0.608  23.160  0.00  0.00    +0.225 A 
ATOM      7  C   UNL     1       0.861  -0.006  23.170  0.00  0.00    +0.058 A 
ATOM      8  C   UNL     1       0.167   0.070  23.609  0.00  0.00    +0.010 A 
ATOM      9  C   UNL     1       0.025   0.760  24.039  0.00  0.00    +0.058 A 
ATOM     10  C   UNL     1       0.576   1.373  24.030  0.00  0.00    +0.105 A 
ATOM     11  N   UNL     1       1.270   1.297  23.590  0.00  0.00    -0.210 NA
BRANCH   6   5
ATOM      5  O   UNL     1       2.107   0.531  22.720  0.00  0.00    -0.457 OA
BRANCH   5   4
ATOM      4  C   UNL     1       2.838   0.647  23.082  0.00  0.00    +0.239 C 
BRANCH   4   3
ATOM      3  C   UNL     1       3.533   0.499  22.663  0.00  0.00    +0.189 C 
BRANCH   3   2
ATOM      1  C   UNL     1       4.894   0.325  23.066  0.00  0.00    +0.174 C 
ATOM      2  O   UNL     1       4.249   0.819  22.923  0.00  0.00    -0.347 OA
ENDBRANCH   3   2
ENDBRANCH   4   3
ENDBRANCH   5   4
ENDBRANCH   6   5
ENDBRANCH  12   9
BRANCH  15  17
ATOM     17  C   UNL     1      -2.775   0.726  24.809  0.00  0.00    +0.138 C 
ATOM     18  C   UNL     1      -3.333   1.333  24.774  0.00  0.00    +0.027 C 
ATOM     19  C   UNL     1      -4.083   0.989  24.759  0.00  0.00    +0.019 C 
ATOM     20  C   UNL     1      -3.989   0.170  24.784  0.00  0.00    +0.073 C 
ATOM     21  N   UNL     1      -3.181   0.007  24.815  0.00  0.00    -0.263 NA
BRANCH  21  22
ATOM     22  C   UNL     1      -2.839  -0.743  24.847  0.00  0.00    +0.099 C 
BRANCH  22  23
ATOM     23  C   UNL     1      -3.280  -1.407  24.636  0.00  0.00    -0.006 A 
ATOM     24  C   UNL     1      -3.350  -2.039  25.161  0.00  0.00    -0.003 A 
ATOM     25  C   UNL     1      -3.791  -2.703  24.950  0.00  0.00    -0.000 A 
ATOM     26  C   UNL     1      -4.162  -2.736  24.214  0.00  0.00    -0.000 A 
ATOM     27  C   UNL     1      -4.092  -2.104  23.688  0.00  0.00    -0.000 A 
ATOM     28  C   UNL     1      -3.651  -1.439  23.900  0.00  0.00    -0.003 A 
ENDBRANCH  22  23
ENDBRANCH  21  22
ENDBRANCH  15  17
TORSDOF 8
ENDMDL
MODEL 5
REMARK VINA RESULT:      -8.1      3.373      4.677
REMARK  Name = 
REMARK  8 active torsions:
REMARK  status: ('A' for Active; 'I' for Inactive)
REMARK    1  A    between atoms: O_2  and  C_3
REMARK    2  A    between atoms: C_3  and  C_4
REMARK    3  A    between atoms: C_4  and  O_5
REMARK    4  A    between atoms: O_5  and  C_6
REMARK    5  A    between atoms: C_9  and  C_12
REMARK    6  A    between atoms: C_15  and  C_17
REMARK    7  A    between atoms: N_21  and  C_22
REMARK    8  A    between atoms: C_22  and  C_23
REMARK                            x       y       z     vdW  Elec       q    Type
REMARK                         _______ _______ _______ _____ _____    ______ ____
ROOT
ATOM     12  C   UNL     1      -4.274   1.652  24.675  0.00  0.00    +0.205 A 
ATOM     13  N   UNL     1      -4.770   2.176  24.274  0.00  0.00    -0.056 NA
ATOM     14  O   UNL     1      -4.661   2.928  24.595  0.00  0.00    -0.336 OA
ATOM     15  C   UNL     1      -4.099   2.869  25.196  0.00  0.00    +0.251 A 
ATOM     16  N   UNL     1      -3.860   2.081  25.245  0.00  0.00    -0.190 NA
ENDROOT
BRANCH  12   9
ATOM      6  C   UNL     1      -4.069  -0.776  24.245  0.00  0.00    +0.225 A 
ATOM      7  C   UNL     1      -4.442  -0.508  24.932  0.00  0.00    +0.058 A 
ATOM      8  C   UNL     1      -4.510   0.301  25.075  0.00  0.00    +0.010 A 
ATOM      9  C   UNL     1      -4.206   0.843  24.532  0.00  0.00    +0.058 A 
ATOM     10  C   UNL     1      -3.834   0.576  23.847  0.00  0.00    +0.105 A 
ATOM     11  N   UNL     1      -3.766  -0.234  23.703  0.00  0.00    -0.210 NA
BRANCH   6   5
ATOM      5  O   UNL     1      -4.001  -1.586  24.102  0.00  0.00    -0.457 OA
BRANCH   5   4
ATOM      4  C   UNL     1      -3.477  -2.040  24.548  0.00  0.00    +0.239 C 
BRANCH   4   3
ATOM      3  C   UNL     1      -3.107  -2.694  24.208  0.00  0.00    +0.189 C 
BRANCH   3   2
ATOM      1  C   UNL     1      -1.704  -2.891  24.398  0.00  0.00    +0.174 C 
ATOM      2  O   UNL     1      -2.484  -3.067  24.601  0.00  0.00    -0.347 OA
ENDBRANCH   3   2
ENDBRANCH   4   3
ENDBRANCH   5   4
ENDBRANCH   6   5
ENDBRANCH  12   9
BRANCH  15  17
ATOM     17  C   UNL     1      -3.823   3.489  25.665  0.00  0.00    +0.138 C 
ATOM     18  C   UNL     1      -4.177   3.769  26.356  0.00  0.00    +0.027 C 
ATOM     19  C   UNL     1      -3.717   4.392  26.643  0.00  0.00    +0.019 C 
ATOM     20  C   UNL     1      -3.080   4.497  26.130  0.00  0.00    +0.073 C 
ATOM     21  N   UNL     1      -3.145   3.939  25.525  0.00  0.00    -0.263 NA
BRANCH  21  22
ATOM     22  C   UNL     1      -2.624   3.848  24.892  0.00  0.00    +0.099 C 
BRANCH  22  23
ATOM     23  C   UNL     1      -1.873   4.186  24.924  0.00  0.00    -0.006 A 
ATOM     24  C   UNL     1      -1.217   3.719  25.102  0.00  0.00    -0.003 A 
ATOM     25  C   UNL     1      -0.466   4.058  25.134  0.00  0.00    -0.000 A 
ATOM     26  C   UNL     1      -0.370   4.863  24.987  0.00  0.00    -0.000 A 
ATOM     27  C   UNL     1      -1.026   5.332  24.809  0.00  0.00    -0.000 A 
ATOM     28  C   UNL     1      -1.778   4.992  24.777  0.00  0.00    -0.003 A 
ENDBRANCH  22  23
ENDBRANCH  21  22
ENDBRANCH  15  17
TORSDOF 8
ENDMDL
MODEL 6
REMARK VINA RESULT:      -8.0      1.449      2.152
REMARK  Name = 
REMARK  8 active torsions:
REMARK  status: ('A' for Active; 'I' for Inactive)
REMARK    1  A    between atoms: O_2  and  C_3
REMARK    2  A    between atoms: C_3  and  C_4
REMARK    3  A    between atoms: C_4  and  O_5
REMARK    4  A    between atoms: O_5  and  C_6
REMARK    5  A    between atoms: C_9  and  C_12
REMARK    6  A    between atoms: C_15  and  C_17
REMARK    7  A    between atoms: N_21  and  C_22
REMARK    8  A    between atoms: C_22  and  C_23
REMARK                            x       y       z     vdW  Elec       q    Type
REMARK                         _______ _______ _______ _____ _____    ______ ____
ROOT
ATOM     12  C   UNL     1      -1.034   1.998  24.833  0.00  0.00    +0.205 A 
ATOM     13  N   UNL     1      -1.092   2.057  25.654  0.00  0.00    -0.056 NA
ATOM     14  O   UNL     1      -1.728   2.552  25.829  0.00  0.00    -0.336 OA
ATOM     15  C   UNL     1      -2.063   2.799  25.117  0.00  0.00    +0.251 A 
ATOM     16  N   UNL     1      -1.634   2.457  24.501  0.00  0.00    -0.190 NA
ENDROOT
BRANCH  12   9
ATOM      6  C   UNL     1       0.646   0.677  23.585  0.00  0.00    +0.225 A 
ATOM      7  C   UNL     1      -0.112   0.373  23.705  0.00  0.00    +0.058 A 
ATOM      8  C   UNL     1      -0.672   0.813  24.121  0.00  0.00    +0.010 A 
ATOM      9  C   UNL     1      -0.474   1.558  24.417  0.00  0.00    +0.058 A 
ATOM     10  C   UNL     1       0.283   1.861  24.297  0.00  0.00    +0.105 A 
ATOM     11  N   UNL     1       0.843   1.421  23.881  0.00  0.00    -0.210 NA
BRANCH   6   5
ATOM      5  O   UNL     1       1.206   0.236  23.169  0.00  0.00    -0.457 OA
BRANCH   5   4
ATOM      4  C   UNL     1       1.965   0.538  23.053  0.00  0.00    +0.239 C 
BRANCH   4   3
ATOM      3  C   UNL     1       2.531   0.089  22.654  0.00  0.00    +0.189 C 
BRANCH   3   2
ATOM      1  C   UNL     1       3.912   0.453  22.610  0.00  0.00    +0.174 C 
ATOM      2  O   UNL     1       3.160   0.463  22.272  0.00  0.00    -0.347 OA
ENDBRANCH   3   2
ENDBRANCH   4   3
ENDBRANCH   5   4
ENDBRANCH   6   5
ENDBRANCH  12   9
BRANCH  15  17
ATOM     17  C   UNL     1      -2.713   3.301  25.034  0.00  0.00    +0.138 C 
ATOM     18  C   UNL     1      -2.684   4.109  24.870  0.00  0.00    +0.027 C 
ATOM     19  C   UNL     1      -3.459   4.390  24.836  0.00  0.00    +0.019 C 
ATOM     20  C   UNL     1      -3.967   3.756  24.979  0.00  0.00    +0.073 C 
ATOM     21  N   UNL     1      -3.506   3.083  25.101  0.00  0.00    -0.263 NA
BRANCH  21  22
ATOM     22  C   UNL     1      -3.788   2.325  25.262  0.00  0.00    +0.099 C 
BRANCH  22  23
ATOM     23  C   UNL     1      -4.598   2.171  25.233  0.00  0.00    -0.006 A 
ATOM     24  C   UNL     1      -4.924   1.797  24.574  0.00  0.00    -0.003 A 
ATOM     25  C   UNL     1      -5.733   1.644  24.545  0.00  0.00    -0.000 A 
ATOM     26  C   UNL     1      -6.218   1.864  25.175  0.00  0.00    -0.000 A 
ATOM     27  C   UNL     1      -5.893   2.238  25.834  0.00  0.00    -0.000 A 
ATOM     28  C   UNL     1      -5.082   2.392  25.863  0.00  0.00    -0.003 A 
ENDBRANCH  22  23
ENDBRANCH  21  22
ENDBRANCH  15  17
TORSDOF 8
ENDMDL
MODEL 7
REMARK VINA RESULT:      -5.9     16.419     17.423
REMARK  Name = 
REMARK  8 active torsions:
REMARK  status: ('A' for Active; 'I' for Inactive)
REMARK    1  A    between atoms: O_2  and  C_3
REMARK    2  A    between atoms: C_3  and  C_4
REMARK    3  A    between atoms: C_4  and  O_5
REMARK    4  A    between atoms: O_5  and  C_6
REMARK    5  A    between atoms: C_9  and  C_12
REMARK    6  A    between atoms: C_15  and  C_17
REMARK    7  A    between atoms: N_21  and  C_22
REMARK    8  A    between atoms: C_22  and  C_23
REMARK                            x       y       z     vdW  Elec       q    Type
REMARK                         _______ _______ _______ _____ _____    ______ ____
ROOT
ATOM     12  C   UNL     1      -3.186  -9.955  10.877  0.00  0.00    +0.205 A 
ATOM     13  N   UNL     1      -2.885  -9.361  10.388  0.00  0.00    -0.056 NA
ATOM     14  O   UNL     1      -3.338  -9.345   9.698  0.00  0.00    -0.336 OA
ATOM     15  C   UNL     1      -3.918  -9.928   9.760  0.00  0.00    +0.251 A 
ATOM     16  N   UNL     1      -3.824 -10.305  10.489  0.00  0.00    -0.190 NA
ENDROOT
BRANCH  12   9
ATOM      6  C   UNL     1      -2.325 -10.575  13.113  0.00  0.00    +0.225 A 
ATOM      7  C   UNL     1      -1.807 -10.519  12.471  0.00  0.00    +0.058 A 
ATOM      8  C   UNL     1      -2.095 -10.312  11.726  0.00  0.00    +0.010 A 
ATOM      9  C   UNL     1      -2.899 -10.162  11.622  0.00  0.00    +0.058 A 
ATOM     10  C   UNL     1      -3.416 -10.217  12.262  0.00  0.00    +0.105 A 
ATOM     11  N   UNL     1      -3.129 -10.424  13.007  0.00  0.00    -0.210 NA
BRANCH   6   5
ATOM      5  O   UNL     1      -2.037 -10.781  13.858  0.00  0.00    -0.457 OA
BRANCH   5   4
ATOM      4  C   UNL     1      -1.809 -10.193  14.389  0.00  0.00    +0.239 C 
BRANCH   4   3
ATOM      3  C   UNL     1      -1.583 -10.396  15.156  0.00  0.00    +0.189 C 
BRANCH   3   2
ATOM      1  C   UNL     1      -0.657 -10.287  16.240  0.00  0.00    +0.174 C 
ATOM      2  O   UNL     1      -0.856 -10.141  15.453  0.00  0.00    -0.347 OA
ENDBRANCH   3   2
ENDBRANCH   4   3
ENDBRANCH   5   4
ENDBRANCH   6   5
ENDBRANCH  12   9
BRANCH  15  17
ATOM     17  C   UNL     1      -4.492 -10.104   9.194  0.00  0.00    +0.138 C 
ATOM     18  C   UNL     1      -4.457 -10.717   8.643  0.00  0.00    +0.027 C 
ATOM     19  C   UNL     1      -5.145 -10.690   8.187  0.00  0.00    +0.019 C 
ATOM     20  C   UNL     1      -5.604 -10.061   8.458  0.00  0.00    +0.073 C 
ATOM     21  N   UNL     1      -5.201  -9.698   9.080  0.00  0.00    -0.263 NA
BRANCH  21  22
ATOM     22  C   UNL     1      -5.461  -9.046   9.511  0.00  0.00    +0.099 C 
BRANCH  22  23
ATOM     23  C   UNL     1      -6.260  -8.839   9.506  0.00  0.00    -0.006 A 
ATOM     24  C   UNL     1      -6.763  -9.120  10.097  0.00  0.00    -0.003 A 
ATOM     25  C   UNL     1      -7.561  -8.913  10.092  0.00  0.00    -0.000 A 
ATOM     26  C   UNL     1      -7.857  -8.426   9.496  0.00  0.00    -0.000 A 
ATOM     27  C   UNL     1      -7.355  -8.146   8.904  0.00  0.00    -0.000 A 
ATOM     28  C   UNL     1      -6.556  -8.352   8.910  0.00  0.00    -0.003 A 
ENDBRANCH  22  23
ENDBRANCH  21  22
ENDBRANCH  15  17
TORSDOF 8
ENDMDL
MODEL 8
REMARK VINA RESULT:      -5.5     14.704     16.226
REMARK  Name = 
REMARK  8 active torsions:
REMARK  status: ('A' for Active; 'I' for Inactive)
REMARK    1  A    between atoms: O_2  and  C_3
REMARK    2  A    between atoms: C_3  and  C_4
REMARK    3  A    between atoms: C_4  and  O_5
REMARK    4  A    between atoms: O_5  and  C_6
REMARK    5  A    between atoms: C_9  and  C_12
REMARK    6  A    between atoms: C_15  and  C_17
REMARK    7  A    between atoms: N_21  and  C_22
REMARK    8  A    between atoms: C_22  and  C_23
REMARK                            x       y       z     vdW  Elec       q    Type
REMARK                         _______ _______ _______ _____ _____    ______ ____
ROOT
ATOM     12  C   UNL     1      -4.186 -10.618  14.469  0.00  0.00    +0.205 A 
ATOM     13  N   UNL     1      -4.747 -10.781  13.885  0.00  0.00    -0.056 NA
ATOM     14  O   UNL     1      -4.376 -10.715  13.150  0.00  0.00    -0.336 OA
ATOM     15  C   UNL     1      -3.587 -10.511  13.280  0.00  0.00    +0.251 A 
ATOM     16  N   UNL     1      -3.470 -10.451  14.095  0.00  0.00    -0.190 NA
ENDROOT
BRANCH  12   9
ATOM      6  C   UNL     1      -4.585 -10.627  16.911  0.00  0.00    +0.225 A 
ATOM      7  C   UNL     1      -3.830 -10.780  16.616  0.00  0.00    +0.058 A 
ATOM      8  C   UNL     1      -3.697 -10.777  15.801  0.00  0.00    +0.010 A 
ATOM      9  C   UNL     1      -4.319 -10.621  15.283  0.00  0.00    +0.058 A 
ATOM     10  C   UNL     1      -5.074 -10.468  15.577  0.00  0.00    +0.105 A 
ATOM     11  N   UNL     1      -5.207 -10.471  16.392  0.00  0.00    -0.210 NA
BRANCH   6   5
ATOM      5  O   UNL     1      -4.719 -10.630  17.725  0.00  0.00    -0.457 OA
BRANCH   5   4
ATOM      4  C   UNL     1      -5.478 -10.502  18.019  0.00  0.00    +0.239 C 
BRANCH   4   3
ATOM      3  C   UNL     1      -5.670 -10.742  18.785  0.00  0.00    +0.189 C 
BRANCH   3   2
ATOM      1  C   UNL     1      -6.179 -10.333  20.057  0.00  0.00    +0.174 C 
ATOM      2  O   UNL     1      -6.207 -10.303  19.233  0.00  0.00    -0.347 OA
ENDBRANCH   3   2
ENDBRANCH   4   3
ENDBRANCH   5   4
ENDBRANCH   6   5
ENDBRANCH  12   9
BRANCH  15  17
ATOM     17  C   UNL     1      -3.016 -10.389  12.698  0.00  0.00    +0.138 C 
ATOM     18  C   UNL     1      -2.201 -10.477  12.793  0.00  0.00    +0.027 C 
ATOM     19  C   UNL     1      -1.840 -10.299  12.072  0.00  0.00    +0.019 C 
ATOM     20  C   UNL     1      -2.431 -10.103  11.532  0.00  0.00    +0.073 C 
ATOM     21  N   UNL     1      -3.159 -10.158  11.919  0.00  0.00    -0.263 NA
BRANCH  21  22
ATOM     22  C   UNL     1      -3.898 -10.009  11.585  0.00  0.00    +0.099 C 
BRANCH  22  23
ATOM     23  C   UNL     1      -3.951  -9.714  10.817  0.00  0.00    -0.006 A 
ATOM     24  C   UNL     1      -3.902 -10.228  10.173  0.00  0.00    -0.003 A 
ATOM     25  C   UNL     1      -3.956  -9.933   9.405  0.00  0.00    -0.000 A 
ATOM     26  C   UNL     1      -4.059  -9.125   9.279  0.00  0.00    -0.000 A 
ATOM     27  C   UNL     1      -4.109  -8.610   9.922  0.00  0.00    -0.000 A 
ATOM     28  C   UNL     1      -4.055  -8.905  10.691  0.00  0.00    -0.003 A 
ENDBRANCH  22  23
ENDBRANCH  21  22
ENDBRANCH  15  17
TORSDOF 8
ENDMDL
