MODEL 1
REMARK VINA RESULT:     -12.4      0.000      0.000
REMARK  Name = 
REMARK  5 active torsions:
REMARK  status: ('A' for Active; 'I' for Inactive)
REMARK    1  A    between atoms: C_4  and  C_19
REMARK    2  A    between atoms: C_5  and  N_6
REMARK    3  A    between atoms: C_7  and  C_9
REMARK    4  A    between atoms: C_12  and  C_15
REMARK    5  A    between atoms: C_22  and  C_25
REMARK                            x       y       z     vdW  Elec       q    Type
REMARK                         _______ _______ _______ _____ _____    ______ ____
ROOT
ATOM      1  O   UNL     1      -5.382   3.729  25.189  0.00  0.00    -0.220 OA
ATOM      2  C   UNL     1      -4.776   3.193  25.026  0.00  0.00    +0.184 C 
ATOM      3  C   UNL     1      -3.973   3.372  24.971  0.00  0.00    +0.042 C 
ATOM      4  C   UNL     1      -3.568   2.674  24.801  0.00  0.00    +0.049 C 
ATOM      5  C   UNL     1      -4.120   2.064  24.751  0.00  0.00    +0.133 C 
ATOM     17  C   UNL     1      -4.868   2.385  24.890  0.00  0.00    +0.202 C 
ATOM     18  O   UNL     1      -5.581   1.969  24.893  0.00  0.00    -0.219 OA
ENDROOT
BRANCH   4  19
ATOM     19  C   UNL     1      -2.752   2.599  24.699  0.00  0.00    -0.002 A 
ATOM     20  C   UNL     1      -2.438   2.525  23.940  0.00  0.00    +0.095 A 
ATOM     21  N   UNL     1      -1.622   2.450  23.838  0.00  0.00    -0.240 NA
ATOM     22  C   UNL     1      -1.122   2.449  24.493  0.00  0.00    +0.153 A 
ATOM     23  C   UNL     1      -1.437   2.523  25.253  0.00  0.00    +0.023 A 
ATOM     24  C   UNL     1      -2.253   2.598  25.355  0.00  0.00    -0.001 A 
BRANCH  22  25
ATOM     25  C   UNL     1      -0.306   2.374  24.391  0.00  0.00    +0.435 C 
ATOM     26  F   UNL     1       0.508   2.300  24.288  0.00  0.00    -0.164 F 
ATOM     27  F   UNL     1      -0.373   1.554  24.459  0.00  0.00    -0.164 F 
ATOM     28  F   UNL     1      -0.240   3.193  24.323  0.00  0.00    -0.164 F 
ENDBRANCH  22  25
ENDBRANCH   4  19
BRANCH   5   6
ATOM      6  N   UNL     1      -3.955   1.271  24.590  0.00  0.00    -0.200 NA
ATOM      7  C   UNL     1      -4.292   0.678  25.053  0.00  0.00    +0.265 C 
ATOM      8  O   UNL     1      -4.795   0.875  25.676  0.00  0.00    -0.268 OA
BRANCH   7   9
ATOM      9  C   UNL     1      -4.127  -0.115  24.892  0.00  0.00    +0.055 A 
ATOM     10  C   UNL     1      -4.322  -0.436  24.159  0.00  0.00    +0.005 A 
ATOM     11  C   UNL     1      -4.157  -1.229  23.998  0.00  0.00    +0.010 A 
ATOM     12  C   UNL     1      -3.795  -1.699  24.570  0.00  0.00    +0.068 A 
ATOM     13  C   UNL     1      -3.599  -1.377  25.305  0.00  0.00    +0.010 A 
ATOM     14  C   UNL     1      -3.765  -0.585  25.465  0.00  0.00    +0.005 A 
BRANCH  12  15
ATOM     15  C   UNL     1      -3.630  -2.491  24.410  0.00  0.00    +0.100 C 
ATOM     16  N   UNL     1      -3.464  -3.282  24.250  0.00  0.00    -0.191 NA
ENDBRANCH  12  15
ENDBRANCH   7   9
ENDBRANCH   5   6
TORSDOF 5
ENDMDL
MODEL 2
REMARK VINA RESULT:     -11.8      2.062      4.109
REMARK  Name = 
REMARK  5 active torsions:
REMARK  status: ('A' for Active; 'I' for Inactive)
REMARK    1  A    between atoms: C_4  and  C_19
REMARK    2  A    between atoms: C_5  and  N_6
REMARK    3  A    between atoms: C_7  and  C_9
REMARK    4  A    between atoms: C_12  and  C_15
REMARK    5  A    between atoms: C_22  and  C_25
REMARK                            x       y       z     vdW  Elec       q    Type
REMARK                         _______ _______ _______ _____ _____    ______ ____
ROOT
ATOM      1  O   UNL     1      -6.004   2.112  25.107  0.00  0.00    -0.220 OA
ATOM      2  C   UNL     1      -5.332   1.640  25.027  0.00  0.00    +0.184 C 
ATOM      3  C   UNL     1      -5.324   0.820  24.941  0.00  0.00    +0.042 C 
ATOM      4  C   UNL     1      -4.537   0.578  24.880  0.00  0.00    +0.049 C 
ATOM      5  C   UNL     1      -4.059   1.249  24.928  0.00  0.00    +0.133 C 
ATOM     17  C   UNL     1      -4.551   1.906  25.019  0.00  0.00    +0.202 C 
ATOM     18  O   UNL     1      -4.303   2.690  25.090  0.00  0.00    -0.219 OA
ENDROOT
BRANCH   4  19
ATOM     19  C   UNL     1      -4.274  -0.199  24.786  0.00  0.00    -0.002 A 
ATOM     20  C   UNL     1      -3.941  -0.600  25.425  0.00  0.00    +0.095 A 
ATOM     21  N   UNL     1      -3.677  -1.377  25.331  0.00  0.00    -0.240 NA
ATOM     22  C   UNL     1      -3.747  -1.751  24.600  0.00  0.00    +0.153 A 
ATOM     23  C   UNL     1      -4.081  -1.349  23.961  0.00  0.00    +0.023 A 
ATOM     24  C   UNL     1      -4.344  -0.572  24.054  0.00  0.00    -0.001 A 
BRANCH  22  25
ATOM     25  C   UNL     1      -3.484  -2.528  24.507  0.00  0.00    +0.435 C 
ATOM     26  F   UNL     1      -3.222  -3.304  24.413  0.00  0.00    -0.164 F 
ATOM     27  F   UNL     1      -2.709  -2.282  24.647  0.00  0.00    -0.164 F 
ATOM     28  F   UNL     1      -4.259  -2.773  24.367  0.00  0.00    -0.164 F 
ENDBRANCH  22  25
ENDBRANCH   4  19
BRANCH   5   6
ATOM      6  N   UNL     1      -3.235   1.261  24.892  0.00  0.00    -0.200 NA
ATOM      7  C   UNL     1      -2.854   1.745  24.343  0.00  0.00    +0.265 C 
ATOM      8  O   UNL     1      -3.296   2.216  23.830  0.00  0.00    -0.268 OA
BRANCH   7   9
ATOM      9  C   UNL     1      -2.030   1.757  24.307  0.00  0.00    +0.055 A 
ATOM     10  C   UNL     1      -1.642   1.483  23.633  0.00  0.00    +0.005 A 
ATOM     11  C   UNL     1      -0.818   1.495  23.597  0.00  0.00    +0.010 A 
ATOM     12  C   UNL     1      -0.381   1.781  24.235  0.00  0.00    +0.068 A 
ATOM     13  C   UNL     1      -0.769   2.056  24.910  0.00  0.00    +0.010 A 
ATOM     14  C   UNL     1      -1.592   2.044  24.946  0.00  0.00    +0.005 A 
BRANCH  12  15
ATOM     15  C   UNL     1       0.443   1.794  24.199  0.00  0.00    +0.100 C 
ATOM     16  N   UNL     1       1.267   1.806  24.163  0.00  0.00    -0.191 NA
ENDBRANCH  12  15
ENDBRANCH   7   9
ENDBRANCH   5   6
TORSDOF 5
ENDMDL
MODEL 3
REMARK VINA RESULT:     -11.7      1.761      2.018
REMARK  Name = 
REMARK  5 active torsions:
REMARK  status: ('A' for Active; 'I' for Inactive)
REMARK    1  A    between atoms: C_4  and  C_19
REMARK    2  A    between atoms: C_5  and  N_6
REMARK    3  A    between atoms: C_7  and  C_9
REMARK    4  A    between atoms: C_12  and  C_15
REMARK    5  A    between atoms: C_22  and  C_25
REMARK                            x       y       z     vdW  Elec       q    Type
REMARK                         _______ _______ _______ _____ _____    ______ ____
ROOT
ATOM      1  O   UNL     1      -6.214   2.844  25.292  0.00  0.00    -0.220 OA
ATOM      2  C   UNL     1      -5.390   2.790  25.286  0.00  0.00    +0.184 C 
ATOM      3  C   UNL     1      -4.864   3.423  25.251  0.00  0.00    +0.042 C 
ATOM      4  C   UNL     1      -4.097   3.117  25.258  0.00  0.00    +0.049 C 
ATOM      5  C   UNL     1      -4.151   2.295  25.297  0.00  0.00    +0.133 C 
ATOM     17  C   UNL     1      -4.951   2.092  25.314  0.00  0.00    +0.202 C 
ATOM     18  O   UNL     1      -5.255   1.326  25.353  0.00  0.00    -0.219 OA
ENDROOT
BRANCH   4  19
ATOM     19  C   UNL     1      -3.399   3.557  25.231  0.00  0.00    -0.002 A 
ATOM     20  C   UNL     1      -3.128   3.854  24.511  0.00  0.00    +0.095 A 
ATOM     21  N   UNL     1      -2.430   4.294  24.483  0.00  0.00    -0.240 NA
ATOM     22  C   UNL     1      -2.004   4.435  25.174  0.00  0.00    +0.153 A 
ATOM     23  C   UNL     1      -2.275   4.137  25.895  0.00  0.00    +0.023 A 
ATOM     24  C   UNL     1      -2.973   3.698  25.923  0.00  0.00    -0.001 A 
BRANCH  22  25
ATOM     25  C   UNL     1      -1.306   4.875  25.147  0.00  0.00    +0.435 C 
ATOM     26  F   UNL     1      -0.609   5.314  25.120  0.00  0.00    -0.164 F 
ATOM     27  F   UNL     1      -0.881   4.189  24.972  0.00  0.00    -0.164 F 
ATOM     28  F   UNL     1      -1.731   5.559  25.322  0.00  0.00    -0.164 F 
ENDBRANCH  22  25
ENDBRANCH   4  19
BRANCH   5   6
ATOM      6  N   UNL     1      -3.516   1.767  25.315  0.00  0.00    -0.200 NA
ATOM      7  C   UNL     1      -3.490   1.137  24.785  0.00  0.00    +0.265 C 
ATOM      8  O   UNL     1      -4.096   1.032  24.236  0.00  0.00    -0.268 OA
BRANCH   7   9
ATOM      9  C   UNL     1      -2.855   0.609  24.803  0.00  0.00    +0.055 A 
ATOM     10  C   UNL     1      -2.254   0.668  24.242  0.00  0.00    +0.005 A 
ATOM     11  C   UNL     1      -1.619   0.140  24.260  0.00  0.00    +0.010 A 
ATOM     12  C   UNL     1      -1.586  -0.445  24.840  0.00  0.00    +0.068 A 
ATOM     13  C   UNL     1      -2.187  -0.504  25.402  0.00  0.00    +0.010 A 
ATOM     14  C   UNL     1      -2.821   0.023  25.383  0.00  0.00    +0.005 A 
BRANCH  12  15
ATOM     15  C   UNL     1      -0.952  -0.972  24.858  0.00  0.00    +0.100 C 
ATOM     16  N   UNL     1      -0.317  -1.499  24.877  0.00  0.00    -0.191 NA
ENDBRANCH  12  15
ENDBRANCH   7   9
ENDBRANCH   5   6
TORSDOF 5
ENDMDL
MODEL 4
REMARK VINA RESULT:     -11.5      2.864      3.674
REMARK  Name = 
REMARK  5 active torsions:
REMARK  status: ('A' for Active; 'I' for Inactive)
REMARK    1  A    between atoms: C_4  and  C_19
REMARK    2  A    between atoms: C_5  and  N_6
REMARK    3  A    between atoms: C_7  and  C_9
REMARK    4  A    between atoms: C_12  and  C_15
REMARK    5  A    between atoms: C_22  and  C_25
REMARK                            x       y       z     vdW  Elec       q    Type
REMARK                         _______ _______ _______ _____ _____    ______ ____
ROOT
ATOM      1  O   UNL     1      -1.018   5.105  25.181  0.00  0.00    -0.220 OA
ATOM      2  C   UNL     1      -1.457   4.410  25.101  0.00  0.00    +0.184 C 
ATOM      3  C   UNL     1      -2.279   4.351  25.121  0.00  0.00    +0.042 C 
ATOM      4  C   UNL     1      -2.480   3.557  25.019  0.00  0.00    +0.049 C 
ATOM      5  C   UNL     1      -1.782   3.126  24.937  0.00  0.00    +0.133 C 
ATOM     17  C   UNL     1      -1.149   3.653  24.987  0.00  0.00    +0.202 C 
ATOM     18  O   UNL     1      -0.349   3.456  24.933  0.00  0.00    -0.219 OA
ENDROOT
BRANCH   4  19
ATOM     19  C   UNL     1      -3.246   3.249  25.003  0.00  0.00    -0.002 A 
ATOM     20  C   UNL     1      -3.664   3.150  25.707  0.00  0.00    +0.095 A 
ATOM     21  N   UNL     1      -4.430   2.842  25.690  0.00  0.00    -0.240 NA
ATOM     22  C   UNL     1      -4.775   2.632  24.972  0.00  0.00    +0.153 A 
ATOM     23  C   UNL     1      -4.356   2.731  24.268  0.00  0.00    +0.023 A 
ATOM     24  C   UNL     1      -3.590   3.040  24.284  0.00  0.00    -0.001 A 
BRANCH  22  25
ATOM     25  C   UNL     1      -5.541   2.324  24.956  0.00  0.00    +0.435 C 
ATOM     26  F   UNL     1      -6.305   2.015  24.940  0.00  0.00    -0.164 F 
ATOM     27  F   UNL     1      -5.846   3.073  25.117  0.00  0.00    -0.164 F 
ATOM     28  F   UNL     1      -5.235   1.575  24.795  0.00  0.00    -0.164 F 
ENDBRANCH  22  25
ENDBRANCH   4  19
BRANCH   5   6
ATOM      6  N   UNL     1      -1.726   2.310  24.823  0.00  0.00    -0.200 NA
ATOM      7  C   UNL     1      -1.239   1.859  25.313  0.00  0.00    +0.265 C 
ATOM      8  O   UNL     1      -0.808   2.222  25.915  0.00  0.00    -0.268 OA
BRANCH   7   9
ATOM      9  C   UNL     1      -1.184   1.043  25.200  0.00  0.00    +0.055 A 
ATOM     10  C   UNL     1      -0.881   0.744  24.493  0.00  0.00    +0.005 A 
ATOM     11  C   UNL     1      -0.826  -0.071  24.380  0.00  0.00    +0.010 A 
ATOM     12  C   UNL     1      -1.073  -0.588  24.974  0.00  0.00    +0.068 A 
ATOM     13  C   UNL     1      -1.376  -0.289  25.681  0.00  0.00    +0.010 A 
ATOM     14  C   UNL     1      -1.431   0.526  25.794  0.00  0.00    +0.005 A 
BRANCH  12  15
ATOM     15  C   UNL     1      -1.018  -1.403  24.861  0.00  0.00    +0.100 C 
ATOM     16  N   UNL     1      -0.962  -2.218  24.748  0.00  0.00    -0.191 NA
ENDBRANCH  12  15
ENDBRANCH   7   9
ENDBRANCH   5   6
TORSDOF 5
ENDMDL
MODEL 5
REMARK VINA RESULT:     -11.4      2.628      4.572
REMARK  Name = 
REMARK  5 active torsions:
REMARK  status: ('A' for Active; 'I' for Inactive)
REMARK    1  A    between atoms: C_4  and  C_19
REMARK    2  A    between atoms: C_5  and  N_6
REMARK    3  A    between atoms: C_7  and  C_9
REMARK    4  A    between atoms: C_12  and  C_15
REMARK    5  A    between atoms: C_22  and  C_25
REMARK                            x       y       z     vdW  Elec       q    Type
REMARK                         _______ _______ _______ _____ _____    ______ ____
ROOT
ATOM      1  O   UNL     1       0.687   1.319  23.886  0.00  0.00    -0.220 OA
ATOM      2  C   UNL     1      -0.070   1.168  24.180  0.00  0.00    +0.184 C 
ATOM      3  C   UNL     1      -0.395   0.424  24.321  0.00  0.00    +0.042 C 
ATOM      4  C   UNL     1      -1.160   0.531  24.612  0.00  0.00    +0.049 C 
ATOM      5  C   UNL     1      -1.307   1.342  24.650  0.00  0.00    +0.133 C 
ATOM     17  C   UNL     1      -0.633   1.736  24.383  0.00  0.00    +0.202 C 
ATOM     18  O   UNL     1      -0.540   2.554  24.329  0.00  0.00    -0.219 OA
ENDROOT
BRANCH   4  19
ATOM     19  C   UNL     1      -1.686  -0.068  24.826  0.00  0.00    -0.002 A 
ATOM     20  C   UNL     1      -2.127  -0.456  24.247  0.00  0.00    +0.095 A 
ATOM     21  N   UNL     1      -2.653  -1.054  24.462  0.00  0.00    -0.240 NA
ATOM     22  C   UNL     1      -2.737  -1.265  25.255  0.00  0.00    +0.153 A 
ATOM     23  C   UNL     1      -2.296  -0.876  25.834  0.00  0.00    +0.023 A 
ATOM     24  C   UNL     1      -1.770  -0.277  25.619  0.00  0.00    -0.001 A 
BRANCH  22  25
ATOM     25  C   UNL     1      -3.263  -1.864  25.470  0.00  0.00    +0.435 C 
ATOM     26  F   UNL     1      -3.789  -2.461  25.684  0.00  0.00    -0.164 F 
ATOM     27  F   UNL     1      -2.772  -2.423  25.112  0.00  0.00    -0.164 F 
ATOM     28  F   UNL     1      -3.753  -1.304  25.826  0.00  0.00    -0.164 F 
ENDBRANCH  22  25
ENDBRANCH   4  19
BRANCH   5   6
ATOM      6  N   UNL     1      -2.006   1.697  24.910  0.00  0.00    -0.200 NA
ATOM      7  C   UNL     1      -2.387   2.251  24.433  0.00  0.00    +0.265 C 
ATOM      8  O   UNL     1      -2.072   2.452  23.699  0.00  0.00    -0.268 OA
BRANCH   7   9
ATOM      9  C   UNL     1      -3.086   2.606  24.693  0.00  0.00    +0.055 A 
ATOM     10  C   UNL     1      -3.069   3.142  25.319  0.00  0.00    +0.005 A 
ATOM     11  C   UNL     1      -3.768   3.496  25.579  0.00  0.00    +0.010 A 
ATOM     12  C   UNL     1      -4.483   3.314  25.212  0.00  0.00    +0.068 A 
ATOM     13  C   UNL     1      -4.501   2.777  24.585  0.00  0.00    +0.010 A 
ATOM     14  C   UNL     1      -3.803   2.424  24.326  0.00  0.00    +0.005 A 
BRANCH  12  15
ATOM     15  C   UNL     1      -5.182   3.668  25.471  0.00  0.00    +0.100 C 
ATOM     16  N   UNL     1      -5.880   4.022  25.730  0.00  0.00    -0.191 NA
ENDBRANCH  12  15
ENDBRANCH   7   9
ENDBRANCH   5   6
TORSDOF 5
ENDMDL
