MODEL 1
REMARK VINA RESULT:     -10.2      0.000      0.000
REMARK  Name = 
REMARK  9 active torsions:
REMARK  status: ('A' for Active; 'I' for Inactive)
REMARK    1  A    between atoms: O_2  and  C_3
REMARK    2  A    between atoms: C_3  and  C_4
REMARK    3  A    between atoms: C_4  and  N_5
REMARK    4  A    between atoms: N_5  and  C_6
REMARK    5  A    between atoms: C_6  and  C_7
REMARK    6  A    between atoms: C_11  and  C_12
REMARK    7  A    between atoms: C_12  and  C_13
REMARK    8  A    between atoms: C_16  and  C_18
REMARK    9  A    between atoms: C_26  and  C_27
REMARK                            x       y       z     vdW  Elec       q    Type
REMARK                         _______ _______ _______ _____ _____    ______ ____
ROOT
ATOM      7  C   UNL     1      -4.129   0.474  24.254  0.00  0.00    +0.039 C 
ATOM      8  C   UNL     1      -4.800   0.601  24.717  0.00  0.00    -0.033 C 
ATOM      9  C   UNL     1      -4.978   1.362  24.985  0.00  0.00    -0.048 C 
ATOM     10  C   UNL     1      -5.648   1.488  25.449  0.00  0.00    +0.026 C 
ATOM     11  C   UNL     1      -4.486   1.994  24.788  0.00  0.00    +0.027 C 
ATOM     25  C   UNL     1      -3.816   1.866  24.324  0.00  0.00    +0.005 C 
ATOM     26  C   UNL     1      -3.638   1.107  24.057  0.00  0.00    +0.006 C 
ENDROOT
BRANCH  26  27
ATOM     27  C   UNL     1      -2.967   0.979  23.593  0.00  0.00    +0.000 C 
ATOM     28  C   UNL     1      -2.274   0.695  23.938  0.00  0.00    +0.000 C 
ATOM     29  C   UNL     1      -2.991   1.134  22.783  0.00  0.00    +0.000 C 
ENDBRANCH  26  27
BRANCH   7   6
ATOM      6  C   UNL     1      -3.951  -0.286  23.986  0.00  0.00    +0.093 C 
BRANCH   6   5
ATOM      5  N   UNL     1      -4.360  -0.936  24.289  0.00  0.00    -0.215 NA
BRANCH   5   4
ATOM      4  C   UNL     1      -4.232  -1.687  23.973  0.00  0.00    +0.121 C 
BRANCH   4   3
ATOM      3  C   UNL     1      -4.108  -2.330  24.475  0.00  0.00    +0.161 C 
BRANCH   3   2
ATOM      1  C   UNL     1      -3.131  -3.366  24.589  0.00  0.00    +0.174 C 
ATOM      2  O   UNL     1      -3.759  -3.019  24.183  0.00  0.00    -0.350 OA
ENDBRANCH   3   2
ENDBRANCH   4   3
ENDBRANCH   5   4
ENDBRANCH   6   5
ENDBRANCH   7   6
BRANCH  11  12
ATOM     12  C   UNL     1      -4.664   2.753  25.055  0.00  0.00    +0.091 C 
BRANCH  12  13
ATOM     13  C   UNL     1      -4.070   3.231  25.370  0.00  0.00    +0.227 A 
ATOM     14  N   UNL     1      -4.024   3.497  26.150  0.00  0.00    -0.111 NA
ATOM     15  N   UNL     1      -3.343   3.956  26.223  0.00  0.00    -0.107 NA
ATOM     16  C   UNL     1      -2.969   3.975  25.488  0.00  0.00    +0.250 A 
ATOM     17  O   UNL     1      -3.418   3.527  24.962  0.00  0.00    -0.420 OA
BRANCH  16  18
ATOM     18  C   UNL     1      -2.267   4.373  25.311  0.00  0.00    +0.055 A 
ATOM     19  C   UNL     1      -1.559   3.953  25.254  0.00  0.00    +0.004 A 
ATOM     20  C   UNL     1      -0.858   4.349  25.076  0.00  0.00    -0.004 A 
ATOM     21  C   UNL     1      -0.864   5.166  24.956  0.00  0.00    -0.022 A 
ATOM     22  C   UNL     1      -0.164   5.562  24.779  0.00  0.00    +0.031 C 
ATOM     23  C   UNL     1      -1.573   5.586  25.013  0.00  0.00    -0.004 A 
ATOM     24  C   UNL     1      -2.274   5.188  25.191  0.00  0.00    +0.004 A 
ENDBRANCH  16  18
ENDBRANCH  12  13
ENDBRANCH  11  12
TORSDOF 9
ENDMDL
MODEL 2
REMARK VINA RESULT:     -10.1      2.779      4.724
REMARK  Name = 
REMARK  9 active torsions:
REMARK  status: ('A' for Active; 'I' for Inactive)
REMARK    1  A    between atoms: O_2  and  C_3
REMARK    2  A    between atoms: C_3  and  C_4
REMARK    3  A    between atoms: C_4  and  N_5
REMARK    4  A    between atoms: N_5  and  C_6
REMARK    5  A    between atoms: C_6  and  C_7
REMARK    6  A    between atoms: C_11  and  C_12
REMARK    7  A    between atoms: C_12  and  C_13
REMARK    8  A    between atoms: C_16  and  C_18
REMARK    9  A    between atoms: C_26  and  C_27
REMARK                            x       y       z     vdW  Elec       q    Type
REMARK                         _______ _______ _______ _____ _____    ______ ____
ROOT
ATOM      7  C   UNL     1      -0.303   0.156  24.088  0.00  0.00    +0.039 C 
ATOM      8  C   UNL     1      -0.512  -0.642  24.084  0.00  0.00    -0.033 C 
ATOM      9  C   UNL     1      -1.215  -0.887  24.440  0.00  0.00    -0.048 C 
ATOM     10  C   UNL     1      -1.423  -1.685  24.437  0.00  0.00    +0.026 C 
ATOM     11  C   UNL     1      -1.710  -0.332  24.800  0.00  0.00    +0.027 C 
ATOM     25  C   UNL     1      -1.501   0.466  24.803  0.00  0.00    +0.005 C 
ATOM     26  C   UNL     1      -0.798   0.710  24.447  0.00  0.00    +0.006 C 
ENDROOT
BRANCH  26  27
ATOM     27  C   UNL     1      -0.589   1.508  24.450  0.00  0.00    +0.000 C 
ATOM     28  C   UNL     1      -0.805   1.994  23.820  0.00  0.00    +0.000 C 
ATOM     29  C   UNL     1      -0.163   1.820  25.084  0.00  0.00    +0.000 C 
ENDBRANCH  26  27
BRANCH   7   6
ATOM      6  C   UNL     1       0.400   0.400  23.732  0.00  0.00    +0.093 C 
BRANCH   6   5
ATOM      5  N   UNL     1       0.875  -0.149  23.339  0.00  0.00    -0.215 NA
BRANCH   5   4
ATOM      4  C   UNL     1       1.418   0.107  22.772  0.00  0.00    +0.121 C 
BRANCH   4   3
ATOM      3  C   UNL     1       2.220  -0.061  22.865  0.00  0.00    +0.161 C 
BRANCH   3   2
ATOM      1  C   UNL     1       3.499   0.440  22.469  0.00  0.00    +0.174 C 
ATOM      2  O   UNL     1       2.755   0.144  22.270  0.00  0.00    -0.350 OA
ENDBRANCH   3   2
ENDBRANCH   4   3
ENDBRANCH   5   4
ENDBRANCH   6   5
ENDBRANCH   7   6
BRANCH  11  12
ATOM     12  C   UNL     1      -2.413  -0.576  25.155  0.00  0.00    +0.091 C 
BRANCH  12  13
ATOM     13  C   UNL     1      -3.124  -0.206  24.961  0.00  0.00    +0.227 A 
ATOM     14  N   UNL     1      -3.687  -0.488  24.427  0.00  0.00    -0.111 NA
ATOM     15  N   UNL     1      -4.308   0.054  24.403  0.00  0.00    -0.107 NA
ATOM     16  C   UNL     1      -4.130   0.670  24.921  0.00  0.00    +0.250 A 
ATOM     17  O   UNL     1      -3.398   0.509  25.266  0.00  0.00    -0.420 OA
BRANCH  16  18
ATOM     18  C   UNL     1      -4.600   1.332  25.070  0.00  0.00    +0.055 A 
ATOM     19  C   UNL     1      -4.359   2.076  24.807  0.00  0.00    +0.004 A 
ATOM     20  C   UNL     1      -4.828   2.738  24.955  0.00  0.00    -0.004 A 
ATOM     21  C   UNL     1      -5.540   2.656  25.365  0.00  0.00    -0.022 A 
ATOM     22  C   UNL     1      -6.009   3.317  25.513  0.00  0.00    +0.031 C 
ATOM     23  C   UNL     1      -5.781   1.911  25.628  0.00  0.00    -0.004 A 
ATOM     24  C   UNL     1      -5.311   1.249  25.480  0.00  0.00    +0.004 A 
ENDBRANCH  16  18
ENDBRANCH  12  13
ENDBRANCH  11  12
TORSDOF 9
ENDMDL
MODEL 3
REMARK VINA RESULT:      -9.9      2.569      4.413
REMARK  Name = 
REMARK  9 active torsions:
REMARK  status: ('A' for Active; 'I' for Inactive)
REMARK    1  A    between atoms: O_2  and  C_3
REMARK    2  A    between atoms: C_3  and  C_4
REMARK    3  A    between atoms: C_4  and  N_5
REMARK    4  A    between atoms: N_5  and  C_6
REMARK    5  A    between atoms: C_6  and  C_7
REMARK    6  A    between atoms: C_11  and  C_12
REMARK    7  A    between atoms: C_12  and  C_13
REMARK    8  A    between atoms: C_16  and  C_18
REMARK    9  A    between atoms: C_26  and  C_27
REMARK                            x       y       z     vdW  Elec       q    Type
REMARK                         _______ _______ _______ _____ _____    ______ ____
ROOT
ATOM      7  C   UNL     1      -0.318   1.143  24.373  0.00  0.00    +0.039 C 
ATOM      8  C   UNL     1      -0.051   1.911  24.237  0.00  0.00    -0.033 C 
ATOM      9  C   UNL     1      -0.441   2.551  24.585  0.00  0.00    -0.048 C 
ATOM     10  C   UNL     1      -0.174   3.319  24.450  0.00  0.00    +0.026 C 
ATOM     11  C   UNL     1      -1.097   2.420  25.068  0.00  0.00    +0.027 C 
ATOM     25  C   UNL     1      -1.363   1.651  25.203  0.00  0.00    +0.005 C 
ATOM     26  C   UNL     1      -0.974   1.012  24.856  0.00  0.00    +0.006 C 
ENDROOT
BRANCH  26  27
ATOM     27  C   UNL     1      -1.240   0.243  24.991  0.00  0.00    +0.000 C 
ATOM     28  C   UNL     1      -0.999  -0.165  25.665  0.00  0.00    +0.000 C 
ATOM     29  C   UNL     1      -1.747  -0.118  24.450  0.00  0.00    +0.000 C 
ENDBRANCH  26  27
BRANCH   7   6
ATOM      6  C   UNL     1       0.072   0.504  24.025  0.00  0.00    +0.093 C 
BRANCH   6   5
ATOM      5  N   UNL     1       0.666   0.638  23.467  0.00  0.00    -0.215 NA
BRANCH   5   4
ATOM      4  C   UNL     1       1.127   0.008  23.198  0.00  0.00    +0.121 C 
BRANCH   4   3
ATOM      3  C   UNL     1       1.686   0.132  22.603  0.00  0.00    +0.161 C 
BRANCH   3   2
ATOM      1  C   UNL     1       3.079   0.179  22.291  0.00  0.00    +0.174 C 
ATOM      2  O   UNL     1       2.447  -0.178  22.682  0.00  0.00    -0.350 OA
ENDBRANCH   3   2
ENDBRANCH   4   3
ENDBRANCH   5   4
ENDBRANCH   6   5
ENDBRANCH   7   6
BRANCH  11  12
ATOM     12  C   UNL     1      -1.486   3.058  25.416  0.00  0.00    +0.091 C 
BRANCH  12  13
ATOM     13  C   UNL     1      -2.276   3.211  25.231  0.00  0.00    +0.227 A 
ATOM     14  N   UNL     1      -2.561   3.879  24.837  0.00  0.00    -0.111 NA
ATOM     15  N   UNL     1      -3.379   3.804  24.770  0.00  0.00    -0.107 NA
ATOM     16  C   UNL     1      -3.600   3.092  25.121  0.00  0.00    +0.250 A 
ATOM     17  O   UNL     1      -2.918   2.726  25.406  0.00  0.00    -0.420 OA
BRANCH  16  18
ATOM     18  C   UNL     1      -4.369   2.796  25.179  0.00  0.00    +0.055 A 
ATOM     19  C   UNL     1      -4.869   3.062  25.779  0.00  0.00    +0.004 A 
ATOM     20  C   UNL     1      -5.637   2.768  25.837  0.00  0.00    -0.004 A 
ATOM     21  C   UNL     1      -5.906   2.207  25.295  0.00  0.00    -0.022 A 
ATOM     22  C   UNL     1      -6.674   1.912  25.352  0.00  0.00    +0.031 C 
ATOM     23  C   UNL     1      -5.406   1.941  24.694  0.00  0.00    -0.004 A 
ATOM     24  C   UNL     1      -4.637   2.237  24.636  0.00  0.00    +0.004 A 
ENDBRANCH  16  18
ENDBRANCH  12  13
ENDBRANCH  11  12
TORSDOF 9
ENDMDL
MODEL 4
REMARK VINA RESULT:      -9.8      2.622      5.356
REMARK  Name = 
REMARK  9 active torsions:
REMARK  status: ('A' for Active; 'I' for Inactive)
REMARK    1  A    between atoms: O_2  and  C_3
REMARK    2  A    between atoms: C_3  and  C_4
REMARK    3  A    between atoms: C_4  and  N_5
REMARK    4  A    between atoms: N_5  and  C_6
REMARK    5  A    between atoms: C_6  and  C_7
REMARK    6  A    between atoms: C_11  and  C_12
REMARK    7  A    between atoms: C_12  and  C_13
REMARK    8  A    between atoms: C_16  and  C_18
REMARK    9  A    between atoms: C_26  and  C_27
REMARK                            x       y       z     vdW  Elec       q    Type
REMARK                         _______ _______ _______ _____ _____    ______ ____
ROOT
ATOM      7  C   UNL     1      -0.678   1.954  24.304  0.00  0.00    +0.039 C 
ATOM      8  C   UNL     1      -1.059   1.979  23.573  0.00  0.00    -0.033 C 
ATOM      9  C   UNL     1      -1.884   1.955  23.538  0.00  0.00    -0.048 C 
ATOM     10  C   UNL     1      -2.265   1.980  22.807  0.00  0.00    +0.026 C 
ATOM     11  C   UNL     1      -2.326   1.905  24.233  0.00  0.00    +0.027 C 
ATOM     25  C   UNL     1      -1.943   1.880  24.963  0.00  0.00    +0.005 C 
ATOM     26  C   UNL     1      -1.120   1.905  24.999  0.00  0.00    +0.006 C 
ENDROOT
BRANCH  26  27
ATOM     27  C   UNL     1      -0.737   1.880  25.730  0.00  0.00    +0.000 C 
ATOM     28  C   UNL     1      -0.517   2.580  26.105  0.00  0.00    +0.000 C 
ATOM     29  C   UNL     1      -0.574   1.153  26.085  0.00  0.00    +0.000 C 
ENDBRANCH  26  27
BRANCH   7   6
ATOM      6  C   UNL     1       0.147   1.979  24.340  0.00  0.00    +0.093 C 
BRANCH   6   5
ATOM      5  N   UNL     1       0.595   1.632  23.741  0.00  0.00    -0.215 NA
BRANCH   5   4
ATOM      4  C   UNL     1       1.418   1.610  23.802  0.00  0.00    +0.121 C 
BRANCH   4   3
ATOM      3  C   UNL     1       1.853   1.097  23.324  0.00  0.00    +0.161 C 
BRANCH   3   2
ATOM      1  C   UNL     1       3.113   0.672  22.802  0.00  0.00    +0.174 C 
ATOM      2  O   UNL     1       2.658   1.234  23.199  0.00  0.00    -0.350 OA
ENDBRANCH   3   2
ENDBRANCH   4   3
ENDBRANCH   5   4
ENDBRANCH   6   5
ENDBRANCH   7   6
BRANCH  11  12
ATOM     12  C   UNL     1      -3.149   1.881  24.197  0.00  0.00    +0.091 C 
BRANCH  12  13
ATOM     13  C   UNL     1      -3.552   1.196  24.420  0.00  0.00    +0.227 A 
ATOM     14  N   UNL     1      -4.247   1.166  24.864  0.00  0.00    -0.111 NA
ATOM     15  N   UNL     1      -4.456   0.374  24.956  0.00  0.00    -0.107 NA
ATOM     16  C   UNL     1      -3.891  -0.086  24.569  0.00  0.00    +0.250 A 
ATOM     17  O   UNL     1      -3.333   0.423  24.238  0.00  0.00    -0.420 OA
BRANCH  16  18
ATOM     18  C   UNL     1      -3.885  -0.910  24.522  0.00  0.00    +0.055 A 
ATOM     19  C   UNL     1      -3.518  -1.354  25.114  0.00  0.00    +0.004 A 
ATOM     20  C   UNL     1      -3.512  -2.177  25.067  0.00  0.00    -0.004 A 
ATOM     21  C   UNL     1      -3.871  -2.557  24.429  0.00  0.00    -0.022 A 
ATOM     22  C   UNL     1      -3.865  -3.380  24.382  0.00  0.00    +0.031 C 
ATOM     23  C   UNL     1      -4.238  -2.113  23.837  0.00  0.00    -0.004 A 
ATOM     24  C   UNL     1      -4.244  -1.289  23.884  0.00  0.00    +0.004 A 
ENDBRANCH  16  18
ENDBRANCH  12  13
ENDBRANCH  11  12
TORSDOF 9
ENDMDL
MODEL 5
REMARK VINA RESULT:      -9.7      1.225      5.447
REMARK  Name = 
REMARK  9 active torsions:
REMARK  status: ('A' for Active; 'I' for Inactive)
REMARK    1  A    between atoms: O_2  and  C_3
REMARK    2  A    between atoms: C_3  and  C_4
REMARK    3  A    between atoms: C_4  and  N_5
REMARK    4  A    between atoms: N_5  and  C_6
REMARK    5  A    between atoms: C_6  and  C_7
REMARK    6  A    between atoms: C_11  and  C_12
REMARK    7  A    between atoms: C_12  and  C_13
REMARK    8  A    between atoms: C_16  and  C_18
REMARK    9  A    between atoms: C_26  and  C_27
REMARK                            x       y       z     vdW  Elec       q    Type
REMARK                         _______ _______ _______ _____ _____    ______ ____
ROOT
ATOM      7  C   UNL     1      -3.514   3.112  24.386  0.00  0.00    +0.039 C 
ATOM      8  C   UNL     1      -4.126   3.183  24.935  0.00  0.00    -0.033 C 
ATOM      9  C   UNL     1      -4.632   2.546  25.073  0.00  0.00    -0.048 C 
ATOM     10  C   UNL     1      -5.244   2.617  25.621  0.00  0.00    +0.026 C 
ATOM     11  C   UNL     1      -4.526   1.838  24.662  0.00  0.00    +0.027 C 
ATOM     25  C   UNL     1      -3.914   1.768  24.113  0.00  0.00    +0.005 C 
ATOM     26  C   UNL     1      -3.408   2.404  23.975  0.00  0.00    +0.006 C 
ENDROOT
BRANCH  26  27
ATOM     27  C   UNL     1      -2.796   2.334  23.426  0.00  0.00    +0.000 C 
ATOM     28  C   UNL     1      -2.922   2.540  22.638  0.00  0.00    +0.000 C 
ATOM     29  C   UNL     1      -2.057   2.057  23.667  0.00  0.00    +0.000 C 
ENDBRANCH  26  27
BRANCH   7   6
ATOM      6  C   UNL     1      -3.008   3.749  24.248  0.00  0.00    +0.093 C 
BRANCH   6   5
ATOM      5  N   UNL     1      -2.815   4.262  24.864  0.00  0.00    -0.215 NA
BRANCH   5   4
ATOM      4  C   UNL     1      -2.327   4.913  24.721  0.00  0.00    +0.121 C 
BRANCH   4   3
ATOM      3  C   UNL     1      -1.701   5.079  25.231  0.00  0.00    +0.161 C 
BRANCH   3   2
ATOM      1  C   UNL     1      -0.364   5.281  24.769  0.00  0.00    +0.174 C 
ATOM      2  O   UNL     1      -1.097   5.588  24.990  0.00  0.00    -0.350 OA
ENDBRANCH   3   2
ENDBRANCH   4   3
ENDBRANCH   5   4
ENDBRANCH   6   5
ENDBRANCH   7   6
BRANCH  11  12
ATOM     12  C   UNL     1      -5.032   1.202  24.800  0.00  0.00    +0.091 C 
BRANCH  12  13
ATOM     13  C   UNL     1      -4.724   0.470  25.024  0.00  0.00    +0.227 A 
ATOM     14  N   UNL     1      -4.573   0.223  25.797  0.00  0.00    -0.111 NA
ATOM     15  N   UNL     1      -4.269  -0.543  25.765  0.00  0.00    -0.107 NA
ATOM     16  C   UNL     1      -4.231  -0.769  24.973  0.00  0.00    +0.250 A 
ATOM     17  O   UNL     1      -4.512  -0.143  24.515  0.00  0.00    -0.420 OA
BRANCH  16  18
ATOM     18  C   UNL     1      -3.959  -1.495  24.688  0.00  0.00    +0.055 A 
ATOM     19  C   UNL     1      -4.319  -1.840  24.030  0.00  0.00    +0.004 A 
ATOM     20  C   UNL     1      -4.049  -2.565  23.745  0.00  0.00    -0.004 A 
ATOM     21  C   UNL     1      -3.417  -2.945  24.117  0.00  0.00    -0.022 A 
ATOM     22  C   UNL     1      -3.147  -3.669  23.831  0.00  0.00    +0.031 C 
ATOM     23  C   UNL     1      -3.057  -2.600  24.774  0.00  0.00    -0.004 A 
ATOM     24  C   UNL     1      -3.329  -1.874  25.059  0.00  0.00    +0.004 A 
ENDBRANCH  16  18
ENDBRANCH  12  13
ENDBRANCH  11  12
TORSDOF 9
ENDMDL
MODEL 6
REMARK VINA RESULT:      -9.3      2.015      5.439
REMARK  Name = 
REMARK  9 active torsions:
REMARK  status: ('A' for Active; 'I' for Inactive)
REMARK    1  A    between atoms: O_2  and  C_3
REMARK    2  A    between atoms: C_3  and  C_4
REMARK    3  A    between atoms: C_4  and  N_5
REMARK    4  A    between atoms: N_5  and  C_6
REMARK    5  A    between atoms: C_6  and  C_7
REMARK    6  A    between atoms: C_11  and  C_12
REMARK    7  A    between atoms: C_12  and  C_13
REMARK    8  A    between atoms: C_16  and  C_18
REMARK    9  A    between atoms: C_26  and  C_27
REMARK                            x       y       z     vdW  Elec       q    Type
REMARK                         _______ _______ _______ _____ _____    ______ ____
ROOT
ATOM      7  C   UNL     1      -2.293   2.613  24.371  0.00  0.00    +0.039 C 
ATOM      8  C   UNL     1      -1.830   2.639  25.052  0.00  0.00    -0.033 C 
ATOM      9  C   UNL     1      -1.220   2.093  25.157  0.00  0.00    -0.048 C 
ATOM     10  C   UNL     1      -0.756   2.119  25.839  0.00  0.00    +0.026 C 
ATOM     11  C   UNL     1      -1.074   1.521  24.580  0.00  0.00    +0.027 C 
ATOM     25  C   UNL     1      -1.538   1.496  23.899  0.00  0.00    +0.005 C 
ATOM     26  C   UNL     1      -2.147   2.042  23.794  0.00  0.00    +0.006 C 
ENDROOT
BRANCH  26  27
ATOM     27  C   UNL     1      -2.612   2.016  23.112  0.00  0.00    +0.000 C 
ATOM     28  C   UNL     1      -3.314   1.585  23.106  0.00  0.00    +0.000 C 
ATOM     29  C   UNL     1      -2.373   2.424  22.436  0.00  0.00    +0.000 C 
ENDBRANCH  26  27
BRANCH   7   6
ATOM      6  C   UNL     1      -2.903   3.159  24.266  0.00  0.00    +0.093 C 
BRANCH   6   5
ATOM      5  N   UNL     1      -3.237   3.534  24.920  0.00  0.00    -0.215 NA
BRANCH   5   4
ATOM      4  C   UNL     1      -3.976   3.897  24.855  0.00  0.00    +0.121 C 
BRANCH   4   3
ATOM      3  C   UNL     1      -4.491   3.902  25.499  0.00  0.00    +0.161 C 
BRANCH   3   2
ATOM      1  C   UNL     1      -5.791   3.365  25.753  0.00  0.00    +0.174 C 
ATOM      2  O   UNL     1      -5.307   3.917  25.375  0.00  0.00    -0.350 OA
ENDBRANCH   3   2
ENDBRANCH   4   3
ENDBRANCH   5   4
ENDBRANCH   6   5
ENDBRANCH   7   6
BRANCH  11  12
ATOM     12  C   UNL     1      -0.464   0.976  24.685  0.00  0.00    +0.091 C 
BRANCH  12  13
ATOM     13  C   UNL     1      -0.620   0.167  24.634  0.00  0.00    +0.227 A 
ATOM     14  N   UNL     1      -0.068  -0.423  24.467  0.00  0.00    -0.111 NA
ATOM     15  N   UNL     1      -0.461  -1.148  24.471  0.00  0.00    -0.107 NA
ATOM     16  C   UNL     1      -1.255  -1.006  24.641  0.00  0.00    +0.250 A 
ATOM     17  O   UNL     1      -1.353  -0.193  24.742  0.00  0.00    -0.420 OA
BRANCH  16  18
ATOM     18  C   UNL     1      -1.849  -1.577  24.700  0.00  0.00    +0.055 A 
ATOM     19  C   UNL     1      -2.498  -1.447  25.193  0.00  0.00    +0.004 A 
ATOM     20  C   UNL     1      -3.091  -2.017  25.253  0.00  0.00    -0.004 A 
ATOM     21  C   UNL     1      -3.036  -2.717  24.819  0.00  0.00    -0.022 A 
ATOM     22  C   UNL     1      -3.629  -3.287  24.878  0.00  0.00    +0.031 C 
ATOM     23  C   UNL     1      -2.387  -2.847  24.325  0.00  0.00    -0.004 A 
ATOM     24  C   UNL     1      -1.793  -2.276  24.266  0.00  0.00    +0.004 A 
ENDBRANCH  16  18
ENDBRANCH  12  13
ENDBRANCH  11  12
TORSDOF 9
ENDMDL
MODEL 7
REMARK VINA RESULT:      -9.2      1.609      5.063
REMARK  Name = 
REMARK  9 active torsions:
REMARK  status: ('A' for Active; 'I' for Inactive)
REMARK    1  A    between atoms: O_2  and  C_3
REMARK    2  A    between atoms: C_3  and  C_4
REMARK    3  A    between atoms: C_4  and  N_5
REMARK    4  A    between atoms: N_5  and  C_6
REMARK    5  A    between atoms: C_6  and  C_7
REMARK    6  A    between atoms: C_11  and  C_12
REMARK    7  A    between atoms: C_12  and  C_13
REMARK    8  A    between atoms: C_16  and  C_18
REMARK    9  A    between atoms: C_26  and  C_27
REMARK                            x       y       z     vdW  Elec       q    Type
REMARK                         _______ _______ _______ _____ _____    ______ ____
ROOT
ATOM      7  C   UNL     1      -2.521   3.584  24.719  0.00  0.00    +0.039 C 
ATOM      8  C   UNL     1      -2.681   3.285  23.967  0.00  0.00    -0.033 C 
ATOM      9  C   UNL     1      -3.383   2.873  23.828  0.00  0.00    -0.048 C 
ATOM     10  C   UNL     1      -3.543   2.574  23.076  0.00  0.00    +0.026 C 
ATOM     11  C   UNL     1      -3.924   2.762  24.441  0.00  0.00    +0.027 C 
ATOM     25  C   UNL     1      -3.763   3.063  25.192  0.00  0.00    +0.005 C 
ATOM     26  C   UNL     1      -3.062   3.473  25.331  0.00  0.00    +0.006 C 
ENDROOT
BRANCH  26  27
ATOM     27  C   UNL     1      -2.900   3.773  26.083  0.00  0.00    +0.000 C 
ATOM     28  C   UNL     1      -2.505   3.308  26.637  0.00  0.00    +0.000 C 
ATOM     29  C   UNL     1      -3.135   4.539  26.280  0.00  0.00    +0.000 C 
ENDBRANCH  26  27
BRANCH   7   6
ATOM      6  C   UNL     1      -1.818   3.995  24.857  0.00  0.00    +0.093 C 
BRANCH   6   5
ATOM      5  N   UNL     1      -1.168   3.878  24.363  0.00  0.00    -0.215 NA
BRANCH   5   4
ATOM      4  C   UNL     1      -0.423   3.738  24.688  0.00  0.00    +0.121 C 
BRANCH   4   3
ATOM      3  C   UNL     1       0.132   3.294  24.270  0.00  0.00    +0.161 C 
BRANCH   3   2
ATOM      1  C   UNL     1       0.721   1.991  24.271  0.00  0.00    +0.174 C 
ATOM      2  O   UNL     1       0.564   2.705  24.655  0.00  0.00    -0.350 OA
ENDBRANCH   3   2
ENDBRANCH   4   3
ENDBRANCH   5   4
ENDBRANCH   6   5
ENDBRANCH   7   6
BRANCH  11  12
ATOM     12  C   UNL     1      -4.626   2.352  24.302  0.00  0.00    +0.091 C 
BRANCH  12  13
ATOM     13  C   UNL     1      -4.724   1.589  24.601  0.00  0.00    +0.227 A 
ATOM     14  N   UNL     1      -5.307   1.350  25.134  0.00  0.00    -0.111 NA
ATOM     15  N   UNL     1      -5.201   0.545  25.282  0.00  0.00    -0.107 NA
ATOM     16  C   UNL     1      -4.554   0.288  24.840  0.00  0.00    +0.250 A 
ATOM     17  O   UNL     1      -4.260   0.933  24.419  0.00  0.00    -0.420 OA
BRANCH  16  18
ATOM     18  C   UNL     1      -4.253  -0.481  24.822  0.00  0.00    +0.055 A 
ATOM     19  C   UNL     1      -3.808  -0.764  25.456  0.00  0.00    +0.004 A 
ATOM     20  C   UNL     1      -3.507  -1.532  25.439  0.00  0.00    -0.004 A 
ATOM     21  C   UNL     1      -3.651  -2.017  24.786  0.00  0.00    -0.022 A 
ATOM     22  C   UNL     1      -3.350  -2.784  24.769  0.00  0.00    +0.031 C 
ATOM     23  C   UNL     1      -4.096  -1.733  24.152  0.00  0.00    -0.004 A 
ATOM     24  C   UNL     1      -4.397  -0.965  24.170  0.00  0.00    +0.004 A 
ENDBRANCH  16  18
ENDBRANCH  12  13
ENDBRANCH  11  12
TORSDOF 9
ENDMDL
MODEL 8
REMARK VINA RESULT:      -9.2      2.314      5.363
REMARK  Name = 
REMARK  9 active torsions:
REMARK  status: ('A' for Active; 'I' for Inactive)
REMARK    1  A    between atoms: O_2  and  C_3
REMARK    2  A    between atoms: C_3  and  C_4
REMARK    3  A    between atoms: C_4  and  N_5
REMARK    4  A    between atoms: N_5  and  C_6
REMARK    5  A    between atoms: C_6  and  C_7
REMARK    6  A    between atoms: C_11  and  C_12
REMARK    7  A    between atoms: C_12  and  C_13
REMARK    8  A    between atoms: C_16  and  C_18
REMARK    9  A    between atoms: C_26  and  C_27
REMARK                            x       y       z     vdW  Elec       q    Type
REMARK                         _______ _______ _______ _____ _____    ______ ____
ROOT
ATOM      7  C   UNL     1      -0.824   2.401  25.561  0.00  0.00    +0.039 C 
ATOM      8  C   UNL     1      -1.412   2.900  25.855  0.00  0.00    -0.033 C 
ATOM      9  C   UNL     1      -2.173   2.871  25.535  0.00  0.00    -0.048 C 
ATOM     10  C   UNL     1      -2.761   3.370  25.829  0.00  0.00    +0.026 C 
ATOM     11  C   UNL     1      -2.345   2.345  24.924  0.00  0.00    +0.027 C 
ATOM     25  C   UNL     1      -1.756   1.847  24.632  0.00  0.00    +0.005 C 
ATOM     26  C   UNL     1      -0.996   1.875  24.950  0.00  0.00    +0.006 C 
ENDROOT
BRANCH  26  27
ATOM     27  C   UNL     1      -0.407   1.376  24.658  0.00  0.00    +0.000 C 
ATOM     28  C   UNL     1      -0.344   0.603  24.936  0.00  0.00    +0.000 C 
ATOM     29  C   UNL     1       0.121   1.653  24.086  0.00  0.00    +0.000 C 
ENDBRANCH  26  27
BRANCH   7   6
ATOM      6  C   UNL     1      -0.063   2.429  25.881  0.00  0.00    +0.093 C 
BRANCH   6   5
ATOM      5  N   UNL     1       0.045   2.647  26.669  0.00  0.00    -0.215 NA
BRANCH   5   4
ATOM      4  C   UNL     1       0.807   2.685  26.985  0.00  0.00    +0.121 C 
BRANCH   4   3
ATOM      3  C   UNL     1       0.916   2.642  27.801  0.00  0.00    +0.161 C 
BRANCH   3   2
ATOM      1  C   UNL     1       1.788   2.645  28.933  0.00  0.00    +0.174 C 
ATOM      2  O   UNL     1       1.673   2.724  28.121  0.00  0.00    -0.350 OA
ENDBRANCH   3   2
ENDBRANCH   4   3
ENDBRANCH   5   4
ENDBRANCH   6   5
ENDBRANCH   7   6
BRANCH  11  12
ATOM     12  C   UNL     1      -3.105   2.317  24.606  0.00  0.00    +0.091 C 
BRANCH  12  13
ATOM     13  C   UNL     1      -3.559   1.632  24.680  0.00  0.00    +0.227 A 
ATOM     14  N   UNL     1      -4.346   1.597  24.925  0.00  0.00    -0.111 NA
ATOM     15  N   UNL     1      -4.580   0.806  24.919  0.00  0.00    -0.107 NA
ATOM     16  C   UNL     1      -3.938   0.353  24.669  0.00  0.00    +0.250 A 
ATOM     17  O   UNL     1      -3.307   0.863  24.521  0.00  0.00    -0.420 OA
BRANCH  16  18
ATOM     18  C   UNL     1      -3.928  -0.468  24.582  0.00  0.00    +0.055 A 
ATOM     19  C   UNL     1      -4.169  -0.810  23.870  0.00  0.00    +0.004 A 
ATOM     20  C   UNL     1      -4.159  -1.630  23.782  0.00  0.00    -0.004 A 
ATOM     21  C   UNL     1      -3.908  -2.109  24.406  0.00  0.00    -0.022 A 
ATOM     22  C   UNL     1      -3.898  -2.928  24.318  0.00  0.00    +0.031 C 
ATOM     23  C   UNL     1      -3.667  -1.767  25.117  0.00  0.00    -0.004 A 
ATOM     24  C   UNL     1      -3.677  -0.946  25.204  0.00  0.00    +0.004 A 
ENDBRANCH  16  18
ENDBRANCH  12  13
ENDBRANCH  11  12
TORSDOF 9
ENDMDL
MODEL 9
REMARK VINA RESULT:      -9.1      1.805      5.292
REMARK  Name = 
REMARK  9 active torsions:
REMARK  status: ('A' for Active; 'I' for Inactive)
REMARK    1  A    between atoms: O_2  and  C_3
REMARK    2  A    between atoms: C_3  and  C_4
REMARK    3  A    between atoms: C_4  and  N_5
REMARK    4  A    between atoms: N_5  and  C_6
REMARK    5  A    between atoms: C_6  and  C_7
REMARK    6  A    between atoms: C_11  and  C_12
REMARK    7  A    between atoms: C_12  and  C_13
REMARK    8  A    between atoms: C_16  and  C_18
REMARK    9  A    between atoms: C_26  and  C_27
REMARK                            x       y       z     vdW  Elec       q    Type
REMARK                         _______ _______ _______ _____ _____    ______ ____
ROOT
ATOM      7  C   UNL     1      -2.656   3.250  24.493  0.00  0.00    +0.039 C 
ATOM      8  C   UNL     1      -2.907   2.851  23.816  0.00  0.00    -0.033 C 
ATOM      9  C   UNL     1      -2.434   2.259  23.488  0.00  0.00    -0.048 C 
ATOM     10  C   UNL     1      -2.685   1.859  22.811  0.00  0.00    +0.026 C 
ATOM     11  C   UNL     1      -1.711   2.068  23.836  0.00  0.00    +0.027 C 
ATOM     25  C   UNL     1      -1.461   2.468  24.513  0.00  0.00    +0.005 C 
ATOM     26  C   UNL     1      -1.933   3.059  24.841  0.00  0.00    +0.006 C 
ENDROOT
BRANCH  26  27
ATOM     27  C   UNL     1      -1.683   3.460  25.518  0.00  0.00    +0.000 C 
ATOM     28  C   UNL     1      -1.317   4.195  25.451  0.00  0.00    +0.000 C 
ATOM     29  C   UNL     1      -1.800   3.124  26.262  0.00  0.00    +0.000 C 
ENDBRANCH  26  27
BRANCH   7   6
ATOM      6  C   UNL     1      -3.129   3.842  24.821  0.00  0.00    +0.093 C 
BRANCH   6   5
ATOM      5  N   UNL     1      -3.942   3.844  24.682  0.00  0.00    -0.215 NA
BRANCH   5   4
ATOM      4  C   UNL     1      -4.464   4.042  25.290  0.00  0.00    +0.121 C 
BRANCH   4   3
ATOM      3  C   UNL     1      -5.247   3.784  25.261  0.00  0.00    +0.161 C 
BRANCH   3   2
ATOM      1  C   UNL     1      -6.025   2.798  25.942  0.00  0.00    +0.174 C 
ATOM      2  O   UNL     1      -5.618   3.515  25.948  0.00  0.00    -0.350 OA
ENDBRANCH   3   2
ENDBRANCH   4   3
ENDBRANCH   5   4
ENDBRANCH   6   5
ENDBRANCH   7   6
BRANCH  11  12
ATOM     12  C   UNL     1      -1.239   1.477  23.508  0.00  0.00    +0.091 C 
BRANCH  12  13
ATOM     13  C   UNL     1      -1.188   0.738  23.873  0.00  0.00    +0.227 A 
ATOM     14  N   UNL     1      -0.507   0.405  24.199  0.00  0.00    -0.111 NA
ATOM     15  N   UNL     1      -0.706  -0.335  24.503  0.00  0.00    -0.107 NA
ATOM     16  C   UNL     1      -1.509  -0.459  24.365  0.00  0.00    +0.250 A 
ATOM     17  O   UNL     1      -1.807   0.204  23.976  0.00  0.00    -0.420 OA
BRANCH  16  18
ATOM     18  C   UNL     1      -1.941  -1.130  24.579  0.00  0.00    +0.055 A 
ATOM     19  C   UNL     1      -2.592  -1.058  25.082  0.00  0.00    +0.004 A 
ATOM     20  C   UNL     1      -3.023  -1.727  25.296  0.00  0.00    -0.004 A 
ATOM     21  C   UNL     1      -2.805  -2.469  25.008  0.00  0.00    -0.022 A 
ATOM     22  C   UNL     1      -3.236  -3.138  25.222  0.00  0.00    +0.031 C 
ATOM     23  C   UNL     1      -2.154  -2.541  24.505  0.00  0.00    -0.004 A 
ATOM     24  C   UNL     1      -1.722  -1.870  24.291  0.00  0.00    +0.004 A 
ENDBRANCH  16  18
ENDBRANCH  12  13
ENDBRANCH  11  12
TORSDOF 9
ENDMDL
MODEL 10
REMARK VINA RESULT:      -9.0      2.454      5.210
REMARK  Name = 
REMARK  9 active torsions:
REMARK  status: ('A' for Active; 'I' for Inactive)
REMARK    1  A    between atoms: O_2  and  C_3
REMARK    2  A    between atoms: C_3  and  C_4
REMARK    3  A    between atoms: C_4  and  N_5
REMARK    4  A    between atoms: N_5  and  C_6
REMARK    5  A    between atoms: C_6  and  C_7
REMARK    6  A    between atoms: C_11  and  C_12
REMARK    7  A    between atoms: C_12  and  C_13
REMARK    8  A    between atoms: C_16  and  C_18
REMARK    9  A    between atoms: C_26  and  C_27
REMARK                            x       y       z     vdW  Elec       q    Type
REMARK                         _______ _______ _______ _____ _____    ______ ____
ROOT
ATOM      7  C   UNL     1      -0.299   2.483  25.636  0.00  0.00    +0.039 C 
ATOM      8  C   UNL     1      -0.254   1.662  25.571  0.00  0.00    -0.033 C 
ATOM      9  C   UNL     1      -0.685   1.271  24.985  0.00  0.00    -0.048 C 
ATOM     10  C   UNL     1      -0.640   0.450  24.919  0.00  0.00    +0.026 C 
ATOM     11  C   UNL     1      -1.159   1.701  24.465  0.00  0.00    +0.027 C 
ATOM     25  C   UNL     1      -1.204   2.522  24.531  0.00  0.00    +0.005 C 
ATOM     26  C   UNL     1      -0.774   2.913  25.116  0.00  0.00    +0.006 C 
ENDROOT
BRANCH  26  27
ATOM     27  C   UNL     1      -0.818   3.735  25.182  0.00  0.00    +0.000 C 
ATOM     28  C   UNL     1      -1.382   4.079  25.675  0.00  0.00    +0.000 C 
ATOM     29  C   UNL     1      -0.297   4.211  24.755  0.00  0.00    +0.000 C 
ENDBRANCH  26  27
BRANCH   7   6
ATOM      6  C   UNL     1       0.131   2.874  26.222  0.00  0.00    +0.093 C 
BRANCH   6   5
ATOM      5  N   UNL     1       0.500   2.442  26.820  0.00  0.00    -0.215 NA
BRANCH   5   4
ATOM      4  C   UNL     1       1.011   2.820  27.347  0.00  0.00    +0.121 C 
BRANCH   4   3
ATOM      3  C   UNL     1       1.178   2.475  28.077  0.00  0.00    +0.161 C 
BRANCH   3   2
ATOM      1  C   UNL     1       1.927   2.484  29.294  0.00  0.00    +0.174 C 
ATOM      2  O   UNL     1       1.834   2.727  28.512  0.00  0.00    -0.350 OA
ENDBRANCH   3   2
ENDBRANCH   4   3
ENDBRANCH   5   4
ENDBRANCH   6   5
ENDBRANCH   7   6
BRANCH  11  12
ATOM     12  C   UNL     1      -1.589   1.310  23.880  0.00  0.00    +0.091 C 
BRANCH  12  13
ATOM     13  C   UNL     1      -2.396   1.460  23.790  0.00  0.00    +0.227 A 
ATOM     14  N   UNL     1      -2.781   1.628  23.080  0.00  0.00    -0.111 NA
ATOM     15  N   UNL     1      -3.582   1.739  23.245  0.00  0.00    -0.107 NA
ATOM     16  C   UNL     1      -3.691   1.640  24.056  0.00  0.00    +0.250 A 
ATOM     17  O   UNL     1      -2.958   1.467  24.393  0.00  0.00    -0.420 OA
BRANCH  16  18
ATOM     18  C   UNL     1      -4.408   1.702  24.461  0.00  0.00    +0.055 A 
ATOM     19  C   UNL     1      -4.757   1.028  24.785  0.00  0.00    +0.004 A 
ATOM     20  C   UNL     1      -5.473   1.090  25.190  0.00  0.00    -0.004 A 
ATOM     21  C   UNL     1      -5.840   1.825  25.270  0.00  0.00    -0.022 A 
ATOM     22  C   UNL     1      -6.556   1.886  25.675  0.00  0.00    +0.031 C 
ATOM     23  C   UNL     1      -5.490   2.499  24.946  0.00  0.00    -0.004 A 
ATOM     24  C   UNL     1      -4.774   2.436  24.541  0.00  0.00    +0.004 A 
ENDBRANCH  16  18
ENDBRANCH  12  13
ENDBRANCH  11  12
TORSDOF 9
ENDMDL
