MODEL 1
REMARK VINA RESULT:     -11.4      0.000      0.000
REMARK  Name = 
REMARK  2 active torsions:
REMARK  status: ('A' for Active; 'I' for Inactive)
REMARK    1  A    between atoms: C_2  and  C_3
REMARK    2  A    between atoms: C_21  and  C_24
REMARK                            x       y       z     vdW  Elec       q    Type
REMARK                         _______ _______ _______ _____ _____    ______ ____
ROOT
ATOM      1  O   UNL     1      -4.557   3.847  24.209  0.00  0.00    -0.275 OA
ATOM      2  C   UNL     1      -4.393   3.094  24.505  0.00  0.00    +0.225 C 
ATOM      9  N   UNL     1      -3.676   2.727  24.324  0.00  0.00    -0.276 N 
ATOM     10  C   UNL     1      -3.124   3.112  23.848  0.00  0.00    +0.115 C 
ATOM     11  C   UNL     1      -2.408   2.746  23.667  0.00  0.00    +0.116 C 
ATOM     12  N   UNL     1      -2.244   1.993  23.963  0.00  0.00    -0.266 N 
ATOM     13  C   UNL     1      -2.796   1.608  24.439  0.00  0.00    +0.174 C 
ATOM     14  C   UNL     1      -3.512   1.974  24.620  0.00  0.00    +0.123 C 
ATOM     15  C   UNL     1      -2.743   0.862  24.788  0.00  0.00    +0.265 C 
ATOM     16  O   UNL     1      -3.395   0.630  25.237  0.00  0.00    -0.271 OA
ATOM     17  N   UNL     1      -2.125   0.317  24.747  0.00  0.00    -0.178 NA
ATOM     18  C   UNL     1      -1.407   0.385  24.347  0.00  0.00    +0.078 A 
ATOM     19  C   UNL     1      -1.130   1.012  23.890  0.00  0.00    +0.069 A 
ATOM     20  C   UNL     1      -0.386   0.966  23.533  0.00  0.00    +0.006 A 
ATOM     21  C   UNL     1       0.079   0.293  23.636  0.00  0.00    +0.000 A 
ATOM     22  C   UNL     1      -0.198  -0.334  24.093  0.00  0.00    +0.001 A 
ATOM     23  C   UNL     1      -0.941  -0.289  24.449  0.00  0.00    +0.017 A 
ATOM     33  C   UNL     1      -1.502   1.728  23.718  0.00  0.00    +0.251 C 
ATOM     34  O   UNL     1      -1.076   2.247  23.239  0.00  0.00    -0.270 OA
ENDROOT
BRANCH  21  24
ATOM     24  C   UNL     1       0.822   0.247  23.280  0.00  0.00    +0.003 A 
ATOM     25  C   UNL     1       1.430   0.746  23.529  0.00  0.00    +0.040 A 
ATOM     26  C   UNL     1       2.173   0.701  23.173  0.00  0.00    +0.176 A 
ATOM     27  C   UNL     1       2.308   0.156  22.568  0.00  0.00    +0.176 A 
ATOM     28  O   UNL     1       3.092   0.237  22.322  0.00  0.00    -0.435 OA
ATOM     29  C   UNL     1       3.440   0.831  22.775  0.00  0.00    +0.429 C 
ATOM     30  O   UNL     1       2.874   1.118  23.301  0.00  0.00    -0.435 OA
ATOM     31  C   UNL     1       1.700  -0.343  22.318  0.00  0.00    +0.040 A 
ATOM     32  C   UNL     1       0.957  -0.297  22.675  0.00  0.00    +0.003 A 
ENDBRANCH  21  24
BRANCH   2   3
ATOM      3  C   UNL     1      -4.946   2.709  24.981  0.00  0.00    +0.080 C 
ATOM      4  C   UNL     1      -5.470   2.166  24.648  0.00  0.00    +0.028 C 
ATOM      5  C   UNL     1      -6.023   1.780  25.124  0.00  0.00    +0.089 C 
ATOM      6  N   UNL     1      -6.051   1.938  25.933  0.00  0.00    -0.218 NA
ATOM      7  C   UNL     1      -5.527   2.482  26.266  0.00  0.00    +0.089 C 
ATOM      8  C   UNL     1      -4.974   2.867  25.790  0.00  0.00    +0.028 C 
ENDBRANCH   2   3
TORSDOF 2
ENDMDL
MODEL 2
REMARK VINA RESULT:      -9.5      2.623      4.699
REMARK  Name = 
REMARK  2 active torsions:
REMARK  status: ('A' for Active; 'I' for Inactive)
REMARK    1  A    between atoms: C_2  and  C_3
REMARK    2  A    between atoms: C_21  and  C_24
REMARK                            x       y       z     vdW  Elec       q    Type
REMARK                         _______ _______ _______ _____ _____    ______ ____
ROOT
ATOM      1  O   UNL     1       0.204   3.808  25.388  0.00  0.00    -0.275 OA
ATOM      2  C   UNL     1      -0.597   3.827  25.188  0.00  0.00    +0.225 C 
ATOM      9  N   UNL     1      -1.010   3.122  25.072  0.00  0.00    -0.276 N 
ATOM     10  C   UNL     1      -0.623   2.399  25.156  0.00  0.00    +0.115 C 
ATOM     11  C   UNL     1      -1.036   1.694  25.040  0.00  0.00    +0.116 C 
ATOM     12  N   UNL     1      -1.836   1.713  24.840  0.00  0.00    -0.266 N 
ATOM     13  C   UNL     1      -2.223   2.437  24.756  0.00  0.00    +0.174 C 
ATOM     14  C   UNL     1      -1.811   3.141  24.872  0.00  0.00    +0.123 C 
ATOM     15  C   UNL     1      -3.012   2.579  24.561  0.00  0.00    +0.265 C 
ATOM     16  O   UNL     1      -3.233   3.372  24.520  0.00  0.00    -0.271 OA
ATOM     17  N   UNL     1      -3.609   2.032  24.402  0.00  0.00    -0.178 NA
ATOM     18  C   UNL     1      -3.564   1.208  24.399  0.00  0.00    +0.078 A 
ATOM     19  C   UNL     1      -2.912   0.728  24.553  0.00  0.00    +0.069 A 
ATOM     20  C   UNL     1      -2.986  -0.093  24.520  0.00  0.00    +0.006 A 
ATOM     21  C   UNL     1      -3.714  -0.433  24.332  0.00  0.00    +0.000 A 
ATOM     22  C   UNL     1      -4.366   0.047  24.177  0.00  0.00    +0.001 A 
ATOM     23  C   UNL     1      -4.292   0.867  24.210  0.00  0.00    +0.017 A 
ATOM     33  C   UNL     1      -2.142   0.953  24.750  0.00  0.00    +0.251 C 
ATOM     34  O   UNL     1      -1.610   0.335  24.873  0.00  0.00    -0.270 OA
ENDROOT
BRANCH  21  24
ATOM     24  C   UNL     1      -3.789  -1.255  24.299  0.00  0.00    +0.003 A 
ATOM     25  C   UNL     1      -3.462  -1.722  24.895  0.00  0.00    +0.040 A 
ATOM     26  C   UNL     1      -3.537  -2.544  24.861  0.00  0.00    +0.176 A 
ATOM     27  C   UNL     1      -3.938  -2.897  24.233  0.00  0.00    +0.176 A 
ATOM     28  O   UNL     1      -3.924  -3.714  24.347  0.00  0.00    -0.435 OA
ATOM     29  C   UNL     1      -3.514  -3.865  25.046  0.00  0.00    +0.429 C 
ATOM     30  O   UNL     1      -3.275  -3.143  25.365  0.00  0.00    -0.435 OA
ATOM     31  C   UNL     1      -4.265  -2.428  23.636  0.00  0.00    +0.040 A 
ATOM     32  C   UNL     1      -4.190  -1.608  23.670  0.00  0.00    +0.003 A 
ENDBRANCH  21  24
BRANCH   2   3
ATOM      3  C   UNL     1      -0.984   4.551  25.104  0.00  0.00    +0.080 C 
ATOM      4  C   UNL     1      -1.548   4.784  25.658  0.00  0.00    +0.028 C 
ATOM      5  C   UNL     1      -1.936   5.508  25.574  0.00  0.00    +0.089 C 
ATOM      6  N   UNL     1      -1.757   5.999  24.935  0.00  0.00    -0.218 NA
ATOM      7  C   UNL     1      -1.192   5.766  24.381  0.00  0.00    +0.089 C 
ATOM      8  C   UNL     1      -0.805   5.042  24.465  0.00  0.00    +0.028 C 
ENDBRANCH   2   3
TORSDOF 2
ENDMDL
MODEL 3
REMARK VINA RESULT:      -9.4      2.662      4.883
REMARK  Name = 
REMARK  2 active torsions:
REMARK  status: ('A' for Active; 'I' for Inactive)
REMARK    1  A    between atoms: C_2  and  C_3
REMARK    2  A    between atoms: C_21  and  C_24
REMARK                            x       y       z     vdW  Elec       q    Type
REMARK                         _______ _______ _______ _____ _____    ______ ____
ROOT
ATOM      1  O   UNL     1      -1.289  -2.605  24.995  0.00  0.00    -0.275 OA
ATOM      2  C   UNL     1      -1.989  -2.202  24.825  0.00  0.00    +0.225 C 
ATOM      9  N   UNL     1      -2.007  -1.377  24.853  0.00  0.00    -0.276 N 
ATOM     10  C   UNL     1      -1.326  -0.956  25.051  0.00  0.00    +0.115 C 
ATOM     11  C   UNL     1      -1.344  -0.132  25.079  0.00  0.00    +0.116 C 
ATOM     12  N   UNL     1      -2.043   0.271  24.908  0.00  0.00    -0.266 N 
ATOM     13  C   UNL     1      -2.724  -0.150  24.711  0.00  0.00    +0.174 C 
ATOM     14  C   UNL     1      -2.707  -0.974  24.683  0.00  0.00    +0.123 C 
ATOM     15  C   UNL     1      -3.473   0.142  24.523  0.00  0.00    +0.265 C 
ATOM     16  O   UNL     1      -4.045  -0.426  24.348  0.00  0.00    -0.271 OA
ATOM     17  N   UNL     1      -3.725   0.926  24.487  0.00  0.00    -0.178 NA
ATOM     18  C   UNL     1      -3.291   1.613  24.630  0.00  0.00    +0.078 A 
ATOM     19  C   UNL     1      -2.498   1.685  24.843  0.00  0.00    +0.069 A 
ATOM     20  C   UNL     1      -2.168   2.432  24.961  0.00  0.00    +0.006 A 
ATOM     21  C   UNL     1      -2.632   3.107  24.864  0.00  0.00    +0.000 A 
ATOM     22  C   UNL     1      -3.425   3.035  24.650  0.00  0.00    +0.001 A 
ATOM     23  C   UNL     1      -3.755   2.289  24.533  0.00  0.00    +0.017 A 
ATOM     33  C   UNL     1      -1.942   1.088  24.968  0.00  0.00    +0.251 C 
ATOM     34  O   UNL     1      -1.186   1.341  25.179  0.00  0.00    -0.270 OA
ENDROOT
BRANCH  21  24
ATOM     24  C   UNL     1      -2.302   3.855  24.981  0.00  0.00    +0.003 A 
ATOM     25  C   UNL     1      -1.576   4.043  24.640  0.00  0.00    +0.040 A 
ATOM     26  C   UNL     1      -1.246   4.790  24.757  0.00  0.00    +0.176 A 
ATOM     27  C   UNL     1      -1.643   5.349  25.216  0.00  0.00    +0.176 A 
ATOM     28  O   UNL     1      -1.185   6.036  25.234  0.00  0.00    -0.435 OA
ATOM     29  C   UNL     1      -0.506   5.901  24.787  0.00  0.00    +0.429 C 
ATOM     30  O   UNL     1      -0.542   5.131  24.492  0.00  0.00    -0.435 OA
ATOM     31  C   UNL     1      -2.370   5.161  25.558  0.00  0.00    +0.040 A 
ATOM     32  C   UNL     1      -2.700   4.414  25.440  0.00  0.00    +0.003 A 
ENDBRANCH  21  24
BRANCH   2   3
ATOM      3  C   UNL     1      -2.670  -2.623  24.627  0.00  0.00    +0.080 C 
ATOM      4  C   UNL     1      -2.811  -2.834  23.843  0.00  0.00    +0.028 C 
ATOM      5  C   UNL     1      -3.492  -3.256  23.644  0.00  0.00    +0.089 C 
ATOM      6  N   UNL     1      -4.033  -3.466  24.232  0.00  0.00    -0.218 NA
ATOM      7  C   UNL     1      -3.891  -3.254  25.017  0.00  0.00    +0.089 C 
ATOM      8  C   UNL     1      -3.210  -2.833  25.215  0.00  0.00    +0.028 C 
ENDBRANCH   2   3
TORSDOF 2
ENDMDL
MODEL 4
REMARK VINA RESULT:      -9.0      1.409      2.245
REMARK  Name = 
REMARK  2 active torsions:
REMARK  status: ('A' for Active; 'I' for Inactive)
REMARK    1  A    between atoms: C_2  and  C_3
REMARK    2  A    between atoms: C_21  and  C_24
REMARK                            x       y       z     vdW  Elec       q    Type
REMARK                         _______ _______ _______ _____ _____    ______ ____
ROOT
ATOM      1  O   UNL     1      -2.402   3.470  25.488  0.00  0.00    -0.275 OA
ATOM      2  C   UNL     1      -2.381   2.788  25.024  0.00  0.00    +0.225 C 
ATOM      9  N   UNL     1      -1.656   2.485  24.768  0.00  0.00    -0.276 N 
ATOM     10  C   UNL     1      -0.954   2.864  24.978  0.00  0.00    +0.115 C 
ATOM     11  C   UNL     1      -0.231   2.562  24.723  0.00  0.00    +0.116 C 
ATOM     12  N   UNL     1      -0.209   1.880  24.258  0.00  0.00    -0.266 N 
ATOM     13  C   UNL     1      -0.912   1.501  24.049  0.00  0.00    +0.174 C 
ATOM     14  C   UNL     1      -1.635   1.803  24.304  0.00  0.00    +0.123 C 
ATOM     15  C   UNL     1      -1.013   0.821  23.593  0.00  0.00    +0.265 C 
ATOM     16  O   UNL     1      -1.793   0.578  23.482  0.00  0.00    -0.271 OA
ATOM     17  N   UNL     1      -0.438   0.351  23.235  0.00  0.00    -0.178 NA
ATOM     18  C   UNL     1       0.382   0.447  23.243  0.00  0.00    +0.078 A 
ATOM     19  C   UNL     1       0.828   1.034  23.612  0.00  0.00    +0.069 A 
ATOM     20  C   UNL     1       1.651   1.027  23.551  0.00  0.00    +0.006 A 
ATOM     21  C   UNL     1       2.027   0.432  23.120  0.00  0.00    +0.000 A 
ATOM     22  C   UNL     1       1.581  -0.155  22.752  0.00  0.00    +0.001 A 
ATOM     23  C   UNL     1       0.759  -0.149  22.813  0.00  0.00    +0.017 A 
ATOM     33  C   UNL     1       0.565   1.672  24.064  0.00  0.00    +0.251 C 
ATOM     34  O   UNL     1       1.154   2.168  24.360  0.00  0.00    -0.270 OA
ENDROOT
BRANCH  21  24
ATOM     24  C   UNL     1       2.850   0.425  23.059  0.00  0.00    +0.003 A 
ATOM     25  C   UNL     1       3.288  -0.152  23.455  0.00  0.00    +0.040 A 
ATOM     26  C   UNL     1       4.111  -0.159  23.394  0.00  0.00    +0.176 A 
ATOM     27  C   UNL     1       4.496   0.411  22.937  0.00  0.00    +0.176 A 
ATOM     28  O   UNL     1       5.307   0.266  22.980  0.00  0.00    -0.435 OA
ATOM     29  C   UNL     1       5.423  -0.392  23.462  0.00  0.00    +0.429 C 
ATOM     30  O   UNL     1       4.685  -0.656  23.718  0.00  0.00    -0.435 OA
ATOM     31  C   UNL     1       4.058   0.988  22.541  0.00  0.00    +0.040 A 
ATOM     32  C   UNL     1       3.235   0.994  22.603  0.00  0.00    +0.003 A 
ENDBRANCH  21  24
BRANCH   2   3
ATOM      3  C   UNL     1      -3.083   2.409  24.815  0.00  0.00    +0.080 C 
ATOM      4  C   UNL     1      -3.380   1.801  25.285  0.00  0.00    +0.028 C 
ATOM      5  C   UNL     1      -4.082   1.422  25.076  0.00  0.00    +0.089 C 
ATOM      6  N   UNL     1      -4.488   1.652  24.396  0.00  0.00    -0.218 NA
ATOM      7  C   UNL     1      -4.191   2.261  23.925  0.00  0.00    +0.089 C 
ATOM      8  C   UNL     1      -3.489   2.640  24.134  0.00  0.00    +0.028 C 
ENDBRANCH   2   3
TORSDOF 2
ENDMDL
MODEL 5
REMARK VINA RESULT:      -8.5     13.864     14.353
REMARK  Name = 
REMARK  2 active torsions:
REMARK  status: ('A' for Active; 'I' for Inactive)
REMARK    1  A    between atoms: C_2  and  C_3
REMARK    2  A    between atoms: C_21  and  C_24
REMARK                            x       y       z     vdW  Elec       q    Type
REMARK                         _______ _______ _______ _____ _____    ______ ____
ROOT
ATOM      1  O   UNL     1      -9.696  -9.100  15.903  0.00  0.00    -0.275 OA
ATOM      2  C   UNL     1      -9.257  -9.401  16.534  0.00  0.00    +0.225 C 
ATOM      9  N   UNL     1      -8.450  -9.546  16.443  0.00  0.00    -0.276 N 
ATOM     10  C   UNL     1      -8.081  -9.390  15.722  0.00  0.00    +0.115 C 
ATOM     11  C   UNL     1      -7.275  -9.535  15.631  0.00  0.00    +0.116 C 
ATOM     12  N   UNL     1      -6.836  -9.836  16.262  0.00  0.00    -0.266 N 
ATOM     13  C   UNL     1      -7.205  -9.992  16.983  0.00  0.00    +0.174 C 
ATOM     14  C   UNL     1      -8.011  -9.847  17.074  0.00  0.00    +0.123 C 
ATOM     15  C   UNL     1      -6.872 -10.290  17.676  0.00  0.00    +0.265 C 
ATOM     16  O   UNL     1      -7.391 -10.385  18.310  0.00  0.00    -0.271 OA
ATOM     17  N   UNL     1      -6.089 -10.507  17.820  0.00  0.00    -0.178 NA
ATOM     18  C   UNL     1      -5.445 -10.478  17.304  0.00  0.00    +0.078 A 
ATOM     19  C   UNL     1      -5.425 -10.226  16.520  0.00  0.00    +0.069 A 
ATOM     20  C   UNL     1      -4.715 -10.243  16.099  0.00  0.00    +0.006 A 
ATOM     21  C   UNL     1      -4.026 -10.511  16.464  0.00  0.00    +0.000 A 
ATOM     22  C   UNL     1      -4.046 -10.763  17.248  0.00  0.00    +0.001 A 
ATOM     23  C   UNL     1      -4.755 -10.747  17.670  0.00  0.00    +0.017 A 
ATOM     33  C   UNL     1      -6.045  -9.940  16.055  0.00  0.00    +0.251 C 
ATOM     34  O   UNL     1      -5.845  -9.732  15.282  0.00  0.00    -0.270 OA
ENDROOT
BRANCH  21  24
ATOM     24  C   UNL     1      -3.316 -10.528  16.043  0.00  0.00    +0.003 A 
ATOM     25  C   UNL     1      -2.613 -10.307  16.413  0.00  0.00    +0.040 A 
ATOM     26  C   UNL     1      -1.903 -10.324  15.992  0.00  0.00    +0.176 A 
ATOM     27  C   UNL     1      -1.897 -10.561  15.202  0.00  0.00    +0.176 A 
ATOM     28  O   UNL     1      -1.119 -10.522  14.929  0.00  0.00    -0.435 OA
ATOM     29  C   UNL     1      -0.645 -10.261  15.551  0.00  0.00    +0.429 C 
ATOM     30  O   UNL     1      -1.128 -10.139  16.208  0.00  0.00    -0.435 OA
ATOM     31  C   UNL     1      -2.601 -10.781  14.832  0.00  0.00    +0.040 A 
ATOM     32  C   UNL     1      -3.311 -10.765  15.253  0.00  0.00    +0.003 A 
ENDBRANCH  21  24
BRANCH   2   3
ATOM      3  C   UNL     1      -9.626  -9.556  17.256  0.00  0.00    +0.080 C 
ATOM      4  C   UNL     1      -9.946 -10.301  17.403  0.00  0.00    +0.028 C 
ATOM      5  C   UNL     1     -10.314 -10.458  18.125  0.00  0.00    +0.089 C 
ATOM      6  N   UNL     1     -10.363  -9.867  18.699  0.00  0.00    -0.218 NA
ATOM      7  C   UNL     1     -10.043  -9.121  18.551  0.00  0.00    +0.089 C 
ATOM      8  C   UNL     1      -9.674  -8.965  17.830  0.00  0.00    +0.028 C 
ENDBRANCH   2   3
TORSDOF 2
ENDMDL
MODEL 6
REMARK VINA RESULT:      -8.1      1.749      6.308
REMARK  Name = 
REMARK  2 active torsions:
REMARK  status: ('A' for Active; 'I' for Inactive)
REMARK    1  A    between atoms: C_2  and  C_3
REMARK    2  A    between atoms: C_21  and  C_24
REMARK                            x       y       z     vdW  Elec       q    Type
REMARK                         _______ _______ _______ _____ _____    ______ ____
ROOT
ATOM      1  O   UNL     1       1.605  -0.795  21.991  0.00  0.00    -0.275 OA
ATOM      2  C   UNL     1       1.692  -0.175  22.529  0.00  0.00    +0.225 C 
ATOM      9  N   UNL     1       1.024   0.184  22.855  0.00  0.00    -0.276 N 
ATOM     10  C   UNL     1       0.270  -0.077  22.644  0.00  0.00    +0.115 C 
ATOM     11  C   UNL     1      -0.397   0.282  22.970  0.00  0.00    +0.116 C 
ATOM     12  N   UNL     1      -0.310   0.901  23.508  0.00  0.00    -0.266 N 
ATOM     13  C   UNL     1       0.443   1.162  23.720  0.00  0.00    +0.174 C 
ATOM     14  C   UNL     1       1.110   0.804  23.394  0.00  0.00    +0.123 C 
ATOM     15  C   UNL     1       0.651   1.766  24.242  0.00  0.00    +0.265 C 
ATOM     16  O   UNL     1       1.460   1.894  24.337  0.00  0.00    -0.271 OA
ATOM     17  N   UNL     1       0.156   2.258  24.682  0.00  0.00    -0.178 NA
ATOM     18  C   UNL     1      -0.669   2.268  24.707  0.00  0.00    +0.078 A 
ATOM     19  C   UNL     1      -1.201   1.789  24.301  0.00  0.00    +0.069 A 
ATOM     20  C   UNL     1      -2.014   1.892  24.407  0.00  0.00    +0.006 A 
ATOM     21  C   UNL     1      -2.291   2.475  24.921  0.00  0.00    +0.000 A 
ATOM     22  C   UNL     1      -1.758   2.954  25.327  0.00  0.00    +0.001 A 
ATOM     23  C   UNL     1      -0.947   2.851  25.221  0.00  0.00    +0.017 A 
ATOM     33  C   UNL     1      -1.042   1.180  23.766  0.00  0.00    +0.251 C 
ATOM     34  O   UNL     1      -1.703   0.801  23.449  0.00  0.00    -0.270 OA
ENDROOT
BRANCH  21  24
ATOM     24  C   UNL     1      -3.104   2.577  25.027  0.00  0.00    +0.003 A 
ATOM     25  C   UNL     1      -3.589   1.922  25.151  0.00  0.00    +0.040 A 
ATOM     26  C   UNL     1      -4.401   2.025  25.258  0.00  0.00    +0.176 A 
ATOM     27  C   UNL     1      -4.727   2.782  25.240  0.00  0.00    +0.176 A 
ATOM     28  O   UNL     1      -5.540   2.713  25.361  0.00  0.00    -0.435 OA
ATOM     29  C   UNL     1      -5.716   1.913  25.454  0.00  0.00    +0.429 C 
ATOM     30  O   UNL     1      -5.013   1.487  25.390  0.00  0.00    -0.435 OA
ATOM     31  C   UNL     1      -4.241   3.438  25.115  0.00  0.00    +0.040 A 
ATOM     32  C   UNL     1      -3.430   3.335  25.009  0.00  0.00    +0.003 A 
ENDBRANCH  21  24
BRANCH   2   3
ATOM      3  C   UNL     1       2.445   0.086  22.740  0.00  0.00    +0.080 C 
ATOM      4  C   UNL     1       2.777   0.739  22.363  0.00  0.00    +0.028 C 
ATOM      5  C   UNL     1       3.531   1.000  22.574  0.00  0.00    +0.089 C 
ATOM      6  N   UNL     1       3.953   0.606  23.164  0.00  0.00    -0.218 NA
ATOM      7  C   UNL     1       3.621  -0.048  23.542  0.00  0.00    +0.089 C 
ATOM      8  C   UNL     1       2.867  -0.308  23.330  0.00  0.00    +0.028 C 
ENDBRANCH   2   3
TORSDOF 2
ENDMDL
MODEL 7
REMARK VINA RESULT:      -7.9     17.285     18.124
REMARK  Name = 
REMARK  2 active torsions:
REMARK  status: ('A' for Active; 'I' for Inactive)
REMARK    1  A    between atoms: C_2  and  C_3
REMARK    2  A    between atoms: C_21  and  C_24
REMARK                            x       y       z     vdW  Elec       q    Type
REMARK                         _______ _______ _______ _____ _____    ______ ____
ROOT
ATOM      1  O   UNL     1      -9.647  -9.088  10.967  0.00  0.00    -0.275 OA
ATOM      2  C   UNL     1      -9.174  -8.981  10.299  0.00  0.00    +0.225 C 
ATOM      9  N   UNL     1      -8.355  -9.063  10.357  0.00  0.00    -0.276 N 
ATOM     10  C   UNL     1      -8.009  -9.253  11.081  0.00  0.00    +0.115 C 
ATOM     11  C   UNL     1      -7.191  -9.336  11.138  0.00  0.00    +0.116 C 
ATOM     12  N   UNL     1      -6.718  -9.229  10.471  0.00  0.00    -0.266 N 
ATOM     13  C   UNL     1      -7.064  -9.039   9.746  0.00  0.00    +0.174 C 
ATOM     14  C   UNL     1      -7.882  -8.957   9.689  0.00  0.00    +0.123 C 
ATOM     15  C   UNL     1      -6.696  -8.910   9.019  0.00  0.00    +0.265 C 
ATOM     16  O   UNL     1      -7.199  -8.729   8.391  0.00  0.00    -0.271 OA
ATOM     17  N   UNL     1      -5.893  -8.939   8.837  0.00  0.00    -0.178 NA
ATOM     18  C   UNL     1      -5.257  -9.103   9.337  0.00  0.00    +0.078 A 
ATOM     19  C   UNL     1      -5.269  -9.280  10.142  0.00  0.00    +0.069 A 
ATOM     20  C   UNL     1      -4.563  -9.429  10.542  0.00  0.00    +0.006 A 
ATOM     21  C   UNL     1      -3.845  -9.401  10.136  0.00  0.00    +0.000 A 
ATOM     22  C   UNL     1      -3.833  -9.224   9.332  0.00  0.00    +0.001 A 
ATOM     23  C   UNL     1      -4.539  -9.075   8.931  0.00  0.00    +0.017 A 
ATOM     33  C   UNL     1      -5.919  -9.336  10.647  0.00  0.00    +0.251 C 
ATOM     34  O   UNL     1      -5.748  -9.524  11.432  0.00  0.00    -0.270 OA
ENDROOT
BRANCH  21  24
ATOM     24  C   UNL     1      -3.139  -9.550  10.537  0.00  0.00    +0.003 A 
ATOM     25  C   UNL     1      -2.512  -9.017  10.478  0.00  0.00    +0.040 A 
ATOM     26  C   UNL     1      -1.806  -9.166  10.879  0.00  0.00    +0.176 A 
ATOM     27  C   UNL     1      -1.727  -9.847  11.338  0.00  0.00    +0.176 A 
ATOM     28  O   UNL     1      -0.970  -9.846  11.667  0.00  0.00    -0.435 OA
ATOM     29  C   UNL     1      -0.582  -9.165  11.412  0.00  0.00    +0.429 C 
ATOM     30  O   UNL     1      -1.098  -8.744  10.925  0.00  0.00    -0.435 OA
ATOM     31  C   UNL     1      -2.355 -10.380  11.396  0.00  0.00    +0.040 A 
ATOM     32  C   UNL     1      -3.060 -10.231  10.996  0.00  0.00    +0.003 A 
ENDBRANCH  21  24
BRANCH   2   3
ATOM      3  C   UNL     1      -9.520  -8.791   9.575  0.00  0.00    +0.080 C 
ATOM      4  C   UNL     1      -9.632  -8.002   9.365  0.00  0.00    +0.028 C 
ATOM      5  C   UNL     1      -9.978  -7.811   8.640  0.00  0.00    +0.089 C 
ATOM      6  N   UNL     1     -10.213  -8.412   8.126  0.00  0.00    -0.218 NA
ATOM      7  C   UNL     1     -10.101  -9.203   8.336  0.00  0.00    +0.089 C 
ATOM      8  C   UNL     1      -9.755  -9.392   9.060  0.00  0.00    +0.028 C 
ENDBRANCH   2   3
TORSDOF 2
ENDMDL
MODEL 8
REMARK VINA RESULT:      -7.8     15.009     15.840
REMARK  Name = 
REMARK  2 active torsions:
REMARK  status: ('A' for Active; 'I' for Inactive)
REMARK    1  A    between atoms: C_2  and  C_3
REMARK    2  A    between atoms: C_21  and  C_24
REMARK                            x       y       z     vdW  Elec       q    Type
REMARK                         _______ _______ _______ _____ _____    ______ ____
ROOT
ATOM      1  O   UNL     1      -6.542 -10.030  18.176  0.00  0.00    -0.275 OA
ATOM      2  C   UNL     1      -7.048 -10.030  17.524  0.00  0.00    +0.225 C 
ATOM      9  N   UNL     1      -6.736 -10.031  16.760  0.00  0.00    -0.276 N 
ATOM     10  C   UNL     1      -5.918 -10.031  16.647  0.00  0.00    +0.115 C 
ATOM     11  C   UNL     1      -5.607 -10.031  15.884  0.00  0.00    +0.116 C 
ATOM     12  N   UNL     1      -6.112 -10.031  15.232  0.00  0.00    -0.266 N 
ATOM     13  C   UNL     1      -6.930 -10.031  15.344  0.00  0.00    +0.174 C 
ATOM     14  C   UNL     1      -7.241 -10.031  16.107  0.00  0.00    +0.123 C 
ATOM     15  C   UNL     1      -7.526 -10.031  14.775  0.00  0.00    +0.265 C 
ATOM     16  O   UNL     1      -8.298 -10.031  15.066  0.00  0.00    -0.271 OA
ATOM     17  N   UNL     1      -7.454 -10.031  13.953  0.00  0.00    -0.178 NA
ATOM     18  C   UNL     1      -6.766 -10.032  13.498  0.00  0.00    +0.078 A 
ATOM     19  C   UNL     1      -5.982 -10.032  13.752  0.00  0.00    +0.069 A 
ATOM     20  C   UNL     1      -5.369 -10.032  13.198  0.00  0.00    +0.006 A 
ATOM     21  C   UNL     1      -5.542 -10.032  12.392  0.00  0.00    +0.000 A 
ATOM     22  C   UNL     1      -6.326 -10.032  12.138  0.00  0.00    +0.001 A 
ATOM     23  C   UNL     1      -6.939 -10.032  12.691  0.00  0.00    +0.017 A 
ATOM     33  C   UNL     1      -5.690 -10.032  14.524  0.00  0.00    +0.251 C 
ATOM     34  O   UNL     1      -4.868 -10.032  14.596  0.00  0.00    -0.270 OA
ENDROOT
BRANCH  21  24
ATOM     24  C   UNL     1      -4.929 -10.033  11.839  0.00  0.00    +0.003 A 
ATOM     25  C   UNL     1      -4.753  -9.345  11.419  0.00  0.00    +0.040 A 
ATOM     26  C   UNL     1      -4.140  -9.345  10.865  0.00  0.00    +0.176 A 
ATOM     27  C   UNL     1      -3.704 -10.033  10.733  0.00  0.00    +0.176 A 
ATOM     28  O   UNL     1      -3.136  -9.868  10.157  0.00  0.00    -0.435 OA
ATOM     29  C   UNL     1      -3.221  -9.079   9.935  0.00  0.00    +0.429 C 
ATOM     30  O   UNL     1      -3.841  -8.755  10.372  0.00  0.00    -0.435 OA
ATOM     31  C   UNL     1      -3.881 -10.721  11.153  0.00  0.00    +0.040 A 
ATOM     32  C   UNL     1      -4.493 -10.721  11.706  0.00  0.00    +0.003 A 
ENDBRANCH  21  24
BRANCH   2   3
ATOM      3  C   UNL     1      -7.865 -10.030  17.636  0.00  0.00    +0.080 C 
ATOM      4  C   UNL     1      -8.269 -10.743  17.724  0.00  0.00    +0.028 C 
ATOM      5  C   UNL     1      -9.087 -10.744  17.836  0.00  0.00    +0.089 C 
ATOM      6  N   UNL     1      -9.500 -10.029  17.860  0.00  0.00    -0.218 NA
ATOM      7  C   UNL     1      -9.095  -9.316  17.771  0.00  0.00    +0.089 C 
ATOM      8  C   UNL     1      -8.278  -9.316  17.659  0.00  0.00    +0.028 C 
ENDBRANCH   2   3
TORSDOF 2
ENDMDL
