MODEL 1
REMARK VINA RESULT:      -9.9      0.000      0.000
REMARK  Name = 
REMARK  5 active torsions:
REMARK  status: ('A' for Active; 'I' for Inactive)
REMARK    1  A    between atoms: C_5  and  N_8
REMARK    2  A    between atoms: N_8  and  C_9
REMARK    3  A    between atoms: C_12  and  C_13
REMARK    4  A    between atoms: C_13  and  N_14
REMARK    5  A    between atoms: C_15  and  C_17
REMARK                            x       y       z     vdW  Elec       q    Type
REMARK                         _______ _______ _______ _____ _____    ______ ____
ROOT
ATOM      9  C   UNL     1      -4.165   0.561  24.547  0.00  0.00    +0.135 C 
ATOM     10  C   UNL     1      -3.504   0.672  24.065  0.00  0.00    +0.162 C 
ATOM     11  O   UNL     1      -3.222   1.436  24.192  0.00  0.00    -0.350 OA
ATOM     12  C   UNL     1      -3.709   1.798  24.751  0.00  0.00    +0.169 C 
ATOM     23  C   UNL     1      -4.291   1.258  24.970  0.00  0.00    +0.199 C 
ATOM     24  O   UNL     1      -4.895   1.390  25.517  0.00  0.00    -0.219 OA
ENDROOT
BRANCH   9   8
ATOM      8  N   UNL     1      -4.620  -0.125  24.595  0.00  0.00    -0.216 NA
BRANCH   8   5
ATOM      1  C   UNL     1      -3.151  -3.080  24.613  0.00  0.00    +0.090 C 
ATOM      2  N   UNL     1      -3.518  -2.342  24.609  0.00  0.00    -0.271 NA
ATOM      3  C   UNL     1      -3.917  -2.084  23.934  0.00  0.00    +0.074 C 
ATOM      4  C   UNL     1      -4.284  -1.345  23.930  0.00  0.00    +0.035 C 
ATOM      5  C   UNL     1      -4.252  -0.865  24.600  0.00  0.00    +0.076 C 
ATOM      6  C   UNL     1      -3.854  -1.123  25.274  0.00  0.00    +0.035 C 
ATOM      7  C   UNL     1      -3.487  -1.861  25.279  0.00  0.00    +0.074 C 
ENDBRANCH   8   5
ENDBRANCH   9   8
BRANCH  12  13
ATOM     13  C   UNL     1      -3.627   2.567  25.040  0.00  0.00    +0.148 C 
BRANCH  13  14
ATOM     14  N   UNL     1      -2.916   2.973  24.934  0.00  0.00    -0.199 NA
ATOM     15  C   UNL     1      -2.774   3.671  25.352  0.00  0.00    +0.265 C 
ATOM     16  O   UNL     1      -3.343   3.963  25.874  0.00  0.00    -0.268 OA
BRANCH  15  17
ATOM     17  C   UNL     1      -2.064   4.078  25.247  0.00  0.00    +0.058 A 
ATOM     18  C   UNL     1      -1.348   3.671  25.279  0.00  0.00    +0.025 A 
ATOM     19  C   UNL     1      -0.638   4.078  25.174  0.00  0.00    +0.099 A 
ATOM     20  N   UNL     1      -0.644   4.891  25.037  0.00  0.00    -0.242 NA
ATOM     21  C   UNL     1      -1.361   5.298  25.005  0.00  0.00    +0.099 A 
ATOM     22  C   UNL     1      -2.071   4.892  25.110  0.00  0.00    +0.025 A 
ENDBRANCH  15  17
ENDBRANCH  13  14
ENDBRANCH  12  13
TORSDOF 5
ENDMDL
MODEL 2
REMARK VINA RESULT:      -9.1      1.887      2.298
REMARK  Name = 
REMARK  5 active torsions:
REMARK  status: ('A' for Active; 'I' for Inactive)
REMARK    1  A    between atoms: C_5  and  N_8
REMARK    2  A    between atoms: N_8  and  C_9
REMARK    3  A    between atoms: C_12  and  C_13
REMARK    4  A    between atoms: C_13  and  N_14
REMARK    5  A    between atoms: C_15  and  C_17
REMARK                            x       y       z     vdW  Elec       q    Type
REMARK                         _______ _______ _______ _____ _____    ______ ____
ROOT
ATOM      9  C   UNL     1      -1.415  -0.563  25.097  0.00  0.00    +0.135 C 
ATOM     10  C   UNL     1      -1.438  -0.232  24.342  0.00  0.00    +0.162 C 
ATOM     11  O   UNL     1      -1.134   0.533  24.390  0.00  0.00    -0.350 OA
ATOM     12  C   UNL     1      -0.923   0.675  25.175  0.00  0.00    +0.169 C 
ATOM     23  C   UNL     1      -1.097  -0.002  25.612  0.00  0.00    +0.199 C 
ATOM     24  O   UNL     1      -0.973  -0.101  26.422  0.00  0.00    -0.219 OA
ENDROOT
BRANCH   9   8
ATOM      8  N   UNL     1      -1.665  -1.322  25.302  0.00  0.00    -0.216 NA
BRANCH   8   5
ATOM      1  C   UNL     1      -4.344  -2.616  23.874  0.00  0.00    +0.090 C 
ATOM      2  N   UNL     1      -3.675  -2.292  24.231  0.00  0.00    -0.271 NA
ATOM      3  C   UNL     1      -2.924  -2.546  24.004  0.00  0.00    +0.074 C 
ATOM      4  C   UNL     1      -2.253  -2.222  24.361  0.00  0.00    +0.035 C 
ATOM      5  C   UNL     1      -2.336  -1.645  24.945  0.00  0.00    +0.076 C 
ATOM      6  C   UNL     1      -3.087  -1.392  25.172  0.00  0.00    +0.035 C 
ATOM      7  C   UNL     1      -3.756  -1.715  24.815  0.00  0.00    +0.074 C 
ENDBRANCH   8   5
ENDBRANCH   9   8
BRANCH  12  13
ATOM     13  C   UNL     1      -0.596   1.373  25.470  0.00  0.00    +0.148 C 
BRANCH  13  14
ATOM     14  N   UNL     1      -0.961   2.097  25.315  0.00  0.00    -0.199 NA
ATOM     15  C   UNL     1      -0.632   2.796  25.607  0.00  0.00    +0.265 C 
ATOM     16  O   UNL     1       0.061   2.769  26.055  0.00  0.00    -0.268 OA
BRANCH  15  17
ATOM     17  C   UNL     1      -0.995   3.519  25.452  0.00  0.00    +0.058 A 
ATOM     18  C   UNL     1      -1.749   3.675  25.750  0.00  0.00    +0.025 A 
ATOM     19  C   UNL     1      -2.112   4.399  25.595  0.00  0.00    +0.099 A 
ATOM     20  N   UNL     1      -1.722   4.968  25.141  0.00  0.00    -0.242 NA
ATOM     21  C   UNL     1      -0.969   4.812  24.844  0.00  0.00    +0.099 A 
ATOM     22  C   UNL     1      -0.605   4.088  24.999  0.00  0.00    +0.025 A 
ENDBRANCH  15  17
ENDBRANCH  13  14
ENDBRANCH  12  13
TORSDOF 5
ENDMDL
MODEL 3
REMARK VINA RESULT:      -8.9      1.806      5.750
REMARK  Name = 
REMARK  5 active torsions:
REMARK  status: ('A' for Active; 'I' for Inactive)
REMARK    1  A    between atoms: C_5  and  N_8
REMARK    2  A    between atoms: N_8  and  C_9
REMARK    3  A    between atoms: C_12  and  C_13
REMARK    4  A    between atoms: C_13  and  N_14
REMARK    5  A    between atoms: C_15  and  C_17
REMARK                            x       y       z     vdW  Elec       q    Type
REMARK                         _______ _______ _______ _____ _____    ______ ____
ROOT
ATOM      9  C   UNL     1      -0.817   1.779  25.132  0.00  0.00    +0.135 C 
ATOM     10  C   UNL     1      -1.139   1.785  24.371  0.00  0.00    +0.162 C 
ATOM     11  O   UNL     1      -1.376   1.016  24.189  0.00  0.00    -0.350 OA
ATOM     12  C   UNL     1      -1.201   0.535  24.836  0.00  0.00    +0.169 C 
ATOM     23  C   UNL     1      -0.856   1.007  25.418  0.00  0.00    +0.199 C 
ATOM     24  O   UNL     1      -0.595   0.750  26.158  0.00  0.00    -0.219 OA
ENDROOT
BRANCH   9   8
ATOM      8  N   UNL     1      -0.512   2.431  25.534  0.00  0.00    -0.216 NA
BRANCH   8   5
ATOM      1  C   UNL     1      -1.876   5.408  25.129  0.00  0.00    +0.090 C 
ATOM      2  N   UNL     1      -1.535   4.665  25.230  0.00  0.00    -0.271 NA
ATOM      3  C   UNL     1      -1.913   4.098  25.695  0.00  0.00    +0.074 C 
ATOM      4  C   UNL     1      -1.572   3.353  25.796  0.00  0.00    +0.035 C 
ATOM      5  C   UNL     1      -0.853   3.176  25.432  0.00  0.00    +0.076 C 
ATOM      6  C   UNL     1      -0.475   3.743  24.968  0.00  0.00    +0.035 C 
ATOM      7  C   UNL     1      -0.816   4.487  24.866  0.00  0.00    +0.074 C 
ENDBRANCH   8   5
ENDBRANCH   9   8
BRANCH  12  13
ATOM     13  C   UNL     1      -1.345  -0.275  24.891  0.00  0.00    +0.148 C 
BRANCH  13  14
ATOM     14  N   UNL     1      -2.076  -0.580  24.657  0.00  0.00    -0.199 NA
ATOM     15  C   UNL     1      -2.208  -1.395  24.677  0.00  0.00    +0.265 C 
ATOM     16  O   UNL     1      -1.610  -1.904  24.931  0.00  0.00    -0.268 OA
BRANCH  15  17
ATOM     17  C   UNL     1      -2.938  -1.700  24.444  0.00  0.00    +0.058 A 
ATOM     18  C   UNL     1      -3.073  -2.513  24.471  0.00  0.00    +0.025 A 
ATOM     19  C   UNL     1      -3.802  -2.818  24.238  0.00  0.00    +0.099 A 
ATOM     20  N   UNL     1      -4.398  -2.310  23.976  0.00  0.00    -0.242 NA
ATOM     21  C   UNL     1      -4.263  -1.497  23.949  0.00  0.00    +0.099 A 
ATOM     22  C   UNL     1      -3.533  -1.192  24.182  0.00  0.00    +0.025 A 
ENDBRANCH  15  17
ENDBRANCH  13  14
ENDBRANCH  12  13
TORSDOF 5
ENDMDL
MODEL 4
REMARK VINA RESULT:      -8.7      0.804      5.454
REMARK  Name = 
REMARK  5 active torsions:
REMARK  status: ('A' for Active; 'I' for Inactive)
REMARK    1  A    between atoms: C_5  and  N_8
REMARK    2  A    between atoms: N_8  and  C_9
REMARK    3  A    between atoms: C_12  and  C_13
REMARK    4  A    between atoms: C_13  and  N_14
REMARK    5  A    between atoms: C_15  and  C_17
REMARK                            x       y       z     vdW  Elec       q    Type
REMARK                         _______ _______ _______ _____ _____    ______ ____
ROOT
ATOM      9  C   UNL     1      -3.456   2.488  24.999  0.00  0.00    +0.135 C 
ATOM     10  C   UNL     1      -2.807   2.140  24.625  0.00  0.00    +0.162 C 
ATOM     11  O   UNL     1      -3.021   1.376  24.402  0.00  0.00    -0.350 OA
ATOM     12  C   UNL     1      -3.802   1.251  24.638  0.00  0.00    +0.169 C 
ATOM     23  C   UNL     1      -4.070   1.937  25.007  0.00  0.00    +0.199 C 
ATOM     24  O   UNL     1      -4.822   2.054  25.328  0.00  0.00    -0.219 OA
ENDROOT
BRANCH   9   8
ATOM      8  N   UNL     1      -3.484   3.251  25.311  0.00  0.00    -0.216 NA
BRANCH   8   5
ATOM      1  C   UNL     1      -0.868   5.243  25.039  0.00  0.00    +0.090 C 
ATOM      2  N   UNL     1      -1.521   4.746  25.107  0.00  0.00    -0.271 NA
ATOM      3  C   UNL     1      -2.113   4.761  24.532  0.00  0.00    +0.074 C 
ATOM      4  C   UNL     1      -2.768   4.262  24.600  0.00  0.00    +0.035 C 
ATOM      5  C   UNL     1      -2.830   3.749  25.243  0.00  0.00    +0.076 C 
ATOM      6  C   UNL     1      -2.238   3.734  25.818  0.00  0.00    +0.035 C 
ATOM      7  C   UNL     1      -1.584   4.232  25.749  0.00  0.00    +0.074 C 
ENDBRANCH   8   5
ENDBRANCH   9   8
BRANCH  12  13
ATOM     13  C   UNL     1      -4.238   0.559  24.524  0.00  0.00    +0.148 C 
BRANCH  13  14
ATOM     14  N   UNL     1      -3.877  -0.177  24.626  0.00  0.00    -0.199 NA
ATOM     15  C   UNL     1      -4.298  -0.868  24.465  0.00  0.00    +0.265 C 
ATOM     16  O   UNL     1      -5.079  -0.824  24.201  0.00  0.00    -0.268 OA
BRANCH  15  17
ATOM     17  C   UNL     1      -3.938  -1.603  24.567  0.00  0.00    +0.058 A 
ATOM     18  C   UNL     1      -3.917  -2.142  23.943  0.00  0.00    +0.025 A 
ATOM     19  C   UNL     1      -3.557  -2.877  24.045  0.00  0.00    +0.099 A 
ATOM     20  N   UNL     1      -3.219  -3.074  24.771  0.00  0.00    -0.242 NA
ATOM     21  C   UNL     1      -3.240  -2.535  25.395  0.00  0.00    +0.099 A 
ATOM     22  C   UNL     1      -3.600  -1.800  25.293  0.00  0.00    +0.025 A 
ENDBRANCH  15  17
ENDBRANCH  13  14
ENDBRANCH  12  13
TORSDOF 5
ENDMDL
