MODEL 1
REMARK VINA RESULT:     -11.5      0.000      0.000
REMARK  Name = 
REMARK  7 active torsions:
REMARK  status: ('A' for Active; 'I' for Inactive)
REMARK    1  A    between atoms: N_2  and  C_3
REMARK    2  A    between atoms: C_3  and  C_4
REMARK    3  A    between atoms: C_6  and  C_8
REMARK    4  A    between atoms: C_15  and  C_16
REMARK    5  A    between atoms: C_16  and  N_17
REMARK    6  A    between atoms: C_19  and  C_22
REMARK    7  A    between atoms: C_25  and  C_28
REMARK                            x       y       z     vdW  Elec       q    Type
REMARK                         _______ _______ _______ _____ _____    ______ ____
ROOT
ATOM     16  C   UNL     1      -4.970   2.404  24.707  0.00  0.00    +0.145 C 
ENDROOT
BRANCH  16  15
ATOM      8  C   UNL     1      -3.160   3.859  25.173  0.00  0.00    +0.093 C 
ATOM      9  C   UNL     1      -3.185   3.527  24.470  0.00  0.00    +0.081 C 
ATOM     10  N   UNL     1      -3.733   3.422  25.078  0.00  0.00    -0.272 NA
ATOM     11  C   UNL     1      -3.412   4.006  25.888  0.00  0.00    +0.072 C 
ATOM     12  C   UNL     1      -3.492   4.224  26.498  0.00  0.00    +0.018 C 
ATOM     13  C   UNL     1      -3.701   3.752  25.765  0.00  0.00    +0.013 C 
ATOM     14  C   UNL     1      -4.433   3.269  25.813  0.00  0.00    +0.019 C 
ATOM     15  C   UNL     1      -4.495   2.923  25.135  0.00  0.00    +0.082 C 
BRANCH   8   6
ATOM      1  C   UNL     1      -1.700   3.603  24.447  0.00  0.00    +0.115 C 
ATOM      2  N   UNL     1      -1.797   4.237  24.966  0.00  0.00    -0.274 N 
ATOM      6  C   UNL     1      -2.526   4.366  25.329  0.00  0.00    +0.227 C 
ATOM      7  O   UNL     1      -2.623   5.000  25.848  0.00  0.00    -0.275 OA
BRANCH   2   3
ATOM      3  C   UNL     1      -1.164   4.743  25.122  0.00  0.00    +0.120 C 
BRANCH   3   4
ATOM      4  C   UNL     1      -0.493   4.724  24.643  0.00  0.00    -0.005 C 
ATOM      5  C   UNL     1       0.010   5.377  24.612  0.00  0.00    -0.003 C 
ENDBRANCH   3   4
ENDBRANCH   2   3
ENDBRANCH   8   6
ENDBRANCH  16  15
BRANCH  16  17
ATOM     17  N   UNL     1      -4.978   1.600  24.895  0.00  0.00    -0.229 N 
ATOM     18  C   UNL     1      -4.435   1.037  24.634  0.00  0.00    +0.118 A 
ATOM     19  C   UNL     1      -4.653   0.307  24.955  0.00  0.00    +0.123 A 
ATOM     20  N   UNL     1      -5.329   0.422  25.413  0.00  0.00    -0.129 NA
ATOM     21  N   UNL     1      -5.530   1.221  25.375  0.00  0.00    -0.064 NA
BRANCH  19  22
ATOM     22  C   UNL     1      -4.262  -0.409  24.838  0.00  0.00    +0.021 A 
ATOM     23  C   UNL     1      -4.302  -0.787  24.105  0.00  0.00    +0.001 A 
ATOM     24  C   UNL     1      -3.911  -1.504  23.987  0.00  0.00    -0.004 A 
ATOM     25  C   UNL     1      -3.479  -1.843  24.603  0.00  0.00    -0.023 A 
ATOM     26  C   UNL     1      -3.439  -1.466  25.335  0.00  0.00    -0.004 A 
ATOM     27  C   UNL     1      -3.830  -0.749  25.453  0.00  0.00    +0.001 A 
BRANCH  25  28
ATOM     28  C   UNL     1      -3.088  -2.559  24.486  0.00  0.00    +0.019 C 
ATOM     29  C   UNL     1      -2.697  -3.277  24.369  0.00  0.00    +0.004 C 
ATOM     30  C   UNL     1      -2.365  -2.190  24.636  0.00  0.00    +0.004 C 
ATOM     31  C   UNL     1      -3.811  -2.930  24.336  0.00  0.00    +0.004 C 
ENDBRANCH  25  28
ENDBRANCH  19  22
ENDBRANCH  16  17
TORSDOF 7
ENDMDL
MODEL 2
REMARK VINA RESULT:     -11.0      1.655      5.480
REMARK  Name = 
REMARK  7 active torsions:
REMARK  status: ('A' for Active; 'I' for Inactive)
REMARK    1  A    between atoms: N_2  and  C_3
REMARK    2  A    between atoms: C_3  and  C_4
REMARK    3  A    between atoms: C_6  and  C_8
REMARK    4  A    between atoms: C_15  and  C_16
REMARK    5  A    between atoms: C_16  and  N_17
REMARK    6  A    between atoms: C_19  and  C_22
REMARK    7  A    between atoms: C_25  and  C_28
REMARK                            x       y       z     vdW  Elec       q    Type
REMARK                         _______ _______ _______ _____ _____    ______ ____
ROOT
ATOM     16  C   UNL     1      -5.011   1.042  25.496  0.00  0.00    +0.145 C 
ENDROOT
BRANCH  16  15
ATOM      8  C   UNL     1      -3.811  -0.928  24.954  0.00  0.00    +0.093 C 
ATOM      9  C   UNL     1      -3.698  -0.618  25.659  0.00  0.00    +0.081 C 
ATOM     10  N   UNL     1      -4.200  -0.326  25.072  0.00  0.00    -0.272 NA
ATOM     11  C   UNL     1      -4.122  -0.970  24.249  0.00  0.00    +0.072 C 
ATOM     12  C   UNL     1      -4.293  -1.138  23.641  0.00  0.00    +0.018 C 
ATOM     13  C   UNL     1      -4.305  -0.635  24.384  0.00  0.00    +0.013 C 
ATOM     14  C   UNL     1      -4.834   0.065  24.366  0.00  0.00    +0.019 C 
ATOM     15  C   UNL     1      -4.752   0.401  25.047  0.00  0.00    +0.082 C 
BRANCH   8   6
ATOM      1  C   UNL     1      -2.215  -1.049  25.357  0.00  0.00    +0.115 C 
ATOM      2  N   UNL     1      -2.592  -1.674  24.973  0.00  0.00    -0.274 N 
ATOM      6  C   UNL     1      -3.389  -1.615  24.772  0.00  0.00    +0.227 C 
ATOM      7  O   UNL     1      -3.767  -2.240  24.388  0.00  0.00    -0.275 OA
BRANCH   2   3
ATOM      3  C   UNL     1      -2.172  -2.360  24.791  0.00  0.00    +0.120 C 
BRANCH   3   4
ATOM      4  C   UNL     1      -1.354  -2.384  24.899  0.00  0.00    -0.005 C 
ATOM      5  C   UNL     1      -0.884  -2.838  24.395  0.00  0.00    -0.003 C 
ENDBRANCH   3   4
ENDBRANCH   2   3
ENDBRANCH   8   6
ENDBRANCH  16  15
BRANCH  16  17
ATOM     17  N   UNL     1      -4.762   1.806  25.306  0.00  0.00    -0.229 N 
ATOM     18  C   UNL     1      -3.994   2.098  25.383  0.00  0.00    +0.118 A 
ATOM     19  C   UNL     1      -3.995   2.884  25.131  0.00  0.00    +0.123 A 
ATOM     20  N   UNL     1      -4.763   3.076  24.899  0.00  0.00    -0.129 NA
ATOM     21  N   UNL     1      -5.237   2.410  25.007  0.00  0.00    -0.064 NA
BRANCH  19  22
ATOM     22  C   UNL     1      -3.342   3.388  25.114  0.00  0.00    +0.021 A 
ATOM     23  C   UNL     1      -2.905   3.474  24.420  0.00  0.00    +0.001 A 
ATOM     24  C   UNL     1      -2.252   3.978  24.403  0.00  0.00    -0.004 A 
ATOM     25  C   UNL     1      -2.037   4.397  25.081  0.00  0.00    -0.023 A 
ATOM     26  C   UNL     1      -2.474   4.311  25.774  0.00  0.00    -0.004 A 
ATOM     27  C   UNL     1      -3.127   3.807  25.791  0.00  0.00    +0.001 A 
BRANCH  25  28
ATOM     28  C   UNL     1      -1.385   4.901  25.064  0.00  0.00    +0.019 C 
ATOM     29  C   UNL     1      -0.731   5.406  25.047  0.00  0.00    +0.004 C 
ATOM     30  C   UNL     1      -1.888   5.554  25.092  0.00  0.00    +0.004 C 
ATOM     31  C   UNL     1      -0.880   4.248  25.036  0.00  0.00    +0.004 C 
ENDBRANCH  25  28
ENDBRANCH  19  22
ENDBRANCH  16  17
TORSDOF 7
ENDMDL
MODEL 3
REMARK VINA RESULT:     -10.1      1.712      2.862
REMARK  Name = 
REMARK  7 active torsions:
REMARK  status: ('A' for Active; 'I' for Inactive)
REMARK    1  A    between atoms: N_2  and  C_3
REMARK    2  A    between atoms: C_3  and  C_4
REMARK    3  A    between atoms: C_6  and  C_8
REMARK    4  A    between atoms: C_15  and  C_16
REMARK    5  A    between atoms: C_16  and  N_17
REMARK    6  A    between atoms: C_19  and  C_22
REMARK    7  A    between atoms: C_25  and  C_28
REMARK                            x       y       z     vdW  Elec       q    Type
REMARK                         _______ _______ _______ _____ _____    ______ ____
ROOT
ATOM     16  C   UNL     1      -0.800   1.759  24.270  0.00  0.00    +0.145 C 
ENDROOT
BRANCH  16  15
ATOM      8  C   UNL     1      -2.487   3.261  24.986  0.00  0.00    +0.093 C 
ATOM      9  C   UNL     1      -2.621   2.847  24.341  0.00  0.00    +0.081 C 
ATOM     10  N   UNL     1      -1.941   2.815  24.808  0.00  0.00    -0.272 NA
ATOM     11  C   UNL     1      -2.076   3.492  25.597  0.00  0.00    +0.072 C 
ATOM     12  C   UNL     1      -1.858   3.781  26.141  0.00  0.00    +0.018 C 
ATOM     13  C   UNL     1      -1.817   3.225  25.439  0.00  0.00    +0.013 C 
ATOM     14  C   UNL     1      -1.082   2.751  25.364  0.00  0.00    +0.019 C 
ATOM     15  C   UNL     1      -1.174   2.326  24.737  0.00  0.00    +0.082 C 
BRANCH   8   6
ATOM      1  C   UNL     1      -4.074   2.885  24.733  0.00  0.00    +0.115 C 
ATOM      2  N   UNL     1      -3.872   3.594  25.103  0.00  0.00    -0.274 N 
ATOM      6  C   UNL     1      -3.079   3.783  25.230  0.00  0.00    +0.227 C 
ATOM      7  O   UNL     1      -2.877   4.492  25.600  0.00  0.00    -0.275 OA
BRANCH   2   3
ATOM      3  C   UNL     1      -4.463   4.115  25.347  0.00  0.00    +0.120 C 
BRANCH   3   4
ATOM      4  C   UNL     1      -5.254   3.883  25.323  0.00  0.00    -0.005 C 
ATOM      5  C   UNL     1      -5.838   4.371  25.640  0.00  0.00    -0.003 C 
ENDBRANCH   3   4
ENDBRANCH   2   3
ENDBRANCH   8   6
ENDBRANCH  16  15
BRANCH  16  17
ATOM     17  N   UNL     1      -0.879   0.958  24.450  0.00  0.00    -0.229 N 
ATOM     18  C   UNL     1      -1.555   0.500  24.333  0.00  0.00    +0.118 A 
ATOM     19  C   UNL     1      -1.390  -0.267  24.589  0.00  0.00    +0.123 A 
ATOM     20  N   UNL     1      -0.613  -0.282  24.865  0.00  0.00    -0.129 NA
ATOM     21  N   UNL     1      -0.297   0.475  24.779  0.00  0.00    -0.064 NA
BRANCH  19  22
ATOM     22  C   UNL     1      -1.912  -0.907  24.573  0.00  0.00    +0.021 A 
ATOM     23  C   UNL     1      -1.628  -1.666  24.419  0.00  0.00    +0.001 A 
ATOM     24  C   UNL     1      -2.150  -2.306  24.403  0.00  0.00    -0.004 A 
ATOM     25  C   UNL     1      -2.954  -2.185  24.541  0.00  0.00    -0.023 A 
ATOM     26  C   UNL     1      -3.237  -1.426  24.694  0.00  0.00    -0.004 A 
ATOM     27  C   UNL     1      -2.716  -0.787  24.711  0.00  0.00    +0.001 A 
BRANCH  25  28
ATOM     28  C   UNL     1      -3.475  -2.824  24.524  0.00  0.00    +0.019 C 
ATOM     29  C   UNL     1      -3.997  -3.464  24.508  0.00  0.00    +0.004 C 
ATOM     30  C   UNL     1      -3.742  -2.588  23.780  0.00  0.00    +0.004 C 
ATOM     31  C   UNL     1      -3.209  -3.060  25.269  0.00  0.00    +0.004 C 
ENDBRANCH  25  28
ENDBRANCH  19  22
ENDBRANCH  16  17
TORSDOF 7
ENDMDL
MODEL 4
REMARK VINA RESULT:      -9.7      2.508      6.461
REMARK  Name = 
REMARK  7 active torsions:
REMARK  status: ('A' for Active; 'I' for Inactive)
REMARK    1  A    between atoms: N_2  and  C_3
REMARK    2  A    between atoms: C_3  and  C_4
REMARK    3  A    between atoms: C_6  and  C_8
REMARK    4  A    between atoms: C_15  and  C_16
REMARK    5  A    between atoms: C_16  and  N_17
REMARK    6  A    between atoms: C_19  and  C_22
REMARK    7  A    between atoms: C_25  and  C_28
REMARK                            x       y       z     vdW  Elec       q    Type
REMARK                         _______ _______ _______ _____ _____    ______ ____
ROOT
ATOM     16  C   UNL     1      -0.766   0.122  25.949  0.00  0.00    +0.145 C 
ENDROOT
BRANCH  16  15
ATOM      8  C   UNL     1      -2.087  -1.583  24.968  0.00  0.00    +0.093 C 
ATOM      9  C   UNL     1      -2.439  -1.088  25.454  0.00  0.00    +0.081 C 
ATOM     10  N   UNL     1      -1.641  -1.080  25.242  0.00  0.00    -0.272 NA
ATOM     11  C   UNL     1      -1.489  -1.874  24.575  0.00  0.00    +0.072 C 
ATOM     12  C   UNL     1      -1.095  -2.226  24.191  0.00  0.00    +0.018 C 
ATOM     13  C   UNL     1      -1.303  -1.569  24.765  0.00  0.00    +0.013 C 
ATOM     14  C   UNL     1      -0.645  -1.040  25.002  0.00  0.00    +0.019 C 
ATOM     15  C   UNL     1      -0.951  -0.533  25.484  0.00  0.00    +0.082 C 
BRANCH   8   6
ATOM      1  C   UNL     1      -3.673  -1.288  24.620  0.00  0.00    +0.115 C 
ATOM      2  N   UNL     1      -3.345  -2.027  24.456  0.00  0.00    -0.274 N 
ATOM      6  C   UNL     1      -2.553  -2.175  24.629  0.00  0.00    +0.227 C 
ATOM      7  O   UNL     1      -2.226  -2.915  24.465  0.00  0.00    -0.275 OA
BRANCH   2   3
ATOM      3  C   UNL     1      -3.811  -2.619  24.118  0.00  0.00    +0.120 C 
BRANCH   3   4
ATOM      4  C   UNL     1      -4.566  -2.440  23.837  0.00  0.00    -0.005 C 
ATOM      5  C   UNL     1      -4.964  -2.976  23.353  0.00  0.00    -0.003 C 
ENDBRANCH   3   4
ENDBRANCH   2   3
ENDBRANCH   8   6
ENDBRANCH  16  15
BRANCH  16  17
ATOM     17  N   UNL     1      -0.605   0.848  25.594  0.00  0.00    -0.229 N 
ATOM     18  C   UNL     1      -1.011   1.554  25.727  0.00  0.00    +0.118 A 
ATOM     19  C   UNL     1      -0.665   2.139  25.258  0.00  0.00    +0.123 A 
ATOM     20  N   UNL     1      -0.046   1.793  24.836  0.00  0.00    -0.129 NA
ATOM     21  N   UNL     1      -0.008   0.997  25.043  0.00  0.00    -0.064 NA
BRANCH  19  22
ATOM     22  C   UNL     1      -0.898   2.929  25.218  0.00  0.00    +0.021 A 
ATOM     23  C   UNL     1      -1.604   3.170  25.572  0.00  0.00    +0.001 A 
ATOM     24  C   UNL     1      -1.837   3.960  25.532  0.00  0.00    -0.004 A 
ATOM     25  C   UNL     1      -1.363   4.510  25.140  0.00  0.00    -0.023 A 
ATOM     26  C   UNL     1      -0.658   4.270  24.787  0.00  0.00    -0.004 A 
ATOM     27  C   UNL     1      -0.425   3.479  24.826  0.00  0.00    +0.001 A 
BRANCH  25  28
ATOM     28  C   UNL     1      -1.596   5.300  25.100  0.00  0.00    +0.019 C 
ATOM     29  C   UNL     1      -1.829   6.092  25.061  0.00  0.00    +0.004 C 
ATOM     30  C   UNL     1      -2.310   5.109  25.467  0.00  0.00    +0.004 C 
ATOM     31  C   UNL     1      -0.882   5.493  24.733  0.00  0.00    +0.004 C 
ENDBRANCH  25  28
ENDBRANCH  19  22
ENDBRANCH  16  17
TORSDOF 7
ENDMDL
MODEL 5
REMARK VINA RESULT:      -9.6      2.428      5.575
REMARK  Name = 
REMARK  7 active torsions:
REMARK  status: ('A' for Active; 'I' for Inactive)
REMARK    1  A    between atoms: N_2  and  C_3
REMARK    2  A    between atoms: C_3  and  C_4
REMARK    3  A    between atoms: C_6  and  C_8
REMARK    4  A    between atoms: C_15  and  C_16
REMARK    5  A    between atoms: C_16  and  N_17
REMARK    6  A    between atoms: C_19  and  C_22
REMARK    7  A    between atoms: C_25  and  C_28
REMARK                            x       y       z     vdW  Elec       q    Type
REMARK                         _______ _______ _______ _____ _____    ______ ____
ROOT
ATOM     16  C   UNL     1      -0.215   2.393  25.368  0.00  0.00    +0.145 C 
ENDROOT
BRANCH  16  15
ATOM      8  C   UNL     1      -0.436   0.143  24.661  0.00  0.00    +0.093 C 
ATOM      9  C   UNL     1      -0.721   0.332  25.360  0.00  0.00    +0.081 C 
ATOM     10  N   UNL     1      -0.344   0.843  24.832  0.00  0.00    -0.272 NA
ATOM     11  C   UNL     1      -0.084   0.279  23.988  0.00  0.00    +0.072 C 
ATOM     12  C   UNL     1       0.186   0.236  23.394  0.00  0.00    +0.018 C 
ATOM     13  C   UNL     1      -0.068   0.650  24.148  0.00  0.00    +0.013 C 
ATOM     14  C   UNL     1       0.118   1.506  24.201  0.00  0.00    +0.019 C 
ATOM     15  C   UNL     1      -0.147   1.732  24.880  0.00  0.00    +0.082 C 
BRANCH   8   6
ATOM      1  C   UNL     1      -1.712  -0.758  25.196  0.00  0.00    +0.115 C 
ATOM      2  N   UNL     1      -1.154  -1.093  24.688  0.00  0.00    -0.274 N 
ATOM      6  C   UNL     1      -0.517  -0.644  24.421  0.00  0.00    +0.227 C 
ATOM      7  O   UNL     1       0.040  -0.979  23.913  0.00  0.00    -0.275 OA
BRANCH   2   3
ATOM      3  C   UNL     1      -1.235  -1.878  24.448  0.00  0.00    +0.120 C 
BRANCH   3   4
ATOM      4  C   UNL     1      -1.919  -2.299  24.635  0.00  0.00    -0.005 C 
ATOM      5  C   UNL     1      -2.085  -3.009  24.250  0.00  0.00    -0.003 C 
ENDBRANCH   3   4
ENDBRANCH   2   3
ENDBRANCH   8   6
ENDBRANCH  16  15
BRANCH  16  17
ATOM     17  N   UNL     1      -0.847   2.915  25.272  0.00  0.00    -0.229 N 
ATOM     18  C   UNL     1      -1.640   2.747  25.422  0.00  0.00    +0.118 A 
ATOM     19  C   UNL     1      -2.080   3.425  25.252  0.00  0.00    +0.123 A 
ATOM     20  N   UNL     1      -1.557   4.010  24.997  0.00  0.00    -0.129 NA
ATOM     21  N   UNL     1      -0.795   3.695  25.010  0.00  0.00    -0.064 NA
BRANCH  19  22
ATOM     22  C   UNL     1      -2.898   3.503  25.324  0.00  0.00    +0.021 A 
ATOM     23  C   UNL     1      -3.392   3.246  24.715  0.00  0.00    +0.001 A 
ATOM     24  C   UNL     1      -4.210   3.324  24.787  0.00  0.00    -0.004 A 
ATOM     25  C   UNL     1      -4.534   3.659  25.468  0.00  0.00    -0.023 A 
ATOM     26  C   UNL     1      -4.040   3.915  26.077  0.00  0.00    -0.004 A 
ATOM     27  C   UNL     1      -3.222   3.837  26.005  0.00  0.00    +0.001 A 
BRANCH  25  28
ATOM     28  C   UNL     1      -5.352   3.736  25.540  0.00  0.00    +0.019 C 
ATOM     29  C   UNL     1      -6.171   3.814  25.613  0.00  0.00    +0.004 C 
ATOM     30  C   UNL     1      -5.293   4.537  25.347  0.00  0.00    +0.004 C 
ATOM     31  C   UNL     1      -5.411   2.936  25.734  0.00  0.00    +0.004 C 
ENDBRANCH  25  28
ENDBRANCH  19  22
ENDBRANCH  16  17
TORSDOF 7
ENDMDL
