MODEL 1
REMARK VINA RESULT:     -10.0      0.000      0.000
REMARK  Name = 
REMARK  3 active torsions:
REMARK  status: ('A' for Active; 'I' for Inactive)
REMARK    1  A    between atoms: O_2  and  C_3
REMARK    2  A    between atoms: C_5  and  N_6
REMARK    3  A    between atoms: N_15  and  C_16
REMARK                            x       y       z     vdW  Elec       q    Type
REMARK                         _______ _______ _______ _____ _____    ______ ____
ROOT
ATOM      6  N   UNL     1      -3.932  -0.219  24.718  0.00  0.00    -0.162 NA
ATOM      7  C   UNL     1      -3.266   0.226  24.520  0.00  0.00    +0.328 C 
ATOM      8  O   UNL     1      -2.645  -0.123  24.103  0.00  0.00    -0.250 OA
ATOM      9  N   UNL     1      -3.221   1.021  24.739  0.00  0.00    -0.259 N 
ATOM     10  C   UNL     1      -3.842   1.370  25.155  0.00  0.00    +0.117 C 
ATOM     11  C   UNL     1      -3.797   2.163  25.374  0.00  0.00    +0.117 C 
ATOM     12  N   UNL     1      -3.131   2.609  25.176  0.00  0.00    -0.261 N 
ATOM     13  C   UNL     1      -2.510   2.260  24.760  0.00  0.00    +0.117 C 
ATOM     14  C   UNL     1      -1.929   2.832  24.642  0.00  0.00    +0.116 C 
ATOM     15  N   UNL     1      -2.189   3.535  24.986  0.00  0.00    -0.264 N 
ATOM     22  C   UNL     1      -2.932   3.397  25.316  0.00  0.00    +0.307 C 
ATOM     23  O   UNL     1      -3.396   3.950  25.716  0.00  0.00    -0.252 OA
ATOM     24  C   UNL     1      -2.555   1.465  24.541  0.00  0.00    +0.117 C 
ENDROOT
BRANCH   6   5
ATOM      3  C   UNL     1      -3.661  -2.385  24.747  0.00  0.00    +0.140 A 
ATOM      4  C   UNL     1      -3.616  -1.590  24.966  0.00  0.00    +0.054 A 
ATOM      5  C   UNL     1      -3.977  -1.014  24.499  0.00  0.00    +0.078 A 
ATOM     25  C   UNL     1      -4.382  -1.231  23.814  0.00  0.00    +0.017 A 
ATOM     26  C   UNL     1      -4.427  -2.024  23.596  0.00  0.00    +0.004 A 
ATOM     27  C   UNL     1      -4.066  -2.602  24.062  0.00  0.00    +0.037 A 
BRANCH   3   2
ATOM      1  C   UNL     1      -2.591  -3.305  24.970  0.00  0.00    +0.252 C 
ATOM      2  O   UNL     1      -3.301  -2.962  25.214  0.00  0.00    -0.471 OA
ENDBRANCH   3   2
ENDBRANCH   6   5
BRANCH  15  16
ATOM     16  C   UNL     1      -1.779   4.251  24.998  0.00  0.00    +0.082 C 
ATOM     17  C   UNL     1      -2.193   4.964  25.046  0.00  0.00    +0.052 C 
ATOM     18  C   UNL     1      -1.783   5.679  25.058  0.00  0.00    +0.144 C 
ATOM     19  O   UNL     1      -0.958   5.682  25.022  0.00  0.00    -0.354 OA
ATOM     20  C   UNL     1      -0.544   4.971  24.975  0.00  0.00    +0.144 C 
ATOM     21  C   UNL     1      -0.955   4.255  24.962  0.00  0.00    +0.052 C 
ENDBRANCH  15  16
TORSDOF 3
ENDMDL
MODEL 2
REMARK VINA RESULT:      -9.7      1.036      5.970
REMARK  Name = 
REMARK  3 active torsions:
REMARK  status: ('A' for Active; 'I' for Inactive)
REMARK    1  A    between atoms: O_2  and  C_3
REMARK    2  A    between atoms: C_5  and  N_6
REMARK    3  A    between atoms: N_15  and  C_16
REMARK                            x       y       z     vdW  Elec       q    Type
REMARK                         _______ _______ _______ _____ _____    ______ ____
ROOT
ATOM      6  N   UNL     1      -1.639   2.779  25.366  0.00  0.00    -0.162 NA
ATOM      7  C   UNL     1      -2.270   2.342  25.064  0.00  0.00    +0.328 C 
ATOM      8  O   UNL     1      -2.933   2.729  24.761  0.00  0.00    -0.250 OA
ATOM      9  N   UNL     1      -2.239   1.517  25.067  0.00  0.00    -0.259 N 
ATOM     10  C   UNL     1      -1.576   1.130  25.370  0.00  0.00    +0.117 C 
ATOM     11  C   UNL     1      -1.545   0.306  25.372  0.00  0.00    +0.117 C 
ATOM     12  N   UNL     1      -2.176  -0.132  25.071  0.00  0.00    -0.261 N 
ATOM     13  C   UNL     1      -2.839   0.255  24.768  0.00  0.00    +0.117 C 
ATOM     14  C   UNL     1      -3.373  -0.318  24.510  0.00  0.00    +0.116 C 
ATOM     15  N   UNL     1      -3.041  -1.059  24.653  0.00  0.00    -0.264 N 
ATOM     22  C   UNL     1      -2.301  -0.944  25.000  0.00  0.00    +0.307 C 
ATOM     23  O   UNL     1      -1.778  -1.537  25.235  0.00  0.00    -0.252 OA
ATOM     24  C   UNL     1      -2.870   1.080  24.765  0.00  0.00    +0.117 C 
ENDROOT
BRANCH   6   5
ATOM      3  C   UNL     1      -1.107   4.863  24.989  0.00  0.00    +0.140 A 
ATOM      4  C   UNL     1      -1.076   4.037  24.991  0.00  0.00    +0.054 A 
ATOM      5  C   UNL     1      -1.670   3.604  25.364  0.00  0.00    +0.078 A 
ATOM     25  C   UNL     1      -2.296   3.994  25.734  0.00  0.00    +0.017 A 
ATOM     26  C   UNL     1      -2.327   4.817  25.732  0.00  0.00    +0.004 A 
ATOM     27  C   UNL     1      -1.733   5.253  25.359  0.00  0.00    +0.037 A 
BRANCH   3   2
ATOM      1  C   UNL     1      -0.151   5.000  23.936  0.00  0.00    +0.252 C 
ATOM      2  O   UNL     1      -0.513   5.296  24.616  0.00  0.00    -0.471 OA
ENDBRANCH   3   2
ENDBRANCH   6   5
BRANCH  15  16
ATOM     16  C   UNL     1      -3.387  -1.788  24.481  0.00  0.00    +0.082 C 
ATOM     17  C   UNL     1      -3.926  -1.852  23.859  0.00  0.00    +0.052 C 
ATOM     18  C   UNL     1      -4.273  -2.580  23.686  0.00  0.00    +0.144 C 
ATOM     19  O   UNL     1      -4.080  -3.245  24.135  0.00  0.00    -0.354 OA
ATOM     20  C   UNL     1      -3.541  -3.182  24.756  0.00  0.00    +0.144 C 
ATOM     21  C   UNL     1      -3.195  -2.453  24.929  0.00  0.00    +0.052 C 
ENDBRANCH  15  16
TORSDOF 3
ENDMDL
MODEL 3
REMARK VINA RESULT:      -9.7      2.744      4.510
REMARK  Name = 
REMARK  3 active torsions:
REMARK  status: ('A' for Active; 'I' for Inactive)
REMARK    1  A    between atoms: O_2  and  C_3
REMARK    2  A    between atoms: C_5  and  N_6
REMARK    3  A    between atoms: N_15  and  C_16
REMARK                            x       y       z     vdW  Elec       q    Type
REMARK                         _______ _______ _______ _____ _____    ______ ____
ROOT
ATOM      6  N   UNL     1      -3.792   1.115  25.061  0.00  0.00    -0.162 NA
ATOM      7  C   UNL     1      -3.223   1.366  24.519  0.00  0.00    +0.328 C 
ATOM      8  O   UNL     1      -3.374   2.013  24.030  0.00  0.00    -0.250 OA
ATOM      9  N   UNL     1      -2.501   0.968  24.467  0.00  0.00    -0.259 N 
ATOM     10  C   UNL     1      -2.350   0.322  24.956  0.00  0.00    +0.117 C 
ATOM     11  C   UNL     1      -1.629  -0.075  24.904  0.00  0.00    +0.117 C 
ATOM     12  N   UNL     1      -1.058   0.175  24.362  0.00  0.00    -0.261 N 
ATOM     13  C   UNL     1      -1.210   0.821  23.873  0.00  0.00    +0.117 C 
ATOM     14  C   UNL     1      -0.548   0.941  23.396  0.00  0.00    +0.116 C 
ATOM     15  N   UNL     1       0.013   0.368  23.590  0.00  0.00    -0.264 N 
ATOM     22  C   UNL     1      -0.303  -0.105  24.187  0.00  0.00    +0.307 C 
ATOM     23  O   UNL     1       0.071  -0.747  24.546  0.00  0.00    -0.252 OA
ATOM     24  C   UNL     1      -1.931   1.219  23.925  0.00  0.00    +0.117 C 
ENDROOT
BRANCH   6   5
ATOM      3  C   UNL     1      -5.289   2.613  25.593  0.00  0.00    +0.140 A 
ATOM      4  C   UNL     1      -4.567   2.216  25.541  0.00  0.00    +0.054 A 
ATOM      5  C   UNL     1      -4.514   1.513  25.113  0.00  0.00    +0.078 A 
ATOM     25  C   UNL     1      -5.182   1.207  24.738  0.00  0.00    +0.017 A 
ATOM     26  C   UNL     1      -5.902   1.604  24.790  0.00  0.00    +0.004 A 
ATOM     27  C   UNL     1      -5.957   2.307  25.218  0.00  0.00    +0.037 A 
BRANCH   3   2
ATOM      1  C   UNL     1      -5.556   4.017  25.639  0.00  0.00    +0.252 C 
ATOM      2  O   UNL     1      -5.342   3.317  26.021  0.00  0.00    -0.471 OA
ENDBRANCH   3   2
ENDBRANCH   6   5
BRANCH  15  16
ATOM     16  C   UNL     1       0.758   0.283  23.247  0.00  0.00    +0.082 C 
ATOM     17  C   UNL     1       0.870  -0.254  22.629  0.00  0.00    +0.052 C 
ATOM     18  C   UNL     1       1.616  -0.338  22.286  0.00  0.00    +0.144 C 
ATOM     19  O   UNL     1       2.249   0.113  22.561  0.00  0.00    -0.354 OA
ATOM     20  C   UNL     1       2.138   0.649  23.177  0.00  0.00    +0.144 C 
ATOM     21  C   UNL     1       1.393   0.734  23.520  0.00  0.00    +0.052 C 
ENDBRANCH  15  16
TORSDOF 3
ENDMDL
MODEL 4
REMARK VINA RESULT:      -8.5      2.993      4.362
REMARK  Name = 
REMARK  3 active torsions:
REMARK  status: ('A' for Active; 'I' for Inactive)
REMARK    1  A    between atoms: O_2  and  C_3
REMARK    2  A    between atoms: C_5  and  N_6
REMARK    3  A    between atoms: N_15  and  C_16
REMARK                            x       y       z     vdW  Elec       q    Type
REMARK                         _______ _______ _______ _____ _____    ______ ____
ROOT
ATOM      6  N   UNL     1      -0.240   0.955  23.149  0.00  0.00    -0.162 NA
ATOM      7  C   UNL     1      -0.695   0.971  23.837  0.00  0.00    +0.328 C 
ATOM      8  O   UNL     1      -0.418   0.609  24.524  0.00  0.00    -0.250 OA
ATOM      9  N   UNL     1      -1.429   1.350  23.836  0.00  0.00    -0.259 N 
ATOM     10  C   UNL     1      -1.706   1.712  23.149  0.00  0.00    +0.117 C 
ATOM     11  C   UNL     1      -2.439   2.090  23.149  0.00  0.00    +0.117 C 
ATOM     12  N   UNL     1      -2.895   2.107  23.836  0.00  0.00    -0.261 N 
ATOM     13  C   UNL     1      -2.618   1.745  24.524  0.00  0.00    +0.117 C 
ATOM     14  C   UNL     1      -3.185   1.849  25.113  0.00  0.00    +0.116 C 
ATOM     15  N   UNL     1      -3.813   2.276  24.791  0.00  0.00    -0.264 N 
ATOM     22  C   UNL     1      -3.633   2.435  24.001  0.00  0.00    +0.307 C 
ATOM     23  O   UNL     1      -4.109   2.850  23.470  0.00  0.00    -0.252 OA
ATOM     24  C   UNL     1      -1.885   1.366  24.524  0.00  0.00    +0.117 C 
ENDROOT
BRANCH   6   5
ATOM      3  C   UNL     1       1.920   0.641  23.210  0.00  0.00    +0.140 A 
ATOM      4  C   UNL     1       1.186   1.020  23.210  0.00  0.00    +0.054 A 
ATOM      5  C   UNL     1       0.494   0.576  23.150  0.00  0.00    +0.078 A 
ATOM     25  C   UNL     1       0.534  -0.246  23.090  0.00  0.00    +0.017 A 
ATOM     26  C   UNL     1       1.266  -0.624  23.090  0.00  0.00    +0.004 A 
ATOM     27  C   UNL     1       1.960  -0.181  23.150  0.00  0.00    +0.037 A 
BRANCH   3   2
ATOM      1  C   UNL     1       3.281   0.868  22.837  0.00  0.00    +0.252 C 
ATOM      2  O   UNL     1       2.612   1.085  23.271  0.00  0.00    -0.471 OA
ENDBRANCH   3   2
ENDBRANCH   6   5
BRANCH  15  16
ATOM     16  C   UNL     1      -4.499   2.504  25.187  0.00  0.00    +0.082 C 
ATOM     17  C   UNL     1      -5.118   1.966  25.283  0.00  0.00    +0.052 C 
ATOM     18  C   UNL     1      -5.805   2.194  25.680  0.00  0.00    +0.144 C 
ATOM     19  O   UNL     1      -5.872   2.960  25.981  0.00  0.00    -0.354 OA
ATOM     20  C   UNL     1      -5.254   3.497  25.885  0.00  0.00    +0.144 C 
ATOM     21  C   UNL     1      -4.567   3.269  25.488  0.00  0.00    +0.052 C 
ENDBRANCH  15  16
TORSDOF 3
ENDMDL
MODEL 5
REMARK VINA RESULT:      -7.3     17.463     19.477
REMARK  Name = 
REMARK  3 active torsions:
REMARK  status: ('A' for Active; 'I' for Inactive)
REMARK    1  A    between atoms: O_2  and  C_3
REMARK    2  A    between atoms: C_5  and  N_6
REMARK    3  A    between atoms: N_15  and  C_16
REMARK                            x       y       z     vdW  Elec       q    Type
REMARK                         _______ _______ _______ _____ _____    ______ ____
ROOT
ATOM      6  N   UNL     1      15.030   8.008  20.431  0.00  0.00    -0.162 NA
ATOM      7  C   UNL     1      14.892   8.182  19.637  0.00  0.00    +0.328 C 
ATOM      8  O   UNL     1      15.526   8.332  19.131  0.00  0.00    -0.250 OA
ATOM      9  N   UNL     1      14.118   8.207  19.349  0.00  0.00    -0.259 N 
ATOM     10  C   UNL     1      13.484   8.057  19.855  0.00  0.00    +0.117 C 
ATOM     11  C   UNL     1      12.712   8.082  19.567  0.00  0.00    +0.117 C 
ATOM     12  N   UNL     1      12.573   8.256  18.773  0.00  0.00    -0.261 N 
ATOM     13  C   UNL     1      13.207   8.406  18.267  0.00  0.00    +0.117 C 
ATOM     14  C   UNL     1      12.902   8.562  17.516  0.00  0.00    +0.116 C 
ATOM     15  N   UNL     1      12.081   8.509  17.558  0.00  0.00    -0.264 N 
ATOM     22  C   UNL     1      11.877   8.320  18.335  0.00  0.00    +0.307 C 
ATOM     23  O   UNL     1      11.112   8.212  18.624  0.00  0.00    -0.252 OA
ATOM     24  C   UNL     1      13.980   8.382  18.555  0.00  0.00    +0.117 C 
ENDROOT
BRANCH   6   5
ATOM      3  C   UNL     1      16.991   7.245  21.014  0.00  0.00    +0.140 A 
ATOM      4  C   UNL     1      16.218   7.270  20.726  0.00  0.00    +0.054 A 
ATOM      5  C   UNL     1      15.803   7.983  20.719  0.00  0.00    +0.078 A 
ATOM     25  C   UNL     1      16.161   8.671  21.000  0.00  0.00    +0.017 A 
ATOM     26  C   UNL     1      16.933   8.646  21.288  0.00  0.00    +0.004 A 
ATOM     27  C   UNL     1      17.349   7.933  21.295  0.00  0.00    +0.037 A 
BRANCH   3   2
ATOM      1  C   UNL     1      17.370   6.041  21.683  0.00  0.00    +0.252 C 
ATOM      2  O   UNL     1      17.405   6.532  21.020  0.00  0.00    -0.471 OA
ENDBRANCH   3   2
ENDBRANCH   6   5
BRANCH  15  16
ATOM     16  C   UNL     1      11.554   8.624  16.934  0.00  0.00    +0.082 C 
ATOM     17  C   UNL     1      11.814   8.979  16.235  0.00  0.00    +0.052 C 
ATOM     18  C   UNL     1      11.288   9.094  15.610  0.00  0.00    +0.144 C 
ATOM     19  O   UNL     1      10.502   8.854  15.684  0.00  0.00    -0.354 OA
ATOM     20  C   UNL     1      10.242   8.499  16.381  0.00  0.00    +0.144 C 
ATOM     21  C   UNL     1      10.768   8.384  17.006  0.00  0.00    +0.052 C 
ENDBRANCH  15  16
TORSDOF 3
ENDMDL
MODEL 6
REMARK VINA RESULT:      -6.5     15.295     18.166
REMARK  Name = 
REMARK  3 active torsions:
REMARK  status: ('A' for Active; 'I' for Inactive)
REMARK    1  A    between atoms: O_2  and  C_3
REMARK    2  A    between atoms: C_5  and  N_6
REMARK    3  A    between atoms: N_15  and  C_16
REMARK                            x       y       z     vdW  Elec       q    Type
REMARK                         _______ _______ _______ _____ _____    ______ ____
ROOT
ATOM      6  N   UNL     1      11.877   7.325  20.671  0.00  0.00    -0.162 NA
ATOM      7  C   UNL     1      11.762   7.741  19.967  0.00  0.00    +0.328 C 
ATOM      8  O   UNL     1      11.061   8.159  19.845  0.00  0.00    -0.250 OA
ATOM      9  N   UNL     1      12.349   7.738  19.387  0.00  0.00    -0.259 N 
ATOM     10  C   UNL     1      13.049   7.319  19.509  0.00  0.00    +0.117 C 
ATOM     11  C   UNL     1      13.634   7.317  18.929  0.00  0.00    +0.117 C 
ATOM     12  N   UNL     1      13.521   7.732  18.225  0.00  0.00    -0.261 N 
ATOM     13  C   UNL     1      12.820   8.151  18.102  0.00  0.00    +0.117 C 
ATOM     14  C   UNL     1      12.863   8.506  17.360  0.00  0.00    +0.116 C 
ATOM     15  N   UNL     1      13.589   8.308  17.024  0.00  0.00    -0.264 N 
ATOM     22  C   UNL     1      13.995   7.830  17.559  0.00  0.00    +0.307 C 
ATOM     23  O   UNL     1      14.746   7.506  17.446  0.00  0.00    -0.252 OA
ATOM     24  C   UNL     1      12.234   8.153  18.683  0.00  0.00    +0.117 C 
ENDROOT
BRANCH   6   5
ATOM      3  C   UNL     1      10.508   8.034  22.217  0.00  0.00    +0.140 A 
ATOM      4  C   UNL     1      11.095   8.031  21.636  0.00  0.00    +0.054 A 
ATOM      5  C   UNL     1      11.290   7.328  21.252  0.00  0.00    +0.078 A 
ATOM     25  C   UNL     1      10.899   6.628  21.447  0.00  0.00    +0.017 A 
ATOM     26  C   UNL     1      10.314   6.631  22.027  0.00  0.00    +0.004 A 
ATOM     27  C   UNL     1      10.117   7.334  22.413  0.00  0.00    +0.037 A 
BRANCH   3   2
ATOM      1  C   UNL     1      10.829   9.059  23.159  0.00  0.00    +0.252 C 
ATOM      2  O   UNL     1      10.313   8.737  22.601  0.00  0.00    -0.471 OA
ENDBRANCH   3   2
ENDBRANCH   6   5
BRANCH  15  16
ATOM     16  C   UNL     1      13.862   8.547  16.282  0.00  0.00    +0.082 C 
ATOM     17  C   UNL     1      14.624   8.855  16.202  0.00  0.00    +0.052 C 
ATOM     18  C   UNL     1      14.896   9.093  15.460  0.00  0.00    +0.144 C 
ATOM     19  O   UNL     1      14.407   9.024  14.800  0.00  0.00    -0.354 OA
ATOM     20  C   UNL     1      13.646   8.716  14.880  0.00  0.00    +0.144 C 
ATOM     21  C   UNL     1      13.374   8.478  15.621  0.00  0.00    +0.052 C 
ENDBRANCH  15  16
TORSDOF 3
ENDMDL
