MODEL 1
REMARK VINA RESULT:     -12.1      0.000      0.000
REMARK  Name = 
REMARK  6 active torsions:
REMARK  status: ('A' for Active; 'I' for Inactive)
REMARK    1  A    between atoms: O_2  and  C_3
REMARK    2  A    between atoms: C_9  and  C_10
REMARK    3  A    between atoms: C_10  and  C_11
REMARK    4  A    between atoms: C_16  and  C_17
REMARK    5  A    between atoms: C_17  and  C_18
REMARK    6  A    between atoms: C_21  and  C_23
REMARK                            x       y       z     vdW  Elec       q    Type
REMARK                         _______ _______ _______ _____ _____    ______ ____
ROOT
ATOM     11  C   UNL     1      -3.779   1.393  24.882  0.00  0.00    +0.026 C 
ATOM     12  C   UNL     1      -3.256   0.763  24.791  0.00  0.00    +0.094 C 
ATOM     13  N   UNL     1      -3.541  -0.012  24.766  0.00  0.00    -0.276 N 
ATOM     14  C   UNL     1      -4.351  -0.154  24.833  0.00  0.00    +0.094 C 
ATOM     15  C   UNL     1      -4.874   0.476  24.924  0.00  0.00    +0.022 C 
ATOM     16  C   UNL     1      -4.590   1.249  24.948  0.00  0.00    +0.015 C 
ATOM     21  C   UNL     1      -3.017  -0.642  24.675  0.00  0.00    +0.249 C 
ATOM     22  O   UNL     1      -2.207  -0.498  24.609  0.00  0.00    -0.270 OA
ENDROOT
BRANCH  21  23
ATOM     23  C   UNL     1      -3.302  -1.415  24.651  0.00  0.00    +0.054 A 
ATOM     24  C   UNL     1      -3.238  -1.899  25.316  0.00  0.00    +0.005 A 
ATOM     25  C   UNL     1      -3.524  -2.674  25.292  0.00  0.00    +0.000 A 
ATOM     26  C   UNL     1      -3.873  -2.962  24.603  0.00  0.00    +0.000 A 
ATOM     27  C   UNL     1      -3.938  -2.478  23.938  0.00  0.00    +0.000 A 
ATOM     28  C   UNL     1      -3.652  -1.705  23.962  0.00  0.00    +0.005 A 
ENDBRANCH  21  23
BRANCH  11  10
ATOM     10  C   UNL     1      -3.494   2.166  24.906  0.00  0.00    +0.047 C 
BRANCH  10   9
ATOM      3  C   UNL     1      -1.241   4.107  25.010  0.00  0.00    +0.138 A 
ATOM      4  C   UNL     1      -1.238   3.792  24.247  0.00  0.00    +0.033 A 
ATOM      5  C   UNL     1      -1.800   3.228  24.030  0.00  0.00    -0.016 A 
ATOM      6  C   UNL     1      -2.367   2.979  24.577  0.00  0.00    +0.009 A 
ATOM      7  C   UNL     1      -2.370   3.293  25.340  0.00  0.00    +0.004 A 
ATOM      8  C   UNL     1      -1.808   3.857  25.557  0.00  0.00    +0.037 A 
ATOM      9  C   UNL     1      -2.929   2.416  24.360  0.00  0.00    +0.053 C 
ATOM     29  N   UNL     1      -2.925   2.102  23.598  0.00  0.00    -0.274 NA
ATOM     30  C   UNL     1      -2.358   2.351  23.051  0.00  0.00    +0.130 C 
ATOM     31  C   UNL     1      -1.797   2.914  23.268  0.00  0.00    +0.053 C 
BRANCH   3   2
ATOM      1  C   UNL     1      -0.763   5.452  24.981  0.00  0.00    +0.252 C 
ATOM      2  O   UNL     1      -0.679   4.670  25.227  0.00  0.00    -0.471 OA
ENDBRANCH   3   2
ENDBRANCH  10   9
ENDBRANCH  11  10
BRANCH  16  17
ATOM     17  C   UNL     1      -5.114   1.880  25.039  0.00  0.00    +0.114 C 
BRANCH  17  18
ATOM     18  C   UNL     1      -5.887   1.740  25.289  0.00  0.00    +0.365 C 
ATOM     19  O   UNL     1      -6.063   1.712  26.095  0.00  0.00    -0.246 OA
ATOM     20  O   UNL     1      -6.487   1.627  24.732  0.00  0.00    -0.246 OA
ENDBRANCH  17  18
ENDBRANCH  16  17
TORSDOF 6
ENDMDL
MODEL 2
REMARK VINA RESULT:     -11.8      1.040      4.898
REMARK  Name = 
REMARK  6 active torsions:
REMARK  status: ('A' for Active; 'I' for Inactive)
REMARK    1  A    between atoms: O_2  and  C_3
REMARK    2  A    between atoms: C_9  and  C_10
REMARK    3  A    between atoms: C_10  and  C_11
REMARK    4  A    between atoms: C_16  and  C_17
REMARK    5  A    between atoms: C_17  and  C_18
REMARK    6  A    between atoms: C_21  and  C_23
REMARK                            x       y       z     vdW  Elec       q    Type
REMARK                         _______ _______ _______ _____ _____    ______ ____
ROOT
ATOM     11  C   UNL     1      -3.855   1.071  24.831  0.00  0.00    +0.026 C 
ATOM     12  C   UNL     1      -3.047   1.206  24.743  0.00  0.00    +0.094 C 
ATOM     13  N   UNL     1      -2.740   1.964  24.854  0.00  0.00    -0.276 N 
ATOM     14  C   UNL     1      -3.243   2.587  25.052  0.00  0.00    +0.094 C 
ATOM     15  C   UNL     1      -4.051   2.452  25.140  0.00  0.00    +0.022 C 
ATOM     16  C   UNL     1      -4.358   1.695  25.030  0.00  0.00    +0.015 C 
ATOM     21  C   UNL     1      -1.931   2.099  24.766  0.00  0.00    +0.249 C 
ATOM     22  O   UNL     1      -1.428   1.476  24.567  0.00  0.00    -0.270 OA
ENDROOT
BRANCH  21  23
ATOM     23  C   UNL     1      -1.625   2.857  24.876  0.00  0.00    +0.054 A 
ATOM     24  C   UNL     1      -1.508   3.353  24.227  0.00  0.00    +0.005 A 
ATOM     25  C   UNL     1      -1.201   4.111  24.337  0.00  0.00    +0.000 A 
ATOM     26  C   UNL     1      -1.013   4.373  25.096  0.00  0.00    +0.000 A 
ATOM     27  C   UNL     1      -1.130   3.877  25.745  0.00  0.00    +0.000 A 
ATOM     28  C   UNL     1      -1.436   3.120  25.635  0.00  0.00    +0.005 A 
ENDBRANCH  21  23
BRANCH  11  10
ATOM     10  C   UNL     1      -4.161   0.313  24.721  0.00  0.00    +0.047 C 
BRANCH  10   9
ATOM      3  C   UNL     1      -3.861  -2.590  24.146  0.00  0.00    +0.138 A 
ATOM      4  C   UNL     1      -3.545  -2.472  24.899  0.00  0.00    +0.033 A 
ATOM      5  C   UNL     1      -3.541  -1.716  25.231  0.00  0.00    -0.016 A 
ATOM      6  C   UNL     1      -3.853  -1.078  24.810  0.00  0.00    +0.009 A 
ATOM      7  C   UNL     1      -4.169  -1.197  24.057  0.00  0.00    +0.004 A 
ATOM      8  C   UNL     1      -4.173  -1.952  23.724  0.00  0.00    +0.037 A 
ATOM      9  C   UNL     1      -3.850  -0.324  25.142  0.00  0.00    +0.053 C 
ATOM     29  N   UNL     1      -3.534  -0.206  25.894  0.00  0.00    -0.274 NA
ATOM     30  C   UNL     1      -3.222  -0.844  26.316  0.00  0.00    +0.130 C 
ATOM     31  C   UNL     1      -3.226  -1.598  25.984  0.00  0.00    +0.053 C 
BRANCH   3   2
ATOM      1  C   UNL     1      -3.155  -3.706  23.602  0.00  0.00    +0.252 C 
ATOM      2  O   UNL     1      -3.865  -3.345  23.814  0.00  0.00    -0.471 OA
ENDBRANCH   3   2
ENDBRANCH  10   9
ENDBRANCH  11  10
BRANCH  16  17
ATOM     17  C   UNL     1      -5.167   1.560  25.118  0.00  0.00    +0.114 C 
BRANCH  17  18
ATOM     18  C   UNL     1      -5.669   2.181  25.321  0.00  0.00    +0.365 C 
ATOM     19  O   UNL     1      -6.027   2.634  24.732  0.00  0.00    -0.246 OA
ATOM     20  O   UNL     1      -5.813   2.352  26.117  0.00  0.00    -0.246 OA
ENDBRANCH  17  18
ENDBRANCH  16  17
TORSDOF 6
ENDMDL
MODEL 3
REMARK VINA RESULT:     -11.6      1.756      2.970
REMARK  Name = 
REMARK  6 active torsions:
REMARK  status: ('A' for Active; 'I' for Inactive)
REMARK    1  A    between atoms: O_2  and  C_3
REMARK    2  A    between atoms: C_9  and  C_10
REMARK    3  A    between atoms: C_10  and  C_11
REMARK    4  A    between atoms: C_16  and  C_17
REMARK    5  A    between atoms: C_17  and  C_18
REMARK    6  A    between atoms: C_21  and  C_23
REMARK                            x       y       z     vdW  Elec       q    Type
REMARK                         _______ _______ _______ _____ _____    ______ ____
ROOT
ATOM     11  C   UNL     1      -2.375   1.043  24.588  0.00  0.00    +0.026 C 
ATOM     12  C   UNL     1      -3.055   0.591  24.697  0.00  0.00    +0.094 C 
ATOM     13  N   UNL     1      -3.018  -0.232  24.641  0.00  0.00    -0.276 N 
ATOM     14  C   UNL     1      -2.299  -0.600  24.475  0.00  0.00    +0.094 C 
ATOM     15  C   UNL     1      -1.619  -0.148  24.366  0.00  0.00    +0.022 C 
ATOM     16  C   UNL     1      -1.656   0.674  24.422  0.00  0.00    +0.015 C 
ATOM     21  C   UNL     1      -3.699  -0.684  24.751  0.00  0.00    +0.249 C 
ATOM     22  O   UNL     1      -4.417  -0.314  24.917  0.00  0.00    -0.270 OA
ENDROOT
BRANCH  21  23
ATOM     23  C   UNL     1      -3.661  -1.506  24.695  0.00  0.00    +0.054 A 
ATOM     24  C   UNL     1      -3.878  -1.882  23.994  0.00  0.00    +0.005 A 
ATOM     25  C   UNL     1      -3.841  -2.705  23.937  0.00  0.00    +0.000 A 
ATOM     26  C   UNL     1      -3.585  -3.150  24.582  0.00  0.00    +0.000 A 
ATOM     27  C   UNL     1      -3.367  -2.774  25.284  0.00  0.00    +0.000 A 
ATOM     28  C   UNL     1      -3.405  -1.953  25.340  0.00  0.00    +0.005 A 
ENDBRANCH  21  23
BRANCH  11  10
ATOM     10  C   UNL     1      -2.412   1.866  24.644  0.00  0.00    +0.047 C 
BRANCH  10   9
ATOM      3  C   UNL     1      -4.515   3.894  25.207  0.00  0.00    +0.138 A 
ATOM      4  C   UNL     1      -4.518   3.782  24.389  0.00  0.00    +0.033 A 
ATOM      5  C   UNL     1      -3.993   3.246  24.044  0.00  0.00    -0.016 A 
ATOM      6  C   UNL     1      -3.464   2.823  24.516  0.00  0.00    +0.009 A 
ATOM      7  C   UNL     1      -3.461   2.936  25.334  0.00  0.00    +0.004 A 
ATOM      8  C   UNL     1      -3.986   3.471  25.680  0.00  0.00    +0.037 A 
ATOM      9  C   UNL     1      -2.940   2.288  24.171  0.00  0.00    +0.053 C 
ATOM     29  N   UNL     1      -2.944   2.176  23.355  0.00  0.00    -0.274 NA
ATOM     30  C   UNL     1      -3.473   2.599  22.882  0.00  0.00    +0.130 C 
ATOM     31  C   UNL     1      -3.997   3.134  23.227  0.00  0.00    +0.053 C 
BRANCH   3   2
ATOM      1  C   UNL     1      -5.815   4.201  25.712  0.00  0.00    +0.252 C 
ATOM      2  O   UNL     1      -5.039   4.429  25.552  0.00  0.00    -0.471 OA
ENDBRANCH   3   2
ENDBRANCH  10   9
ENDBRANCH  11  10
BRANCH  16  17
ATOM     17  C   UNL     1      -0.975   1.126  24.312  0.00  0.00    +0.114 C 
BRANCH  17  18
ATOM     18  C   UNL     1      -0.238   0.759  24.269  0.00  0.00    +0.365 C 
ATOM     19  O   UNL     1       0.074   0.544  23.536  0.00  0.00    -0.246 OA
ATOM     20  O   UNL     1       0.188   0.605  24.959  0.00  0.00    -0.246 OA
ENDBRANCH  17  18
ENDBRANCH  16  17
TORSDOF 6
ENDMDL
MODEL 4
REMARK VINA RESULT:     -11.4      1.376      2.652
REMARK  Name = 
REMARK  6 active torsions:
REMARK  status: ('A' for Active; 'I' for Inactive)
REMARK    1  A    between atoms: O_2  and  C_3
REMARK    2  A    between atoms: C_9  and  C_10
REMARK    3  A    between atoms: C_10  and  C_11
REMARK    4  A    between atoms: C_16  and  C_17
REMARK    5  A    between atoms: C_17  and  C_18
REMARK    6  A    between atoms: C_21  and  C_23
REMARK                            x       y       z     vdW  Elec       q    Type
REMARK                         _______ _______ _______ _____ _____    ______ ____
ROOT
ATOM     11  C   UNL     1      -2.006   0.787  24.821  0.00  0.00    +0.026 C 
ATOM     12  C   UNL     1      -2.722   0.418  24.998  0.00  0.00    +0.094 C 
ATOM     13  N   UNL     1      -2.846  -0.369  24.780  0.00  0.00    -0.276 N 
ATOM     14  C   UNL     1      -2.253  -0.785  24.386  0.00  0.00    +0.094 C 
ATOM     15  C   UNL     1      -1.537  -0.417  24.210  0.00  0.00    +0.022 C 
ATOM     16  C   UNL     1      -1.413   0.369  24.427  0.00  0.00    +0.015 C 
ATOM     21  C   UNL     1      -3.562  -0.738  24.957  0.00  0.00    +0.249 C 
ATOM     22  O   UNL     1      -4.155  -0.320  25.351  0.00  0.00    -0.270 OA
ENDROOT
BRANCH  21  23
ATOM     23  C   UNL     1      -3.686  -1.523  24.740  0.00  0.00    +0.054 A 
ATOM     24  C   UNL     1      -4.081  -1.700  24.038  0.00  0.00    +0.005 A 
ATOM     25  C   UNL     1      -4.205  -2.486  23.820  0.00  0.00    +0.000 A 
ATOM     26  C   UNL     1      -3.933  -3.096  24.305  0.00  0.00    +0.000 A 
ATOM     27  C   UNL     1      -3.537  -2.919  25.007  0.00  0.00    +0.000 A 
ATOM     28  C   UNL     1      -3.414  -2.134  25.224  0.00  0.00    +0.005 A 
ENDBRANCH  21  23
BRANCH  11  10
ATOM     10  C   UNL     1      -1.882   1.573  25.038  0.00  0.00    +0.047 C 
BRANCH  10   9
ATOM      3  C   UNL     1      -1.901   4.541  25.249  0.00  0.00    +0.138 A 
ATOM      4  C   UNL     1      -2.570   4.337  24.810  0.00  0.00    +0.033 A 
ATOM      5  C   UNL     1      -2.733   3.545  24.648  0.00  0.00    -0.016 A 
ATOM      6  C   UNL     1      -2.226   2.954  24.924  0.00  0.00    +0.009 A 
ATOM      7  C   UNL     1      -1.557   3.158  25.363  0.00  0.00    +0.004 A 
ATOM      8  C   UNL     1      -1.394   3.950  25.525  0.00  0.00    +0.037 A 
ATOM      9  C   UNL     1      -2.388   2.163  24.762  0.00  0.00    +0.053 C 
ATOM     29  N   UNL     1      -3.057   1.960  24.324  0.00  0.00    -0.274 NA
ATOM     30  C   UNL     1      -3.564   2.550  24.047  0.00  0.00    +0.130 C 
ATOM     31  C   UNL     1      -3.401   3.342  24.209  0.00  0.00    +0.053 C 
BRANCH   3   2
ATOM      1  C   UNL     1      -1.128   5.718  25.013  0.00  0.00    +0.252 C 
ATOM      2  O   UNL     1      -1.739   5.332  25.411  0.00  0.00    -0.471 OA
ENDBRANCH   3   2
ENDBRANCH  10   9
ENDBRANCH  11  10
BRANCH  16  17
ATOM     17  C   UNL     1      -0.697   0.738  24.250  0.00  0.00    +0.114 C 
BRANCH  17  18
ATOM     18  C   UNL     1      -0.101   0.318  23.866  0.00  0.00    +0.365 C 
ATOM     19  O   UNL     1       0.347  -0.237  24.280  0.00  0.00    -0.246 OA
ATOM     20  O   UNL     1       0.048   0.453  23.065  0.00  0.00    -0.246 OA
ENDBRANCH  17  18
ENDBRANCH  16  17
TORSDOF 6
ENDMDL
MODEL 5
REMARK VINA RESULT:     -10.7      2.196      3.798
REMARK  Name = 
REMARK  6 active torsions:
REMARK  status: ('A' for Active; 'I' for Inactive)
REMARK    1  A    between atoms: O_2  and  C_3
REMARK    2  A    between atoms: C_9  and  C_10
REMARK    3  A    between atoms: C_10  and  C_11
REMARK    4  A    between atoms: C_16  and  C_17
REMARK    5  A    between atoms: C_17  and  C_18
REMARK    6  A    between atoms: C_21  and  C_23
REMARK                            x       y       z     vdW  Elec       q    Type
REMARK                         _______ _______ _______ _____ _____    ______ ____
ROOT
ATOM     11  C   UNL     1      -2.682   0.136  24.747  0.00  0.00    +0.026 C 
ATOM     12  C   UNL     1      -3.001   0.888  24.640  0.00  0.00    +0.094 C 
ATOM     13  N   UNL     1      -3.778   1.044  24.871  0.00  0.00    -0.276 N 
ATOM     14  C   UNL     1      -4.235   0.447  25.210  0.00  0.00    +0.094 C 
ATOM     15  C   UNL     1      -3.916  -0.305  25.317  0.00  0.00    +0.022 C 
ATOM     16  C   UNL     1      -3.140  -0.462  25.086  0.00  0.00    +0.015 C 
ATOM     21  C   UNL     1      -4.097   1.798  24.763  0.00  0.00    +0.249 C 
ATOM     22  O   UNL     1      -3.639   2.394  24.424  0.00  0.00    -0.270 OA
ENDROOT
BRANCH  21  23
ATOM     23  C   UNL     1      -4.873   1.953  24.995  0.00  0.00    +0.054 A 
ATOM     24  C   UNL     1      -5.021   2.345  25.705  0.00  0.00    +0.005 A 
ATOM     25  C   UNL     1      -5.798   2.501  25.937  0.00  0.00    +0.000 A 
ATOM     26  C   UNL     1      -6.426   2.265  25.458  0.00  0.00    +0.000 A 
ATOM     27  C   UNL     1      -6.278   1.872  24.747  0.00  0.00    +0.000 A 
ATOM     28  C   UNL     1      -5.502   1.717  24.516  0.00  0.00    +0.005 A 
ENDBRANCH  21  23
BRANCH  11  10
ATOM     10  C   UNL     1      -1.906  -0.020  24.516  0.00  0.00    +0.047 C 
BRANCH  10   9
ATOM      3  C   UNL     1       0.790   0.597  23.418  0.00  0.00    +0.138 A 
ATOM      4  C   UNL     1       0.704   1.065  24.092  0.00  0.00    +0.033 A 
ATOM      5  C   UNL     1       0.008   1.028  24.536  0.00  0.00    -0.016 A 
ATOM      6  C   UNL     1      -0.602   0.522  24.304  0.00  0.00    +0.009 A 
ATOM      7  C   UNL     1      -0.516   0.054  23.630  0.00  0.00    +0.004 A 
ATOM      8  C   UNL     1       0.179   0.091  23.187  0.00  0.00    +0.037 A 
ATOM      9  C   UNL     1      -1.296   0.485  24.747  0.00  0.00    +0.053 C 
ATOM     29  N   UNL     1      -1.382   0.953  25.420  0.00  0.00    -0.274 NA
ATOM     30  C   UNL     1      -0.772   1.459  25.651  0.00  0.00    +0.130 C 
ATOM     31  C   UNL     1      -0.077   1.496  25.209  0.00  0.00    +0.053 C 
BRANCH   3   2
ATOM      1  C   UNL     1       1.759  -0.037  22.583  0.00  0.00    +0.252 C 
ATOM      2  O   UNL     1       1.484   0.634  22.976  0.00  0.00    -0.471 OA
ENDBRANCH   3   2
ENDBRANCH  10   9
ENDBRANCH  11  10
BRANCH  16  17
ATOM     17  C   UNL     1      -2.821  -1.215  25.194  0.00  0.00    +0.114 C 
BRANCH  17  18
ATOM     18  C   UNL     1      -3.320  -1.863  25.294  0.00  0.00    +0.365 C 
ATOM     19  O   UNL     1      -3.548  -2.096  26.052  0.00  0.00    -0.246 OA
ATOM     20  O   UNL     1      -3.591  -2.281  24.635  0.00  0.00    -0.246 OA
ENDBRANCH  17  18
ENDBRANCH  16  17
TORSDOF 6
ENDMDL
MODEL 6
REMARK VINA RESULT:     -10.5      1.545      5.229
REMARK  Name = 
REMARK  6 active torsions:
REMARK  status: ('A' for Active; 'I' for Inactive)
REMARK    1  A    between atoms: O_2  and  C_3
REMARK    2  A    between atoms: C_9  and  C_10
REMARK    3  A    between atoms: C_10  and  C_11
REMARK    4  A    between atoms: C_16  and  C_17
REMARK    5  A    between atoms: C_17  and  C_18
REMARK    6  A    between atoms: C_21  and  C_23
REMARK                            x       y       z     vdW  Elec       q    Type
REMARK                         _______ _______ _______ _____ _____    ______ ____
ROOT
ATOM     11  C   UNL     1      -2.526   1.578  23.803  0.00  0.00    +0.026 C 
ATOM     12  C   UNL     1      -2.251   1.939  24.491  0.00  0.00    +0.094 C 
ATOM     13  N   UNL     1      -2.028   2.734  24.478  0.00  0.00    -0.276 N 
ATOM     14  C   UNL     1      -2.080   3.166  23.777  0.00  0.00    +0.094 C 
ATOM     15  C   UNL     1      -2.355   2.804  23.090  0.00  0.00    +0.022 C 
ATOM     16  C   UNL     1      -2.578   2.010  23.102  0.00  0.00    +0.015 C 
ATOM     21  C   UNL     1      -1.753   3.096  25.167  0.00  0.00    +0.249 C 
ATOM     22  O   UNL     1      -1.701   2.664  25.867  0.00  0.00    -0.270 OA
ENDROOT
BRANCH  21  23
ATOM     23  C   UNL     1      -1.530   3.890  25.154  0.00  0.00    +0.054 A 
ATOM     24  C   UNL     1      -2.077   4.475  25.353  0.00  0.00    +0.005 A 
ATOM     25  C   UNL     1      -1.854   5.270  25.341  0.00  0.00    +0.000 A 
ATOM     26  C   UNL     1      -1.085   5.479  25.129  0.00  0.00    +0.000 A 
ATOM     27  C   UNL     1      -0.538   4.894  24.929  0.00  0.00    +0.000 A 
ATOM     28  C   UNL     1      -0.761   4.100  24.942  0.00  0.00    +0.005 A 
ENDBRANCH  21  23
BRANCH  11  10
ATOM     10  C   UNL     1      -2.749   0.784  23.815  0.00  0.00    +0.047 C 
BRANCH  10   9
ATOM      3  C   UNL     1      -3.407  -1.819  25.097  0.00  0.00    +0.138 A 
ATOM      4  C   UNL     1      -3.989  -1.288  25.344  0.00  0.00    +0.033 A 
ATOM      5  C   UNL     1      -3.970  -0.505  25.085  0.00  0.00    -0.016 A 
ATOM      6  C   UNL     1      -3.368  -0.252  24.579  0.00  0.00    +0.009 A 
ATOM      7  C   UNL     1      -2.787  -0.783  24.333  0.00  0.00    +0.004 A 
ATOM      8  C   UNL     1      -2.805  -1.566  24.591  0.00  0.00    +0.037 A 
ATOM      9  C   UNL     1      -3.350   0.531  24.321  0.00  0.00    +0.053 C 
ATOM     29  N   UNL     1      -3.931   1.061  24.567  0.00  0.00    -0.274 NA
ATOM     30  C   UNL     1      -4.532   0.808  25.073  0.00  0.00    +0.130 C 
ATOM     31  C   UNL     1      -4.551   0.025  25.332  0.00  0.00    +0.053 C 
BRANCH   3   2
ATOM      1  C   UNL     1      -3.325  -3.217  24.816  0.00  0.00    +0.252 C 
ATOM      2  O   UNL     1      -3.426  -2.602  25.356  0.00  0.00    -0.471 OA
ENDBRANCH   3   2
ENDBRANCH  10   9
ENDBRANCH  11  10
BRANCH  16  17
ATOM     17  C   UNL     1      -2.853   1.648  22.413  0.00  0.00    +0.114 C 
BRANCH  17  18
ATOM     18  C   UNL     1      -2.733   2.008  21.682  0.00  0.00    +0.365 C 
ATOM     19  O   UNL     1      -2.118   1.756  21.193  0.00  0.00    -0.246 OA
ATOM     20  O   UNL     1      -3.228   2.623  21.437  0.00  0.00    -0.246 OA
ENDBRANCH  17  18
ENDBRANCH  16  17
TORSDOF 6
ENDMDL
MODEL 7
REMARK VINA RESULT:     -10.3      2.070      4.038
REMARK  Name = 
REMARK  6 active torsions:
REMARK  status: ('A' for Active; 'I' for Inactive)
REMARK    1  A    between atoms: O_2  and  C_3
REMARK    2  A    between atoms: C_9  and  C_10
REMARK    3  A    between atoms: C_10  and  C_11
REMARK    4  A    between atoms: C_16  and  C_17
REMARK    5  A    between atoms: C_17  and  C_18
REMARK    6  A    between atoms: C_21  and  C_23
REMARK                            x       y       z     vdW  Elec       q    Type
REMARK                         _______ _______ _______ _____ _____    ______ ____
ROOT
ATOM     11  C   UNL     1      -2.020   2.043  24.893  0.00  0.00    +0.026 C 
ATOM     12  C   UNL     1      -2.672   1.573  24.712  0.00  0.00    +0.094 C 
ATOM     13  N   UNL     1      -3.433   1.830  24.903  0.00  0.00    -0.276 N 
ATOM     14  C   UNL     1      -3.540   2.558  25.277  0.00  0.00    +0.094 C 
ATOM     15  C   UNL     1      -2.888   3.028  25.458  0.00  0.00    +0.022 C 
ATOM     16  C   UNL     1      -2.128   2.772  25.267  0.00  0.00    +0.015 C 
ATOM     21  C   UNL     1      -4.085   1.359  24.722  0.00  0.00    +0.249 C 
ATOM     22  O   UNL     1      -3.977   0.631  24.348  0.00  0.00    -0.270 OA
ENDROOT
BRANCH  21  23
ATOM     23  C   UNL     1      -4.845   1.616  24.913  0.00  0.00    +0.054 A 
ATOM     24  C   UNL     1      -5.216   1.334  25.594  0.00  0.00    +0.005 A 
ATOM     25  C   UNL     1      -5.977   1.591  25.786  0.00  0.00    +0.000 A 
ATOM     26  C   UNL     1      -6.365   2.129  25.296  0.00  0.00    +0.000 A 
ATOM     27  C   UNL     1      -5.994   2.411  24.616  0.00  0.00    +0.000 A 
ATOM     28  C   UNL     1      -5.235   2.155  24.424  0.00  0.00    +0.005 A 
ENDBRANCH  21  23
BRANCH  11  10
ATOM     10  C   UNL     1      -1.260   1.787  24.702  0.00  0.00    +0.047 C 
BRANCH  10   9
ATOM      3  C   UNL     1       0.528  -0.141  23.309  0.00  0.00    +0.138 A 
ATOM      4  C   UNL     1       0.226  -0.540  23.965  0.00  0.00    +0.033 A 
ATOM      5  C   UNL     1      -0.296  -0.159  24.477  0.00  0.00    -0.016 A 
ATOM      6  C   UNL     1      -0.517   0.624  24.334  0.00  0.00    +0.009 A 
ATOM      7  C   UNL     1      -0.215   1.024  23.678  0.00  0.00    +0.004 A 
ATOM      8  C   UNL     1       0.307   0.642  23.166  0.00  0.00    +0.037 A 
ATOM      9  C   UNL     1      -1.039   1.005  24.846  0.00  0.00    +0.053 C 
ATOM     29  N   UNL     1      -1.341   0.605  25.500  0.00  0.00    -0.274 NA
ATOM     30  C   UNL     1      -1.120  -0.177  25.644  0.00  0.00    +0.130 C 
ATOM     31  C   UNL     1      -0.598  -0.559  25.132  0.00  0.00    +0.053 C 
BRANCH   3   2
ATOM      1  C   UNL     1       1.697  -0.114  22.489  0.00  0.00    +0.252 C 
ATOM      2  O   UNL     1       1.050  -0.522  22.797  0.00  0.00    -0.471 OA
ENDBRANCH   3   2
ENDBRANCH  10   9
ENDBRANCH  11  10
BRANCH  16  17
ATOM     17  C   UNL     1      -1.475   3.243  25.449  0.00  0.00    +0.114 C 
BRANCH  17  18
ATOM     18  C   UNL     1      -1.550   4.064  25.458  0.00  0.00    +0.365 C 
ATOM     19  O   UNL     1      -1.942   4.436  26.080  0.00  0.00    -0.246 OA
ATOM     20  O   UNL     1      -1.231   4.514  24.843  0.00  0.00    -0.246 OA
ENDBRANCH  17  18
ENDBRANCH  16  17
TORSDOF 6
ENDMDL
