MODEL 1
REMARK VINA RESULT:      -8.8      0.000      0.000
REMARK  Name = 
REMARK  9 active torsions:
REMARK  status: ('A' for Active; 'I' for Inactive)
REMARK    1  A    between atoms: N_2  and  C_4
REMARK    2  A    between atoms: C_4  and  C_5
REMARK    3  A    between atoms: C_5  and  N_6
REMARK    4  A    between atoms: C_7  and  C_9
REMARK    5  A    between atoms: C_9  and  C_10
REMARK    6  A    between atoms: C_12  and  C_13
REMARK    7  A    between atoms: C_13  and  N_14
REMARK    8  A    between atoms: N_14  and  C_15
REMARK    9  A    between atoms: C_15  and  C_16
REMARK                            x       y       z     vdW  Elec       q    Type
REMARK                         _______ _______ _______ _____ _____    ______ ____
ROOT
ATOM     10  C   UNL     1      -4.901   1.602  25.045  0.00  0.00    +0.157 C 
ATOM     11  O   UNL     1      -4.254   2.070  25.250  0.00  0.00    -0.351 OA
ATOM     12  C   UNL     1      -4.537   2.812  25.471  0.00  0.00    +0.165 C 
ATOM     22  C   UNL     1      -5.359   2.803  25.403  0.00  0.00    +0.213 C 
ATOM     23  O   UNL     1      -5.867   3.431  25.569  0.00  0.00    -0.218 OA
ATOM     24  C   UNL     1      -5.584   2.055  25.139  0.00  0.00    +0.212 C 
ATOM     25  O   UNL     1      -6.357   1.803  24.995  0.00  0.00    -0.218 OA
ENDROOT
BRANCH  10   9
ATOM      9  C   UNL     1      -4.871   0.817  24.789  0.00  0.00    +0.119 C 
BRANCH   9   7
ATOM      6  N   UNL     1      -3.808  -0.100  25.056  0.00  0.00    -0.204 NA
ATOM      7  C   UNL     1      -4.148   0.481  24.577  0.00  0.00    +0.244 C 
ATOM      8  O   UNL     1      -3.765   0.725  23.888  0.00  0.00    -0.273 OA
BRANCH   6   5
ATOM      5  C   UNL     1      -3.085  -0.436  24.844  0.00  0.00    +0.132 C 
BRANCH   5   4
ATOM      4  C   UNL     1      -2.752  -1.027  25.314  0.00  0.00    +0.096 C 
BRANCH   4   2
ATOM      1  C   UNL     1      -1.323  -1.058  25.282  0.00  0.00    +0.090 C 
ATOM      2  N   UNL     1      -2.050  -1.393  25.080  0.00  0.00    -0.269 NA
ATOM      3  C   UNL     1      -2.075  -2.093  24.643  0.00  0.00    +0.090 C 
ENDBRANCH   4   2
ENDBRANCH   5   4
ENDBRANCH   6   5
ENDBRANCH   9   7
ENDBRANCH  10   9
BRANCH  12  13
ATOM     13  C   UNL     1      -4.078   3.453  25.718  0.00  0.00    +0.121 C 
BRANCH  13  14
ATOM     14  N   UNL     1      -3.284   3.499  25.503  0.00  0.00    -0.209 NA
BRANCH  14  15
ATOM     15  C   UNL     1      -2.789   4.050  25.865  0.00  0.00    +0.134 C 
BRANCH  15  16
ATOM     16  C   UNL     1      -2.045   4.209  25.547  0.00  0.00    +0.077 A 
ATOM     17  N   UNL     1      -1.469   3.619  25.528  0.00  0.00    -0.247 NA
ATOM     18  C   UNL     1      -0.724   3.779  25.209  0.00  0.00    +0.098 A 
ATOM     19  C   UNL     1      -0.557   4.529  24.910  0.00  0.00    +0.021 A 
ATOM     20  C   UNL     1      -1.133   5.120  24.929  0.00  0.00    +0.003 A 
ATOM     21  C   UNL     1      -1.877   4.959  25.247  0.00  0.00    +0.016 A 
ENDBRANCH  15  16
ENDBRANCH  14  15
ENDBRANCH  13  14
ENDBRANCH  12  13
TORSDOF 9
ENDMDL
MODEL 2
REMARK VINA RESULT:      -8.6      0.931      4.547
REMARK  Name = 
REMARK  9 active torsions:
REMARK  status: ('A' for Active; 'I' for Inactive)
REMARK    1  A    between atoms: N_2  and  C_4
REMARK    2  A    between atoms: C_4  and  C_5
REMARK    3  A    between atoms: C_5  and  N_6
REMARK    4  A    between atoms: C_7  and  C_9
REMARK    5  A    between atoms: C_9  and  C_10
REMARK    6  A    between atoms: C_12  and  C_13
REMARK    7  A    between atoms: C_13  and  N_14
REMARK    8  A    between atoms: N_14  and  C_15
REMARK    9  A    between atoms: C_15  and  C_16
REMARK                            x       y       z     vdW  Elec       q    Type
REMARK                         _______ _______ _______ _____ _____    ______ ____
ROOT
ATOM     10  C   UNL     1      -4.730   2.867  25.456  0.00  0.00    +0.157 C 
ATOM     11  O   UNL     1      -4.445   2.214  25.041  0.00  0.00    -0.351 OA
ATOM     12  C   UNL     1      -5.066   1.678  24.953  0.00  0.00    +0.165 C 
ATOM     22  C   UNL     1      -5.735   1.999  25.314  0.00  0.00    +0.213 C 
ATOM     23  O   UNL     1      -6.479   1.648  25.356  0.00  0.00    -0.218 OA
ATOM     24  C   UNL     1      -5.527   2.735  25.625  0.00  0.00    +0.212 C 
ATOM     25  O   UNL     1      -6.028   3.247  26.033  0.00  0.00    -0.218 OA
ENDROOT
BRANCH  10   9
ATOM      9  C   UNL     1      -4.295   3.536  25.666  0.00  0.00    +0.119 C 
BRANCH   9   7
ATOM      6  N   UNL     1      -2.889   3.759  25.534  0.00  0.00    -0.204 NA
ATOM      7  C   UNL     1      -3.648   3.766  25.208  0.00  0.00    +0.244 C 
ATOM      8  O   UNL     1      -3.759   4.004  24.426  0.00  0.00    -0.273 OA
BRANCH   6   5
ATOM      5  C   UNL     1      -2.243   3.989  25.076  0.00  0.00    +0.132 C 
BRANCH   5   4
ATOM      4  C   UNL     1      -1.492   4.035  25.417  0.00  0.00    +0.096 C 
BRANCH   4   2
ATOM      1  C   UNL     1      -0.418   3.535  24.618  0.00  0.00    +0.090 C 
ATOM      2  N   UNL     1      -0.832   4.172  24.942  0.00  0.00    -0.269 NA
ATOM      3  C   UNL     1      -0.585   4.944  24.790  0.00  0.00    +0.090 C 
ENDBRANCH   4   2
ENDBRANCH   5   4
ENDBRANCH   6   5
ENDBRANCH   9   7
ENDBRANCH  10   9
BRANCH  12  13
ATOM     13  C   UNL     1      -5.025   0.947  24.571  0.00  0.00    +0.121 C 
BRANCH  13  14
ATOM     14  N   UNL     1      -4.453   0.396  24.793  0.00  0.00    -0.209 NA
BRANCH  14  15
ATOM     15  C   UNL     1      -4.198  -0.173  24.254  0.00  0.00    +0.134 C 
BRANCH  15  16
ATOM     16  C   UNL     1      -3.942  -0.910  24.522  0.00  0.00    +0.077 A 
ATOM     17  N   UNL     1      -3.566  -0.975  25.254  0.00  0.00    -0.247 NA
ATOM     18  C   UNL     1      -3.310  -1.713  25.522  0.00  0.00    +0.098 A 
ATOM     19  C   UNL     1      -3.429  -2.384  25.058  0.00  0.00    +0.021 A 
ATOM     20  C   UNL     1      -3.804  -2.319  24.325  0.00  0.00    +0.003 A 
ATOM     21  C   UNL     1      -4.060  -1.582  24.058  0.00  0.00    +0.016 A 
ENDBRANCH  15  16
ENDBRANCH  14  15
ENDBRANCH  13  14
ENDBRANCH  12  13
TORSDOF 9
ENDMDL
MODEL 3
REMARK VINA RESULT:      -8.1      1.884      4.229
REMARK  Name = 
REMARK  9 active torsions:
REMARK  status: ('A' for Active; 'I' for Inactive)
REMARK    1  A    between atoms: N_2  and  C_4
REMARK    2  A    between atoms: C_4  and  C_5
REMARK    3  A    between atoms: C_5  and  N_6
REMARK    4  A    between atoms: C_7  and  C_9
REMARK    5  A    between atoms: C_9  and  C_10
REMARK    6  A    between atoms: C_12  and  C_13
REMARK    7  A    between atoms: C_13  and  N_14
REMARK    8  A    between atoms: N_14  and  C_15
REMARK    9  A    between atoms: C_15  and  C_16
REMARK                            x       y       z     vdW  Elec       q    Type
REMARK                         _______ _______ _______ _____ _____    ______ ____
ROOT
ATOM     10  C   UNL     1      -2.847   2.477  24.554  0.00  0.00    +0.157 C 
ATOM     11  O   UNL     1      -3.113   1.696  24.538  0.00  0.00    -0.351 OA
ATOM     12  C   UNL     1      -3.889   1.687  24.816  0.00  0.00    +0.165 C 
ATOM     22  C   UNL     1      -4.103   2.461  25.004  0.00  0.00    +0.213 C 
ATOM     23  O   UNL     1      -4.832   2.704  25.301  0.00  0.00    -0.218 OA
ATOM     24  C   UNL     1      -3.458   2.949  24.841  0.00  0.00    +0.212 C 
ATOM     25  O   UNL     1      -3.430   3.767  24.948  0.00  0.00    -0.218 OA
ENDROOT
BRANCH  10   9
ATOM      9  C   UNL     1      -2.099   2.739  24.322  0.00  0.00    +0.119 C 
BRANCH   9   7
ATOM      6  N   UNL     1      -1.026   1.803  24.201  0.00  0.00    -0.204 NA
ATOM      7  C   UNL     1      -1.621   2.257  23.853  0.00  0.00    +0.244 C 
ATOM      8  O   UNL     1      -1.737   2.229  23.037  0.00  0.00    -0.273 OA
BRANCH   6   5
ATOM      5  C   UNL     1      -0.548   1.321  23.732  0.00  0.00    +0.132 C 
BRANCH   5   4
ATOM      4  C   UNL     1       0.023   0.839  24.084  0.00  0.00    +0.096 C 
BRANCH   4   2
ATOM      1  C   UNL     1      -0.114  -0.581  24.011  0.00  0.00    +0.090 C 
ATOM      2  N   UNL     1       0.226   0.119  23.736  0.00  0.00    -0.269 NA
ATOM      3  C   UNL     1       0.767   0.099  23.114  0.00  0.00    +0.090 C 
ENDBRANCH   4   2
ENDBRANCH   5   4
ENDBRANCH   6   5
ENDBRANCH   9   7
ENDBRANCH  10   9
BRANCH  12  13
ATOM     13  C   UNL     1      -4.369   1.019  24.893  0.00  0.00    +0.121 C 
BRANCH  13  14
ATOM     14  N   UNL     1      -4.035   0.266  24.873  0.00  0.00    -0.209 NA
BRANCH  14  15
ATOM     15  C   UNL     1      -4.511  -0.394  24.744  0.00  0.00    +0.134 C 
BRANCH  15  16
ATOM     16  C   UNL     1      -4.171  -1.143  24.679  0.00  0.00    +0.077 A 
ATOM     17  N   UNL     1      -3.746  -1.459  25.312  0.00  0.00    -0.247 NA
ATOM     18  C   UNL     1      -3.405  -2.209  25.247  0.00  0.00    +0.098 A 
ATOM     19  C   UNL     1      -3.491  -2.641  24.549  0.00  0.00    +0.021 A 
ATOM     20  C   UNL     1      -3.917  -2.325  23.916  0.00  0.00    +0.003 A 
ATOM     21  C   UNL     1      -4.257  -1.576  23.982  0.00  0.00    +0.016 A 
ENDBRANCH  15  16
ENDBRANCH  14  15
ENDBRANCH  13  14
ENDBRANCH  12  13
TORSDOF 9
ENDMDL
MODEL 4
REMARK VINA RESULT:      -8.1      1.809      5.100
REMARK  Name = 
REMARK  9 active torsions:
REMARK  status: ('A' for Active; 'I' for Inactive)
REMARK    1  A    between atoms: N_2  and  C_4
REMARK    2  A    between atoms: C_4  and  C_5
REMARK    3  A    between atoms: C_5  and  N_6
REMARK    4  A    between atoms: C_7  and  C_9
REMARK    5  A    between atoms: C_9  and  C_10
REMARK    6  A    between atoms: C_12  and  C_13
REMARK    7  A    between atoms: C_13  and  N_14
REMARK    8  A    between atoms: N_14  and  C_15
REMARK    9  A    between atoms: C_15  and  C_16
REMARK                            x       y       z     vdW  Elec       q    Type
REMARK                         _______ _______ _______ _____ _____    ______ ____
ROOT
ATOM     10  C   UNL     1      -1.362   2.749  24.862  0.00  0.00    +0.157 C 
ATOM     11  O   UNL     1      -1.561   2.017  25.184  0.00  0.00    -0.351 OA
ATOM     12  C   UNL     1      -0.916   1.512  25.088  0.00  0.00    +0.165 C 
ATOM     22  C   UNL     1      -0.318   1.933  24.706  0.00  0.00    +0.213 C 
ATOM     23  O   UNL     1       0.425   1.641  24.500  0.00  0.00    -0.218 OA
ATOM     24  C   UNL     1      -0.594   2.698  24.566  0.00  0.00    +0.212 C 
ATOM     25  O   UNL     1      -0.176   3.304  24.195  0.00  0.00    -0.218 OA
ENDROOT
BRANCH  10   9
ATOM      9  C   UNL     1      -1.847   3.417  24.839  0.00  0.00    +0.119 C 
BRANCH   9   7
ATOM      6  N   UNL     1      -3.266   3.247  24.843  0.00  0.00    -0.204 NA
ATOM      7  C   UNL     1      -2.565   3.418  25.245  0.00  0.00    +0.244 C 
ATOM      8  O   UNL     1      -2.584   3.590  26.051  0.00  0.00    -0.273 OA
BRANCH   6   5
ATOM      5  C   UNL     1      -3.984   3.248  25.249  0.00  0.00    +0.132 C 
BRANCH   5   4
ATOM      4  C   UNL     1      -4.692   3.146  24.835  0.00  0.00    +0.096 C 
BRANCH   4   2
ATOM      1  C   UNL     1      -5.508   1.987  25.013  0.00  0.00    +0.090 C 
ATOM      2  N   UNL     1      -5.331   2.772  25.198  0.00  0.00    -0.269 NA
ATOM      3  C   UNL     1      -5.793   3.181  25.746  0.00  0.00    +0.090 C 
ENDBRANCH   4   2
ENDBRANCH   5   4
ENDBRANCH   6   5
ENDBRANCH   9   7
ENDBRANCH  10   9
BRANCH  12  13
ATOM     13  C   UNL     1      -0.875   0.725  25.332  0.00  0.00    +0.121 C 
BRANCH  13  14
ATOM     14  N   UNL     1      -1.522   0.225  25.224  0.00  0.00    -0.209 NA
BRANCH  14  15
ATOM     15  C   UNL     1      -1.531  -0.521  25.576  0.00  0.00    +0.134 C 
BRANCH  15  16
ATOM     16  C   UNL     1      -2.111  -1.069  25.367  0.00  0.00    +0.077 A 
ATOM     17  N   UNL     1      -1.940  -1.663  24.820  0.00  0.00    -0.247 NA
ATOM     18  C   UNL     1      -2.521  -2.211  24.612  0.00  0.00    +0.098 A 
ATOM     19  C   UNL     1      -3.272  -2.165  24.951  0.00  0.00    +0.021 A 
ATOM     20  C   UNL     1      -3.443  -1.570  25.497  0.00  0.00    +0.003 A 
ATOM     21  C   UNL     1      -2.862  -1.023  25.705  0.00  0.00    +0.016 A 
ENDBRANCH  15  16
ENDBRANCH  14  15
ENDBRANCH  13  14
ENDBRANCH  12  13
TORSDOF 9
ENDMDL
MODEL 5
REMARK VINA RESULT:      -8.0      1.547      3.601
REMARK  Name = 
REMARK  9 active torsions:
REMARK  status: ('A' for Active; 'I' for Inactive)
REMARK    1  A    between atoms: N_2  and  C_4
REMARK    2  A    between atoms: C_4  and  C_5
REMARK    3  A    between atoms: C_5  and  N_6
REMARK    4  A    between atoms: C_7  and  C_9
REMARK    5  A    between atoms: C_9  and  C_10
REMARK    6  A    between atoms: C_12  and  C_13
REMARK    7  A    between atoms: C_13  and  N_14
REMARK    8  A    between atoms: N_14  and  C_15
REMARK    9  A    between atoms: C_15  and  C_16
REMARK                            x       y       z     vdW  Elec       q    Type
REMARK                         _______ _______ _______ _____ _____    ______ ____
ROOT
ATOM     10  C   UNL     1      -2.432  -0.284  24.779  0.00  0.00    +0.157 C 
ATOM     11  O   UNL     1      -2.193   0.469  25.016  0.00  0.00    -0.351 OA
ATOM     12  C   UNL     1      -1.373   0.457  25.110  0.00  0.00    +0.165 C 
ATOM     22  C   UNL     1      -1.106  -0.303  24.932  0.00  0.00    +0.213 C 
ATOM     23  O   UNL     1      -0.323  -0.559  24.954  0.00  0.00    -0.218 OA
ATOM     24  C   UNL     1      -1.761  -0.761  24.727  0.00  0.00    +0.212 C 
ATOM     25  O   UNL     1      -1.747  -1.556  24.508  0.00  0.00    -0.218 OA
ENDROOT
BRANCH  10   9
ATOM      9  C   UNL     1      -3.207  -0.519  24.621  0.00  0.00    +0.119 C 
BRANCH   9   7
ATOM      6  N   UNL     1      -4.210   0.499  24.627  0.00  0.00    -0.204 NA
ATOM      7  C   UNL     1      -3.837  -0.138  24.995  0.00  0.00    +0.244 C 
ATOM      8  O   UNL     1      -4.093  -0.395  25.736  0.00  0.00    -0.273 OA
BRANCH   6   5
ATOM      5  C   UNL     1      -4.840   0.880  25.000  0.00  0.00    +0.132 C 
BRANCH   5   4
ATOM      4  C   UNL     1      -5.117   1.601  24.709  0.00  0.00    +0.096 C 
BRANCH   4   2
ATOM      1  C   UNL     1      -6.480   1.835  25.066  0.00  0.00    +0.090 C 
ATOM      2  N   UNL     1      -5.680   2.027  25.134  0.00  0.00    -0.269 NA
ATOM      3  C   UNL     1      -5.445   2.646  25.627  0.00  0.00    +0.090 C 
ENDBRANCH   4   2
ENDBRANCH   5   4
ENDBRANCH   6   5
ENDBRANCH   9   7
ENDBRANCH  10   9
BRANCH  12  13
ATOM     13  C   UNL     1      -0.902   1.094  25.342  0.00  0.00    +0.121 C 
BRANCH  13  14
ATOM     14  N   UNL     1      -1.164   1.867  25.221  0.00  0.00    -0.209 NA
BRANCH  14  15
ATOM     15  C   UNL     1      -0.810   2.491  25.627  0.00  0.00    +0.134 C 
BRANCH  15  16
ATOM     16  C   UNL     1      -1.069   3.264  25.502  0.00  0.00    +0.077 A 
ATOM     17  N   UNL     1      -1.795   3.511  25.808  0.00  0.00    -0.247 NA
ATOM     18  C   UNL     1      -2.054   4.285  25.682  0.00  0.00    +0.098 A 
ATOM     19  C   UNL     1      -1.586   4.811  25.253  0.00  0.00    +0.021 A 
ATOM     20  C   UNL     1      -0.860   4.565  24.947  0.00  0.00    +0.003 A 
ATOM     21  C   UNL     1      -0.602   3.792  25.073  0.00  0.00    +0.016 A 
ENDBRANCH  15  16
ENDBRANCH  14  15
ENDBRANCH  13  14
ENDBRANCH  12  13
TORSDOF 9
ENDMDL
MODEL 6
REMARK VINA RESULT:      -8.0      1.969      3.717
REMARK  Name = 
REMARK  9 active torsions:
REMARK  status: ('A' for Active; 'I' for Inactive)
REMARK    1  A    between atoms: N_2  and  C_4
REMARK    2  A    between atoms: C_4  and  C_5
REMARK    3  A    between atoms: C_5  and  N_6
REMARK    4  A    between atoms: C_7  and  C_9
REMARK    5  A    between atoms: C_9  and  C_10
REMARK    6  A    between atoms: C_12  and  C_13
REMARK    7  A    between atoms: C_13  and  N_14
REMARK    8  A    between atoms: N_14  and  C_15
REMARK    9  A    between atoms: C_15  and  C_16
REMARK                            x       y       z     vdW  Elec       q    Type
REMARK                         _______ _______ _______ _____ _____    ______ ____
ROOT
ATOM     10  C   UNL     1      -0.691   1.809  25.177  0.00  0.00    +0.157 C 
ATOM     11  O   UNL     1      -1.467   1.987  24.962  0.00  0.00    -0.351 OA
ATOM     12  C   UNL     1      -1.584   2.795  25.075  0.00  0.00    +0.165 C 
ATOM     22  C   UNL     1      -0.880   3.118  25.360  0.00  0.00    +0.213 C 
ATOM     23  O   UNL     1      -0.751   3.910  25.549  0.00  0.00    -0.218 OA
ATOM     24  C   UNL     1      -0.328   2.508  25.423  0.00  0.00    +0.212 C 
ATOM     25  O   UNL     1       0.450   2.583  25.686  0.00  0.00    -0.218 OA
ENDROOT
BRANCH  10   9
ATOM      9  C   UNL     1      -0.339   1.063  25.151  0.00  0.00    +0.119 C 
BRANCH   9   7
ATOM      6  N   UNL     1      -1.051  -0.176  25.161  0.00  0.00    -0.204 NA
ATOM      7  C   UNL     1      -0.708   0.448  24.743  0.00  0.00    +0.244 C 
ATOM      8  O   UNL     1      -0.735   0.457  23.919  0.00  0.00    -0.273 OA
BRANCH   6   5
ATOM      5  C   UNL     1      -1.420  -0.791  24.754  0.00  0.00    +0.132 C 
BRANCH   5   4
ATOM      4  C   UNL     1      -1.758  -1.418  25.171  0.00  0.00    +0.096 C 
BRANCH   4   2
ATOM      1  C   UNL     1      -1.895  -2.585  24.359  0.00  0.00    +0.090 C 
ATOM      2  N   UNL     1      -2.237  -1.963  24.779  0.00  0.00    -0.269 NA
ATOM      3  C   UNL     1      -3.058  -1.887  24.807  0.00  0.00    +0.090 C 
ENDBRANCH   4   2
ENDBRANCH   5   4
ENDBRANCH   6   5
ENDBRANCH   9   7
ENDBRANCH  10   9
BRANCH  12  13
ATOM     13  C   UNL     1      -2.283   3.210  24.929  0.00  0.00    +0.121 C 
BRANCH  13  14
ATOM     14  N   UNL     1      -3.012   2.843  25.045  0.00  0.00    -0.209 NA
BRANCH  14  15
ATOM     15  C   UNL     1      -3.708   3.232  24.832  0.00  0.00    +0.134 C 
BRANCH  15  16
ATOM     16  C   UNL     1      -4.439   2.905  25.027  0.00  0.00    +0.077 A 
ATOM     17  N   UNL     1      -4.868   3.204  25.667  0.00  0.00    -0.247 NA
ATOM     18  C   UNL     1      -5.600   2.876  25.862  0.00  0.00    +0.098 A 
ATOM     19  C   UNL     1      -5.903   2.252  25.417  0.00  0.00    +0.021 A 
ATOM     20  C   UNL     1      -5.476   1.953  24.778  0.00  0.00    +0.003 A 
ATOM     21  C   UNL     1      -4.744   2.280  24.583  0.00  0.00    +0.016 A 
ENDBRANCH  15  16
ENDBRANCH  14  15
ENDBRANCH  13  14
ENDBRANCH  12  13
TORSDOF 9
ENDMDL
MODEL 7
REMARK VINA RESULT:      -8.0      1.912      4.146
REMARK  Name = 
REMARK  9 active torsions:
REMARK  status: ('A' for Active; 'I' for Inactive)
REMARK    1  A    between atoms: N_2  and  C_4
REMARK    2  A    between atoms: C_4  and  C_5
REMARK    3  A    between atoms: C_5  and  N_6
REMARK    4  A    between atoms: C_7  and  C_9
REMARK    5  A    between atoms: C_9  and  C_10
REMARK    6  A    between atoms: C_12  and  C_13
REMARK    7  A    between atoms: C_13  and  N_14
REMARK    8  A    between atoms: N_14  and  C_15
REMARK    9  A    between atoms: C_15  and  C_16
REMARK                            x       y       z     vdW  Elec       q    Type
REMARK                         _______ _______ _______ _____ _____    ______ ____
ROOT
ATOM     10  C   UNL     1      -2.394  -1.012  24.739  0.00  0.00    +0.157 C 
ATOM     11  O   UNL     1      -2.941  -0.401  24.830  0.00  0.00    -0.351 OA
ATOM     12  C   UNL     1      -3.682  -0.689  24.611  0.00  0.00    +0.165 C 
ATOM     22  C   UNL     1      -3.594  -1.477  24.384  0.00  0.00    +0.213 C 
ATOM     23  O   UNL     1      -4.195  -1.978  24.124  0.00  0.00    -0.218 OA
ATOM     24  C   UNL     1      -2.797  -1.676  24.464  0.00  0.00    +0.212 C 
ATOM     25  O   UNL     1      -2.463  -2.412  24.297  0.00  0.00    -0.218 OA
ENDROOT
BRANCH  10   9
ATOM      9  C   UNL     1      -1.585  -0.966  24.897  0.00  0.00    +0.119 C 
BRANCH   9   7
ATOM      6  N   UNL     1      -0.937   0.306  24.974  0.00  0.00    -0.204 NA
ATOM      7  C   UNL     1      -1.289  -0.342  25.347  0.00  0.00    +0.244 C 
ATOM      8  O   UNL     1      -1.343  -0.364  26.170  0.00  0.00    -0.273 OA
BRANCH   6   5
ATOM      5  C   UNL     1      -0.640   0.930  25.425  0.00  0.00    +0.132 C 
BRANCH   5   4
ATOM      4  C   UNL     1      -0.232   1.546  25.057  0.00  0.00    +0.096 C 
BRANCH   4   2
ATOM      1  C   UNL     1      -0.668   2.905  24.983  0.00  0.00    +0.090 C 
ATOM      2  N   UNL     1      -0.258   2.306  25.377  0.00  0.00    -0.269 NA
ATOM      3  C   UNL     1       0.124   2.467  26.090  0.00  0.00    +0.090 C 
ENDBRANCH   4   2
ENDBRANCH   5   4
ENDBRANCH   6   5
ENDBRANCH   9   7
ENDBRANCH  10   9
BRANCH  12  13
ATOM     13  C   UNL     1      -4.389  -0.263  24.617  0.00  0.00    +0.121 C 
BRANCH  13  14
ATOM     14  N   UNL     1      -4.388   0.537  24.820  0.00  0.00    -0.209 NA
BRANCH  14  15
ATOM     15  C   UNL     1      -5.079   0.982  24.749  0.00  0.00    +0.134 C 
BRANCH  15  16
ATOM     16  C   UNL     1      -5.090   1.769  24.994  0.00  0.00    +0.077 A 
ATOM     17  N   UNL     1      -4.599   2.323  24.627  0.00  0.00    -0.247 NA
ATOM     18  C   UNL     1      -4.611   3.111  24.873  0.00  0.00    +0.098 A 
ATOM     19  C   UNL     1      -5.112   3.344  25.485  0.00  0.00    +0.021 A 
ATOM     20  C   UNL     1      -5.603   2.791  25.852  0.00  0.00    +0.003 A 
ATOM     21  C   UNL     1      -5.591   2.004  25.606  0.00  0.00    +0.016 A 
ENDBRANCH  15  16
ENDBRANCH  14  15
ENDBRANCH  13  14
ENDBRANCH  12  13
TORSDOF 9
ENDMDL
