MODEL 1
REMARK VINA RESULT:      -7.4      0.000      0.000
REMARK  Name = 
REMARK  13 active torsions:
REMARK  status: ('A' for Active; 'I' for Inactive)
REMARK    1  A    between atoms: O_2  and  C_3
REMARK    2  A    between atoms: C_3  and  C_4
REMARK    3  A    between atoms: C_4  and  N_5
REMARK    4  A    between atoms: N_5  and  C_6
REMARK    5  A    between atoms: N_5  and  C_10
REMARK    6  A    between atoms: C_6  and  C_7
REMARK    7  A    between atoms: C_7  and  O_8
REMARK    8  A    between atoms: C_10  and  C_11
REMARK    9  A    between atoms: C_15  and  C_16
REMARK   10  A    between atoms: C_16  and  C_17
REMARK   11  A    between atoms: C_20  and  C_22
REMARK   12  A    between atoms: C_25  and  N_28
REMARK   13  A    between atoms: C_32  and  C_33
REMARK                            x       y       z     vdW  Elec       q    Type
REMARK                         _______ _______ _______ _____ _____    ______ ____
ROOT
ATOM     11  C   UNL     1      -0.812   1.406  23.857  0.00  0.00    +0.037 C 
ATOM     12  C   UNL     1      -1.291   1.169  23.229  0.00  0.00    -0.034 C 
ATOM     13  C   UNL     1      -1.913   1.652  22.980  0.00  0.00    -0.048 C 
ATOM     14  C   UNL     1      -2.393   1.416  22.352  0.00  0.00    +0.026 C 
ATOM     15  C   UNL     1      -2.054   2.371  23.359  0.00  0.00    +0.027 C 
ATOM     31  C   UNL     1      -1.573   2.607  23.987  0.00  0.00    +0.005 C 
ATOM     32  C   UNL     1      -0.953   2.125  24.236  0.00  0.00    +0.006 C 
ENDROOT
BRANCH  32  33
ATOM     33  C   UNL     1      -0.472   2.360  24.864  0.00  0.00    +0.000 C 
ATOM     34  C   UNL     1      -0.678   2.164  25.638  0.00  0.00    +0.000 C 
ATOM     35  C   UNL     1       0.215   2.793  24.717  0.00  0.00    +0.000 C 
ENDBRANCH  32  33
BRANCH  11  10
ATOM     10  C   UNL     1      -0.190   0.922  24.106  0.00  0.00    +0.077 C 
BRANCH  10   5
ATOM      5  N   UNL     1      -0.144   0.141  23.843  0.00  0.00    -0.268 NA
BRANCH   5   4
ATOM      4  C   UNL     1       0.346  -0.052  23.208  0.00  0.00    +0.105 C 
BRANCH   4   3
ATOM      3  C   UNL     1       1.165   0.015  23.285  0.00  0.00    +0.160 C 
BRANCH   3   2
ATOM      1  C   UNL     1       2.456   0.085  22.677  0.00  0.00    +0.174 C 
ATOM      2  O   UNL     1       1.651  -0.089  22.627  0.00  0.00    -0.350 OA
ENDBRANCH   3   2
ENDBRANCH   4   3
ENDBRANCH   5   4
BRANCH   5   6
ATOM      6  C   UNL     1      -0.588  -0.445  24.215  0.00  0.00    +0.105 C 
BRANCH   6   7
ATOM      7  C   UNL     1      -0.209  -1.084  24.574  0.00  0.00    +0.160 C 
BRANCH   7   8
ATOM      8  O   UNL     1      -0.573  -1.483  25.198  0.00  0.00    -0.350 OA
ATOM      9  C   UNL     1      -1.007  -2.170  25.053  0.00  0.00    +0.174 C 
ENDBRANCH   7   8
ENDBRANCH   6   7
ENDBRANCH   5   6
ENDBRANCH  10   5
ENDBRANCH  11  10
BRANCH  15  16
ATOM     16  C   UNL     1      -2.674   2.854  23.111  0.00  0.00    +0.091 C 
BRANCH  16  17
ATOM     17  C   UNL     1      -3.264   3.076  23.643  0.00  0.00    +0.227 A 
ATOM     18  N   UNL     1      -3.483   3.850  23.829  0.00  0.00    -0.111 NA
ATOM     19  N   UNL     1      -4.092   3.816  24.384  0.00  0.00    -0.107 NA
ATOM     20  C   UNL     1      -4.250   3.022  24.541  0.00  0.00    +0.250 A 
ATOM     21  O   UNL     1      -3.738   2.565  24.084  0.00  0.00    -0.420 OA
BRANCH  20  22
ATOM     22  C   UNL     1      -4.820   2.736  25.065  0.00  0.00    +0.055 A 
ATOM     23  C   UNL     1      -5.135   1.981  24.960  0.00  0.00    +0.006 A 
ATOM     24  C   UNL     1      -5.704   1.695  25.483  0.00  0.00    +0.024 A 
ATOM     25  C   UNL     1      -5.959   2.164  26.113  0.00  0.00    +0.143 A 
ATOM     26  C   UNL     1      -5.644   2.919  26.218  0.00  0.00    +0.024 A 
ATOM     27  C   UNL     1      -5.074   3.206  25.694  0.00  0.00    +0.006 A 
BRANCH  25  28
ATOM     28  N   UNL     1      -6.529   1.878  26.636  0.00  0.00    +0.058 N 
ATOM     29  O   UNL     1      -6.508   2.100  27.430  0.00  0.00    -0.126 OA
ATOM     30  O   UNL     1      -7.120   1.370  26.365  0.00  0.00    -0.126 OA
ENDBRANCH  25  28
ENDBRANCH  20  22
ENDBRANCH  16  17
ENDBRANCH  15  16
TORSDOF 13
ENDMDL
MODEL 2
REMARK VINA RESULT:      -7.4      0.079      1.598
REMARK  Name = 
REMARK  13 active torsions:
REMARK  status: ('A' for Active; 'I' for Inactive)
REMARK    1  A    between atoms: O_2  and  C_3
REMARK    2  A    between atoms: C_3  and  C_4
REMARK    3  A    between atoms: C_4  and  N_5
REMARK    4  A    between atoms: N_5  and  C_6
REMARK    5  A    between atoms: N_5  and  C_10
REMARK    6  A    between atoms: C_6  and  C_7
REMARK    7  A    between atoms: C_7  and  O_8
REMARK    8  A    between atoms: C_10  and  C_11
REMARK    9  A    between atoms: C_15  and  C_16
REMARK   10  A    between atoms: C_16  and  C_17
REMARK   11  A    between atoms: C_20  and  C_22
REMARK   12  A    between atoms: C_25  and  N_28
REMARK   13  A    between atoms: C_32  and  C_33
REMARK                            x       y       z     vdW  Elec       q    Type
REMARK                         _______ _______ _______ _____ _____    ______ ____
ROOT
ATOM     11  C   UNL     1      -0.835   1.458  23.852  0.00  0.00    +0.037 C 
ATOM     12  C   UNL     1      -1.313   1.202  23.231  0.00  0.00    -0.034 C 
ATOM     13  C   UNL     1      -1.940   1.673  22.971  0.00  0.00    -0.048 C 
ATOM     14  C   UNL     1      -2.417   1.417  22.349  0.00  0.00    +0.026 C 
ATOM     15  C   UNL     1      -2.088   2.399  23.334  0.00  0.00    +0.027 C 
ATOM     31  C   UNL     1      -1.609   2.654  23.956  0.00  0.00    +0.005 C 
ATOM     32  C   UNL     1      -0.984   2.184  24.215  0.00  0.00    +0.006 C 
ENDROOT
BRANCH  32  33
ATOM     33  C   UNL     1      -0.505   2.439  24.837  0.00  0.00    +0.000 C 
ATOM     34  C   UNL     1       0.175   2.878  24.682  0.00  0.00    +0.000 C 
ATOM     35  C   UNL     1      -0.708   2.255  25.616  0.00  0.00    +0.000 C 
ENDBRANCH  32  33
BRANCH  11  10
ATOM     10  C   UNL     1      -0.208   0.987  24.112  0.00  0.00    +0.077 C 
BRANCH  10   5
ATOM      5  N   UNL     1      -0.167   0.195  23.886  0.00  0.00    -0.268 NA
BRANCH   5   4
ATOM      4  C   UNL     1      -0.607  -0.373  24.292  0.00  0.00    +0.105 C 
BRANCH   4   3
ATOM      3  C   UNL     1      -0.236  -1.046  24.590  0.00  0.00    +0.160 C 
BRANCH   3   2
ATOM      1  C   UNL     1      -0.920  -2.187  25.113  0.00  0.00    +0.174 C 
ATOM      2  O   UNL     1      -0.566  -1.451  25.229  0.00  0.00    -0.350 OA
ENDBRANCH   3   2
ENDBRANCH   4   3
ENDBRANCH   5   4
BRANCH   5   6
ATOM      6  C   UNL     1       0.315  -0.029  23.256  0.00  0.00    +0.105 C 
BRANCH   6   7
ATOM      7  C   UNL     1       1.134   0.051  23.314  0.00  0.00    +0.160 C 
BRANCH   7   8
ATOM      8  O   UNL     1       1.613  -0.125  22.665  0.00  0.00    -0.350 OA
ATOM      9  C   UNL     1       2.407   0.098  22.666  0.00  0.00    +0.174 C 
ENDBRANCH   7   8
ENDBRANCH   6   7
ENDBRANCH   5   6
ENDBRANCH  10   5
ENDBRANCH  11  10
BRANCH  15  16
ATOM     16  C   UNL     1      -2.714   2.869  23.075  0.00  0.00    +0.091 C 
BRANCH  16  17
ATOM     17  C   UNL     1      -3.310   3.090  23.601  0.00  0.00    +0.227 A 
ATOM     18  N   UNL     1      -3.551   3.863  23.761  0.00  0.00    -0.111 NA
ATOM     19  N   UNL     1      -4.159   3.829  24.318  0.00  0.00    -0.107 NA
ATOM     20  C   UNL     1      -4.292   3.037  24.502  0.00  0.00    +0.250 A 
ATOM     21  O   UNL     1      -3.767   2.580  24.059  0.00  0.00    -0.420 OA
BRANCH  20  22
ATOM     22  C   UNL     1      -4.853   2.751  25.036  0.00  0.00    +0.055 A 
ATOM     23  C   UNL     1      -5.262   2.053  24.872  0.00  0.00    +0.006 A 
ATOM     24  C   UNL     1      -5.822   1.768  25.405  0.00  0.00    +0.024 A 
ATOM     25  C   UNL     1      -5.974   2.180  26.104  0.00  0.00    +0.143 A 
ATOM     26  C   UNL     1      -5.565   2.877  26.269  0.00  0.00    +0.024 A 
ATOM     27  C   UNL     1      -5.004   3.163  25.735  0.00  0.00    +0.006 A 
BRANCH  25  28
ATOM     28  N   UNL     1      -6.534   1.894  26.638  0.00  0.00    +0.058 N 
ATOM     29  O   UNL     1      -6.549   2.179  27.412  0.00  0.00    -0.126 OA
ATOM     30  O   UNL     1      -7.079   1.323  26.398  0.00  0.00    -0.126 OA
ENDBRANCH  25  28
ENDBRANCH  20  22
ENDBRANCH  16  17
ENDBRANCH  15  16
TORSDOF 13
ENDMDL
MODEL 3
REMARK VINA RESULT:      -7.0      2.013      5.033
REMARK  Name = 
REMARK  13 active torsions:
REMARK  status: ('A' for Active; 'I' for Inactive)
REMARK    1  A    between atoms: O_2  and  C_3
REMARK    2  A    between atoms: C_3  and  C_4
REMARK    3  A    between atoms: C_4  and  N_5
REMARK    4  A    between atoms: N_5  and  C_6
REMARK    5  A    between atoms: N_5  and  C_10
REMARK    6  A    between atoms: C_6  and  C_7
REMARK    7  A    between atoms: C_7  and  O_8
REMARK    8  A    between atoms: C_10  and  C_11
REMARK    9  A    between atoms: C_15  and  C_16
REMARK   10  A    between atoms: C_16  and  C_17
REMARK   11  A    between atoms: C_20  and  C_22
REMARK   12  A    between atoms: C_25  and  N_28
REMARK   13  A    between atoms: C_32  and  C_33
REMARK                            x       y       z     vdW  Elec       q    Type
REMARK                         _______ _______ _______ _____ _____    ______ ____
ROOT
ATOM     11  C   UNL     1      -1.828   2.647  24.706  0.00  0.00    +0.037 C 
ATOM     12  C   UNL     1      -1.383   2.548  25.393  0.00  0.00    -0.034 C 
ATOM     13  C   UNL     1      -0.836   1.931  25.445  0.00  0.00    -0.048 C 
ATOM     14  C   UNL     1      -0.391   1.833  26.132  0.00  0.00    +0.026 C 
ATOM     15  C   UNL     1      -0.736   1.414  24.810  0.00  0.00    +0.027 C 
ATOM     31  C   UNL     1      -1.183   1.513  24.124  0.00  0.00    +0.005 C 
ATOM     32  C   UNL     1      -1.728   2.129  24.071  0.00  0.00    +0.006 C 
ENDROOT
BRANCH  32  33
ATOM     33  C   UNL     1      -2.175   2.229  23.385  0.00  0.00    +0.000 C 
ATOM     34  C   UNL     1      -1.871   2.665  22.754  0.00  0.00    +0.000 C 
ATOM     35  C   UNL     1      -2.926   1.891  23.329  0.00  0.00    +0.000 C 
ENDBRANCH  32  33
BRANCH  11  10
ATOM     10  C   UNL     1      -2.375   3.264  24.654  0.00  0.00    +0.077 C 
BRANCH  10   5
ATOM      5  N   UNL     1      -2.531   3.733  25.314  0.00  0.00    -0.268 NA
BRANCH   5   4
ATOM      4  C   UNL     1      -2.024   4.355  25.507  0.00  0.00    +0.105 C 
BRANCH   4   3
ATOM      3  C   UNL     1      -2.084   5.074  25.108  0.00  0.00    +0.160 C 
BRANCH   3   2
ATOM      1  C   UNL     1      -1.077   6.010  24.716  0.00  0.00    +0.174 C 
ATOM      2  O   UNL     1      -1.573   5.694  25.295  0.00  0.00    -0.350 OA
ENDBRANCH   3   2
ENDBRANCH   4   3
ENDBRANCH   5   4
BRANCH   5   6
ATOM      6  C   UNL     1      -3.194   3.581  25.780  0.00  0.00    +0.105 C 
BRANCH   6   7
ATOM      7  C   UNL     1      -3.934   3.862  25.549  0.00  0.00    +0.160 C 
BRANCH   7   8
ATOM      8  O   UNL     1      -4.607   3.656  25.980  0.00  0.00    -0.350 OA
ATOM      9  C   UNL     1      -5.341   3.617  25.605  0.00  0.00    +0.174 C 
ENDBRANCH   7   8
ENDBRANCH   6   7
ENDBRANCH   5   6
ENDBRANCH  10   5
ENDBRANCH  11  10
BRANCH  15  16
ATOM     16  C   UNL     1      -0.191   0.798  24.863  0.00  0.00    +0.091 C 
BRANCH  16  17
ATOM     17  C   UNL     1      -0.420   0.026  24.683  0.00  0.00    +0.227 A 
ATOM     18  N   UNL     1       0.057  -0.554  24.341  0.00  0.00    -0.111 NA
ATOM     19  N   UNL     1      -0.395  -1.239  24.260  0.00  0.00    -0.107 NA
ATOM     20  C   UNL     1      -1.150  -1.083  24.552  0.00  0.00    +0.250 A 
ATOM     21  O   UNL     1      -1.165  -0.301  24.813  0.00  0.00    -0.420 OA
BRANCH  20  22
ATOM     22  C   UNL     1      -1.779  -1.617  24.578  0.00  0.00    +0.055 A 
ATOM     23  C   UNL     1      -1.716  -2.348  24.202  0.00  0.00    +0.006 A 
ATOM     24  C   UNL     1      -2.345  -2.881  24.228  0.00  0.00    +0.024 A 
ATOM     25  C   UNL     1      -3.038  -2.682  24.630  0.00  0.00    +0.143 A 
ATOM     26  C   UNL     1      -3.101  -1.951  25.006  0.00  0.00    +0.024 A 
ATOM     27  C   UNL     1      -2.471  -1.418  24.980  0.00  0.00    +0.006 A 
BRANCH  25  28
ATOM     28  N   UNL     1      -3.667  -3.215  24.656  0.00  0.00    +0.058 N 
ATOM     29  O   UNL     1      -3.773  -3.696  25.318  0.00  0.00    -0.126 OA
ATOM     30  O   UNL     1      -4.190  -3.267  24.020  0.00  0.00    -0.126 OA
ENDBRANCH  25  28
ENDBRANCH  20  22
ENDBRANCH  16  17
ENDBRANCH  15  16
TORSDOF 13
ENDMDL
MODEL 4
REMARK VINA RESULT:      -7.0      2.016      5.249
REMARK  Name = 
REMARK  13 active torsions:
REMARK  status: ('A' for Active; 'I' for Inactive)
REMARK    1  A    between atoms: O_2  and  C_3
REMARK    2  A    between atoms: C_3  and  C_4
REMARK    3  A    between atoms: C_4  and  N_5
REMARK    4  A    between atoms: N_5  and  C_6
REMARK    5  A    between atoms: N_5  and  C_10
REMARK    6  A    between atoms: C_6  and  C_7
REMARK    7  A    between atoms: C_7  and  O_8
REMARK    8  A    between atoms: C_10  and  C_11
REMARK    9  A    between atoms: C_15  and  C_16
REMARK   10  A    between atoms: C_16  and  C_17
REMARK   11  A    between atoms: C_20  and  C_22
REMARK   12  A    between atoms: C_25  and  N_28
REMARK   13  A    between atoms: C_32  and  C_33
REMARK                            x       y       z     vdW  Elec       q    Type
REMARK                         _______ _______ _______ _____ _____    ______ ____
ROOT
ATOM     11  C   UNL     1      -1.842   2.624  24.698  0.00  0.00    +0.037 C 
ATOM     12  C   UNL     1      -1.394   2.524  25.383  0.00  0.00    -0.034 C 
ATOM     13  C   UNL     1      -0.844   1.909  25.429  0.00  0.00    -0.048 C 
ATOM     14  C   UNL     1      -0.396   1.808  26.115  0.00  0.00    +0.026 C 
ATOM     15  C   UNL     1      -0.743   1.397  24.791  0.00  0.00    +0.027 C 
ATOM     31  C   UNL     1      -1.192   1.499  24.106  0.00  0.00    +0.005 C 
ATOM     32  C   UNL     1      -1.741   2.112  24.059  0.00  0.00    +0.006 C 
ENDROOT
BRANCH  32  33
ATOM     33  C   UNL     1      -2.190   2.214  23.375  0.00  0.00    +0.000 C 
ATOM     34  C   UNL     1      -2.942   1.881  23.320  0.00  0.00    +0.000 C 
ATOM     35  C   UNL     1      -1.885   2.650  22.744  0.00  0.00    +0.000 C 
ENDBRANCH  32  33
BRANCH  11  10
ATOM     10  C   UNL     1      -2.391   3.239  24.652  0.00  0.00    +0.077 C 
BRANCH  10   5
ATOM      5  N   UNL     1      -2.526   3.723  25.307  0.00  0.00    -0.268 NA
BRANCH   5   4
ATOM      4  C   UNL     1      -3.186   3.596  25.784  0.00  0.00    +0.105 C 
BRANCH   4   3
ATOM      3  C   UNL     1      -3.932   3.842  25.530  0.00  0.00    +0.160 C 
BRANCH   3   2
ATOM      1  C   UNL     1      -5.327   3.541  25.605  0.00  0.00    +0.174 C 
ATOM      2  O   UNL     1      -4.601   3.663  25.978  0.00  0.00    -0.350 OA
ENDBRANCH   3   2
ENDBRANCH   4   3
ENDBRANCH   5   4
BRANCH   5   6
ATOM      6  C   UNL     1      -1.999   4.332  25.483  0.00  0.00    +0.105 C 
BRANCH   6   7
ATOM      7  C   UNL     1      -2.087   5.070  25.124  0.00  0.00    +0.160 C 
BRANCH   7   8
ATOM      8  O   UNL     1      -1.563   5.682  25.305  0.00  0.00    -0.350 OA
ATOM      9  C   UNL     1      -1.084   6.002  24.714  0.00  0.00    +0.174 C 
ENDBRANCH   7   8
ENDBRANCH   6   7
ENDBRANCH   5   6
ENDBRANCH  10   5
ENDBRANCH  11  10
BRANCH  15  16
ATOM     16  C   UNL     1      -0.194   0.784  24.837  0.00  0.00    +0.091 C 
BRANCH  16  17
ATOM     17  C   UNL     1      -0.424   0.010  24.665  0.00  0.00    +0.227 A 
ATOM     18  N   UNL     1       0.056  -0.576  24.336  0.00  0.00    -0.111 NA
ATOM     19  N   UNL     1      -0.396  -1.262  24.260  0.00  0.00    -0.107 NA
ATOM     20  C   UNL     1      -1.154  -1.100  24.541  0.00  0.00    +0.250 A 
ATOM     21  O   UNL     1      -1.171  -0.314  24.792  0.00  0.00    -0.420 OA
BRANCH  20  22
ATOM     22  C   UNL     1      -1.785  -1.632  24.567  0.00  0.00    +0.055 A 
ATOM     23  C   UNL     1      -1.722  -2.366  24.196  0.00  0.00    +0.006 A 
ATOM     24  C   UNL     1      -2.352  -2.897  24.222  0.00  0.00    +0.024 A 
ATOM     25  C   UNL     1      -3.046  -2.694  24.620  0.00  0.00    +0.143 A 
ATOM     26  C   UNL     1      -3.109  -1.960  24.991  0.00  0.00    +0.024 A 
ATOM     27  C   UNL     1      -2.478  -1.428  24.965  0.00  0.00    +0.006 A 
BRANCH  25  28
ATOM     28  N   UNL     1      -3.677  -3.225  24.646  0.00  0.00    +0.058 N 
ATOM     29  O   UNL     1      -4.207  -3.268  24.016  0.00  0.00    -0.126 OA
ATOM     30  O   UNL     1      -3.778  -3.714  25.304  0.00  0.00    -0.126 OA
ENDBRANCH  25  28
ENDBRANCH  20  22
ENDBRANCH  16  17
ENDBRANCH  15  16
TORSDOF 13
ENDMDL
MODEL 5
REMARK VINA RESULT:      -7.0      1.698      6.566
REMARK  Name = 
REMARK  13 active torsions:
REMARK  status: ('A' for Active; 'I' for Inactive)
REMARK    1  A    between atoms: O_2  and  C_3
REMARK    2  A    between atoms: C_3  and  C_4
REMARK    3  A    between atoms: C_4  and  N_5
REMARK    4  A    between atoms: N_5  and  C_6
REMARK    5  A    between atoms: N_5  and  C_10
REMARK    6  A    between atoms: C_6  and  C_7
REMARK    7  A    between atoms: C_7  and  O_8
REMARK    8  A    between atoms: C_10  and  C_11
REMARK    9  A    between atoms: C_15  and  C_16
REMARK   10  A    between atoms: C_16  and  C_17
REMARK   11  A    between atoms: C_20  and  C_22
REMARK   12  A    between atoms: C_25  and  N_28
REMARK   13  A    between atoms: C_32  and  C_33
REMARK                            x       y       z     vdW  Elec       q    Type
REMARK                         _______ _______ _______ _____ _____    ______ ____
ROOT
ATOM     11  C   UNL     1      -2.291   2.037  24.536  0.00  0.00    +0.037 C 
ATOM     12  C   UNL     1      -1.859   1.851  25.214  0.00  0.00    -0.034 C 
ATOM     13  C   UNL     1      -1.406   1.161  25.238  0.00  0.00    -0.048 C 
ATOM     14  C   UNL     1      -0.974   0.976  25.916  0.00  0.00    +0.026 C 
ATOM     15  C   UNL     1      -1.385   0.658  24.585  0.00  0.00    +0.027 C 
ATOM     31  C   UNL     1      -1.818   0.845  23.907  0.00  0.00    +0.005 C 
ATOM     32  C   UNL     1      -2.270   1.533  23.883  0.00  0.00    +0.006 C 
ENDROOT
BRANCH  32  33
ATOM     33  C   UNL     1      -2.703   1.720  23.205  0.00  0.00    +0.000 C 
ATOM     34  C   UNL     1      -3.475   1.445  23.119  0.00  0.00    +0.000 C 
ATOM     35  C   UNL     1      -2.362   2.183  22.613  0.00  0.00    +0.000 C 
ENDBRANCH  32  33
BRANCH  11  10
ATOM     10  C   UNL     1      -2.744   2.726  24.512  0.00  0.00    +0.077 C 
BRANCH  10   5
ATOM      5  N   UNL     1      -2.747   3.241  25.157  0.00  0.00    -0.268 NA
BRANCH   5   4
ATOM      4  C   UNL     1      -3.384   3.241  25.682  0.00  0.00    +0.105 C 
BRANCH   4   3
ATOM      3  C   UNL     1      -4.115   3.540  25.443  0.00  0.00    +0.160 C 
BRANCH   3   2
ATOM      1  C   UNL     1      -5.534   3.479  25.602  0.00  0.00    +0.174 C 
ATOM      2  O   UNL     1      -4.776   3.449  25.927  0.00  0.00    -0.350 OA
ENDBRANCH   3   2
ENDBRANCH   4   3
ENDBRANCH   5   4
BRANCH   5   6
ATOM      6  C   UNL     1      -2.114   3.755  25.276  0.00  0.00    +0.105 C 
BRANCH   6   7
ATOM      7  C   UNL     1      -2.216   4.567  25.169  0.00  0.00    +0.160 C 
BRANCH   7   8
ATOM      8  O   UNL     1      -1.646   5.096  25.448  0.00  0.00    -0.350 OA
ATOM      9  C   UNL     1      -1.115   5.444  24.922  0.00  0.00    +0.174 C 
ENDBRANCH   7   8
ENDBRANCH   6   7
ENDBRANCH   5   6
ENDBRANCH  10   5
ENDBRANCH  11  10
BRANCH  15  16
ATOM     16  C   UNL     1      -0.933  -0.030  24.609  0.00  0.00    +0.091 C 
BRANCH  16  17
ATOM     17  C   UNL     1      -0.344  -0.158  24.046  0.00  0.00    +0.227 A 
ATOM     18  N   UNL     1      -0.391  -0.674  23.403  0.00  0.00    -0.111 NA
ATOM     19  N   UNL     1       0.319  -0.627  22.986  0.00  0.00    -0.107 NA
ATOM     20  C   UNL     1       0.805  -0.083  23.371  0.00  0.00    +0.250 A 
ATOM     21  O   UNL     1       0.396   0.206  24.026  0.00  0.00    -0.420 OA
BRANCH  20  22
ATOM     22  C   UNL     1       1.568   0.133  23.141  0.00  0.00    +0.055 A 
ATOM     23  C   UNL     1       1.905   0.828  23.430  0.00  0.00    +0.006 A 
ATOM     24  C   UNL     1       2.667   1.044  23.200  0.00  0.00    +0.024 A 
ATOM     25  C   UNL     1       3.093   0.564  22.681  0.00  0.00    +0.143 A 
ATOM     26  C   UNL     1       2.756  -0.132  22.392  0.00  0.00    +0.024 A 
ATOM     27  C   UNL     1       1.993  -0.348  22.622  0.00  0.00    +0.006 A 
BRANCH  25  28
ATOM     28  N   UNL     1       3.855   0.779  22.451  0.00  0.00    +0.058 N 
ATOM     29  O   UNL     1       4.041   0.846  21.650  0.00  0.00    -0.126 OA
ATOM     30  O   UNL     1       4.432   0.928  23.022  0.00  0.00    -0.126 OA
ENDBRANCH  25  28
ENDBRANCH  20  22
ENDBRANCH  16  17
ENDBRANCH  15  16
TORSDOF 13
ENDMDL
MODEL 6
REMARK VINA RESULT:      -6.9      2.362      4.399
REMARK  Name = 
REMARK  13 active torsions:
REMARK  status: ('A' for Active; 'I' for Inactive)
REMARK    1  A    between atoms: O_2  and  C_3
REMARK    2  A    between atoms: C_3  and  C_4
REMARK    3  A    between atoms: C_4  and  N_5
REMARK    4  A    between atoms: N_5  and  C_6
REMARK    5  A    between atoms: N_5  and  C_10
REMARK    6  A    between atoms: C_6  and  C_7
REMARK    7  A    between atoms: C_7  and  O_8
REMARK    8  A    between atoms: C_10  and  C_11
REMARK    9  A    between atoms: C_15  and  C_16
REMARK   10  A    between atoms: C_16  and  C_17
REMARK   11  A    between atoms: C_20  and  C_22
REMARK   12  A    between atoms: C_25  and  N_28
REMARK   13  A    between atoms: C_32  and  C_33
REMARK                            x       y       z     vdW  Elec       q    Type
REMARK                         _______ _______ _______ _____ _____    ______ ____
ROOT
ATOM     11  C   UNL     1      -2.451   2.978  24.481  0.00  0.00    +0.037 C 
ATOM     12  C   UNL     1      -2.920   3.168  25.133  0.00  0.00    -0.034 C 
ATOM     13  C   UNL     1      -3.687   2.869  25.190  0.00  0.00    -0.048 C 
ATOM     14  C   UNL     1      -4.156   3.059  25.842  0.00  0.00    +0.026 C 
ATOM     15  C   UNL     1      -3.984   2.380  24.596  0.00  0.00    +0.027 C 
ATOM     31  C   UNL     1      -3.514   2.190  23.945  0.00  0.00    +0.005 C 
ATOM     32  C   UNL     1      -2.748   2.489  23.887  0.00  0.00    +0.006 C 
ENDROOT
BRANCH  32  33
ATOM     33  C   UNL     1      -2.278   2.299  23.236  0.00  0.00    +0.000 C 
ATOM     34  C   UNL     1      -1.750   1.668  23.278  0.00  0.00    +0.000 C 
ATOM     35  C   UNL     1      -2.337   2.742  22.543  0.00  0.00    +0.000 C 
ENDBRANCH  32  33
BRANCH  11  10
ATOM     10  C   UNL     1      -1.683   3.278  24.424  0.00  0.00    +0.077 C 
BRANCH  10   5
ATOM      5  N   UNL     1      -1.298   3.557  25.098  0.00  0.00    -0.268 NA
BRANCH   5   4
ATOM      4  C   UNL     1      -0.920   3.027  25.606  0.00  0.00    +0.105 C 
BRANCH   4   3
ATOM      3  C   UNL     1      -0.114   3.111  25.763  0.00  0.00    +0.160 C 
BRANCH   3   2
ATOM      1  C   UNL     1       0.483   2.433  26.870  0.00  0.00    +0.174 C 
ATOM      2  O   UNL     1       0.316   2.475  26.063  0.00  0.00    -0.350 OA
ENDBRANCH   3   2
ENDBRANCH   4   3
ENDBRANCH   5   4
BRANCH   5   6
ATOM      6  C   UNL     1      -1.291   4.364  25.264  0.00  0.00    +0.105 C 
BRANCH   6   7
ATOM      7  C   UNL     1      -0.889   4.884  24.766  0.00  0.00    +0.160 C 
BRANCH   7   8
ATOM      8  O   UNL     1      -0.806   5.678  24.978  0.00  0.00    -0.350 OA
ATOM      9  C   UNL     1      -1.314   6.245  24.661  0.00  0.00    +0.174 C 
ENDBRANCH   7   8
ENDBRANCH   6   7
ENDBRANCH   5   6
ENDBRANCH  10   5
ENDBRANCH  11  10
BRANCH  15  16
ATOM     16  C   UNL     1      -4.750   2.081  24.653  0.00  0.00    +0.091 C 
BRANCH  16  17
ATOM     17  C   UNL     1      -4.875   1.265  24.687  0.00  0.00    +0.227 A 
ATOM     18  N   UNL     1      -5.605   0.890  24.769  0.00  0.00    -0.111 NA
ATOM     19  N   UNL     1      -5.473   0.076  24.776  0.00  0.00    -0.107 NA
ATOM     20  C   UNL     1      -4.662  -0.052  24.700  0.00  0.00    +0.250 A 
ATOM     21  O   UNL     1      -4.292   0.684  24.644  0.00  0.00    -0.420 OA
BRANCH  20  22
ATOM     22  C   UNL     1      -4.286  -0.786  24.681  0.00  0.00    +0.055 A 
ATOM     23  C   UNL     1      -4.360  -1.272  24.019  0.00  0.00    +0.006 A 
ATOM     24  C   UNL     1      -3.985  -2.006  24.001  0.00  0.00    +0.024 A 
ATOM     25  C   UNL     1      -3.534  -2.255  24.646  0.00  0.00    +0.143 A 
ATOM     26  C   UNL     1      -3.460  -1.769  25.308  0.00  0.00    +0.024 A 
ATOM     27  C   UNL     1      -3.836  -1.035  25.327  0.00  0.00    +0.006 A 
BRANCH  25  28
ATOM     28  N   UNL     1      -3.159  -2.989  24.628  0.00  0.00    +0.058 N 
ATOM     29  O   UNL     1      -3.511  -3.642  24.988  0.00  0.00    -0.126 OA
ATOM     30  O   UNL     1      -2.430  -3.070  24.249  0.00  0.00    -0.126 OA
ENDBRANCH  25  28
ENDBRANCH  20  22
ENDBRANCH  16  17
ENDBRANCH  15  16
TORSDOF 13
ENDMDL
MODEL 7
REMARK VINA RESULT:      -6.8      0.947      1.659
REMARK  Name = 
REMARK  13 active torsions:
REMARK  status: ('A' for Active; 'I' for Inactive)
REMARK    1  A    between atoms: O_2  and  C_3
REMARK    2  A    between atoms: C_3  and  C_4
REMARK    3  A    between atoms: C_4  and  N_5
REMARK    4  A    between atoms: N_5  and  C_6
REMARK    5  A    between atoms: N_5  and  C_10
REMARK    6  A    between atoms: C_6  and  C_7
REMARK    7  A    between atoms: C_7  and  O_8
REMARK    8  A    between atoms: C_10  and  C_11
REMARK    9  A    between atoms: C_15  and  C_16
REMARK   10  A    between atoms: C_16  and  C_17
REMARK   11  A    between atoms: C_20  and  C_22
REMARK   12  A    between atoms: C_25  and  N_28
REMARK   13  A    between atoms: C_32  and  C_33
REMARK                            x       y       z     vdW  Elec       q    Type
REMARK                         _______ _______ _______ _____ _____    ______ ____
ROOT
ATOM     11  C   UNL     1      -0.811   1.511  24.025  0.00  0.00    +0.037 C 
ATOM     12  C   UNL     1      -0.424   1.733  24.719  0.00  0.00    -0.034 C 
ATOM     13  C   UNL     1      -0.658   2.415  25.121  0.00  0.00    -0.048 C 
ATOM     14  C   UNL     1      -0.271   2.637  25.815  0.00  0.00    +0.026 C 
ATOM     15  C   UNL     1      -1.279   2.874  24.830  0.00  0.00    +0.027 C 
ATOM     31  C   UNL     1      -1.666   2.650  24.136  0.00  0.00    +0.005 C 
ATOM     32  C   UNL     1      -1.432   1.970  23.734  0.00  0.00    +0.006 C 
ENDROOT
BRANCH  32  33
ATOM     33  C   UNL     1      -1.819   1.747  23.040  0.00  0.00    +0.000 C 
ATOM     34  C   UNL     1      -1.598   2.080  22.319  0.00  0.00    +0.000 C 
ATOM     35  C   UNL     1      -2.427   1.190  23.068  0.00  0.00    +0.000 C 
ENDBRANCH  32  33
BRANCH  11  10
ATOM     10  C   UNL     1      -0.577   0.829  23.623  0.00  0.00    +0.077 C 
BRANCH  10   5
ATOM      5  N   UNL     1      -0.012   0.328  23.954  0.00  0.00    -0.268 NA
BRANCH   5   4
ATOM      4  C   UNL     1       0.778   0.386  23.721  0.00  0.00    +0.105 C 
BRANCH   4   3
ATOM      3  C   UNL     1       1.035   0.002  23.038  0.00  0.00    +0.160 C 
BRANCH   3   2
ATOM      1  C   UNL     1       2.043  -0.225  22.050  0.00  0.00    +0.174 C 
ATOM      2  O   UNL     1       1.794   0.142  22.746  0.00  0.00    -0.350 OA
ENDBRANCH   3   2
ENDBRANCH   4   3
ENDBRANCH   5   4
BRANCH   5   6
ATOM      6  C   UNL     1      -0.236  -0.230  24.518  0.00  0.00    +0.105 C 
BRANCH   6   7
ATOM      7  C   UNL     1      -0.495  -0.976  24.278  0.00  0.00    +0.160 C 
BRANCH   7   8
ATOM      8  O   UNL     1      -0.737  -1.530  24.842  0.00  0.00    -0.350 OA
ATOM      9  C   UNL     1      -1.315  -2.086  24.651  0.00  0.00    +0.174 C 
ENDBRANCH   7   8
ENDBRANCH   6   7
ENDBRANCH   5   6
ENDBRANCH  10   5
ENDBRANCH  11  10
BRANCH  15  16
ATOM     16  C   UNL     1      -1.512   3.554  25.232  0.00  0.00    +0.091 C 
BRANCH  16  17
ATOM     17  C   UNL     1      -2.298   3.647  25.467  0.00  0.00    +0.227 A 
ATOM     18  N   UNL     1      -2.604   4.283  25.895  0.00  0.00    -0.111 NA
ATOM     19  N   UNL     1      -3.410   4.149  26.008  0.00  0.00    -0.107 NA
ATOM     20  C   UNL     1      -3.602   3.431  25.651  0.00  0.00    +0.250 A 
ATOM     21  O   UNL     1      -2.914   3.120  25.317  0.00  0.00    -0.420 OA
BRANCH  20  22
ATOM     22  C   UNL     1      -4.350   3.083  25.632  0.00  0.00    +0.055 A 
ATOM     23  C   UNL     1      -4.426   2.263  25.678  0.00  0.00    +0.006 A 
ATOM     24  C   UNL     1      -5.174   1.917  25.659  0.00  0.00    +0.024 A 
ATOM     25  C   UNL     1      -5.847   2.390  25.594  0.00  0.00    +0.143 A 
ATOM     26  C   UNL     1      -5.771   3.210  25.548  0.00  0.00    +0.024 A 
ATOM     27  C   UNL     1      -5.022   3.557  25.567  0.00  0.00    +0.006 A 
BRANCH  25  28
ATOM     28  N   UNL     1      -6.595   2.043  25.575  0.00  0.00    +0.058 N 
ATOM     29  O   UNL     1      -6.965   1.822  26.278  0.00  0.00    -0.126 OA
ATOM     30  O   UNL     1      -6.973   1.917  24.852  0.00  0.00    -0.126 OA
ENDBRANCH  25  28
ENDBRANCH  20  22
ENDBRANCH  16  17
ENDBRANCH  15  16
TORSDOF 13
ENDMDL
MODEL 8
REMARK VINA RESULT:      -6.6      2.199      6.656
REMARK  Name = 
REMARK  13 active torsions:
REMARK  status: ('A' for Active; 'I' for Inactive)
REMARK    1  A    between atoms: O_2  and  C_3
REMARK    2  A    between atoms: C_3  and  C_4
REMARK    3  A    between atoms: C_4  and  N_5
REMARK    4  A    between atoms: N_5  and  C_6
REMARK    5  A    between atoms: N_5  and  C_10
REMARK    6  A    between atoms: C_6  and  C_7
REMARK    7  A    between atoms: C_7  and  O_8
REMARK    8  A    between atoms: C_10  and  C_11
REMARK    9  A    between atoms: C_15  and  C_16
REMARK   10  A    between atoms: C_16  and  C_17
REMARK   11  A    between atoms: C_20  and  C_22
REMARK   12  A    between atoms: C_25  and  N_28
REMARK   13  A    between atoms: C_32  and  C_33
REMARK                            x       y       z     vdW  Elec       q    Type
REMARK                         _______ _______ _______ _____ _____    ______ ____
ROOT
ATOM     11  C   UNL     1      -1.894   0.071  24.548  0.00  0.00    +0.037 C 
ATOM     12  C   UNL     1      -2.012   0.659  23.981  0.00  0.00    -0.034 C 
ATOM     13  C   UNL     1      -1.365   1.056  23.657  0.00  0.00    -0.048 C 
ATOM     14  C   UNL     1      -1.483   1.643  23.090  0.00  0.00    +0.026 C 
ATOM     15  C   UNL     1      -0.600   0.866  23.902  0.00  0.00    +0.027 C 
ATOM     31  C   UNL     1      -0.483   0.278  24.469  0.00  0.00    +0.005 C 
ATOM     32  C   UNL     1      -1.129  -0.119  24.792  0.00  0.00    +0.006 C 
ENDROOT
BRANCH  32  33
ATOM     33  C   UNL     1      -1.012  -0.707  25.359  0.00  0.00    +0.000 C 
ATOM     34  C   UNL     1      -1.038  -0.517  26.161  0.00  0.00    +0.000 C 
ATOM     35  C   UNL     1      -0.869  -1.484  25.124  0.00  0.00    +0.000 C 
ENDBRANCH  32  33
BRANCH  11  10
ATOM     10  C   UNL     1      -2.542  -0.326  24.871  0.00  0.00    +0.077 C 
BRANCH  10   5
ATOM      5  N   UNL     1      -3.308  -0.112  24.652  0.00  0.00    -0.268 NA
BRANCH   5   4
ATOM      4  C   UNL     1      -3.723  -0.570  24.104  0.00  0.00    +0.105 C 
BRANCH   4   3
ATOM      3  C   UNL     1      -3.977  -1.327  24.309  0.00  0.00    +0.160 C 
BRANCH   3   2
ATOM      1  C   UNL     1      -4.267  -2.636  23.814  0.00  0.00    +0.174 C 
ATOM      2  O   UNL     1      -4.318  -1.816  23.739  0.00  0.00    -0.350 OA
ENDBRANCH   3   2
ENDBRANCH   4   3
ENDBRANCH   5   4
BRANCH   5   6
ATOM      6  C   UNL     1      -3.659   0.557  24.980  0.00  0.00    +0.105 C 
BRANCH   6   7
ATOM      7  C   UNL     1      -4.481   0.621  25.007  0.00  0.00    +0.160 C 
BRANCH   7   8
ATOM      8  O   UNL     1      -4.834   1.212  25.463  0.00  0.00    -0.350 OA
ATOM      9  C   UNL     1      -5.429   1.683  25.139  0.00  0.00    +0.174 C 
ENDBRANCH   7   8
ENDBRANCH   6   7
ENDBRANCH   5   6
ENDBRANCH  10   5
ENDBRANCH  11  10
BRANCH  15  16
ATOM     16  C   UNL     1       0.046   1.263  23.579  0.00  0.00    +0.091 C 
BRANCH  16  17
ATOM     17  C   UNL     1       0.684   0.836  23.275  0.00  0.00    +0.227 A 
ATOM     18  N   UNL     1       0.642   0.244  22.701  0.00  0.00    -0.111 NA
ATOM     19  N   UNL     1       1.407  -0.031  22.563  0.00  0.00    -0.107 NA
ATOM     20  C   UNL     1       1.921   0.389  23.052  0.00  0.00    +0.250 A 
ATOM     21  O   UNL     1       1.474   0.924  23.492  0.00  0.00    -0.420 OA
BRANCH  20  22
ATOM     22  C   UNL     1       2.740   0.290  23.093  0.00  0.00    +0.055 A 
ATOM     23  C   UNL     1       3.057  -0.426  23.354  0.00  0.00    +0.006 A 
ATOM     24  C   UNL     1       3.874  -0.524  23.396  0.00  0.00    +0.024 A 
ATOM     25  C   UNL     1       4.376   0.093  23.176  0.00  0.00    +0.143 A 
ATOM     26  C   UNL     1       4.059   0.809  22.915  0.00  0.00    +0.024 A 
ATOM     27  C   UNL     1       3.241   0.907  22.874  0.00  0.00    +0.006 A 
BRANCH  25  28
ATOM     28  N   UNL     1       5.194  -0.005  23.217  0.00  0.00    +0.058 N 
ATOM     29  O   UNL     1       5.559  -0.118  23.948  0.00  0.00    -0.126 OA
ATOM     30  O   UNL     1       5.647   0.009  22.527  0.00  0.00    -0.126 OA
ENDBRANCH  25  28
ENDBRANCH  20  22
ENDBRANCH  16  17
ENDBRANCH  15  16
TORSDOF 13
ENDMDL
MODEL 9
REMARK VINA RESULT:      -6.4      1.637      2.699
REMARK  Name = 
REMARK  13 active torsions:
REMARK  status: ('A' for Active; 'I' for Inactive)
REMARK    1  A    between atoms: O_2  and  C_3
REMARK    2  A    between atoms: C_3  and  C_4
REMARK    3  A    between atoms: C_4  and  N_5
REMARK    4  A    between atoms: N_5  and  C_6
REMARK    5  A    between atoms: N_5  and  C_10
REMARK    6  A    between atoms: C_6  and  C_7
REMARK    7  A    between atoms: C_7  and  O_8
REMARK    8  A    between atoms: C_10  and  C_11
REMARK    9  A    between atoms: C_15  and  C_16
REMARK   10  A    between atoms: C_16  and  C_17
REMARK   11  A    between atoms: C_20  and  C_22
REMARK   12  A    between atoms: C_25  and  N_28
REMARK   13  A    between atoms: C_32  and  C_33
REMARK                            x       y       z     vdW  Elec       q    Type
REMARK                         _______ _______ _______ _____ _____    ______ ____
ROOT
ATOM     11  C   UNL     1      -1.215  -0.018  24.280  0.00  0.00    +0.037 C 
ATOM     12  C   UNL     1      -1.571   0.369  23.644  0.00  0.00    -0.034 C 
ATOM     13  C   UNL     1      -2.386   0.307  23.528  0.00  0.00    -0.048 C 
ATOM     14  C   UNL     1      -2.742   0.693  22.892  0.00  0.00    +0.026 C 
ATOM     15  C   UNL     1      -2.844  -0.142  24.048  0.00  0.00    +0.027 C 
ATOM     31  C   UNL     1      -2.487  -0.528  24.684  0.00  0.00    +0.005 C 
ATOM     32  C   UNL     1      -1.673  -0.466  24.800  0.00  0.00    +0.006 C 
ENDROOT
BRANCH  32  33
ATOM     33  C   UNL     1      -1.316  -0.852  25.436  0.00  0.00    +0.000 C 
ATOM     34  C   UNL     1      -1.308  -0.500  26.181  0.00  0.00    +0.000 C 
ATOM     35  C   UNL     1      -0.967  -1.592  25.325  0.00  0.00    +0.000 C 
ENDBRANCH  32  33
BRANCH  11  10
ATOM     10  C   UNL     1      -0.400   0.044  24.396  0.00  0.00    +0.077 C 
BRANCH  10   5
ATOM      5  N   UNL     1       0.045   0.562  23.933  0.00  0.00    -0.268 NA
BRANCH   5   4
ATOM      4  C   UNL     1       0.082   1.362  24.129  0.00  0.00    +0.105 C 
BRANCH   4   3
ATOM      3  C   UNL     1       0.505   1.604  24.795  0.00  0.00    +0.160 C 
BRANCH   3   2
ATOM      1  C   UNL     1       0.358   2.638  25.771  0.00  0.00    +0.174 C 
ATOM      2  O   UNL     1       0.533   2.402  25.000  0.00  0.00    -0.350 OA
ENDBRANCH   3   2
ENDBRANCH   4   3
ENDBRANCH   5   4
BRANCH   5   6
ATOM      6  C   UNL     1       0.451   0.279  23.274  0.00  0.00    +0.105 C 
BRANCH   6   7
ATOM      7  C   UNL     1       1.274   0.220  23.292  0.00  0.00    +0.160 C 
BRANCH   7   8
ATOM      8  O   UNL     1       1.671  -0.196  22.698  0.00  0.00    -0.350 OA
ATOM      9  C   UNL     1       2.408   0.064  22.436  0.00  0.00    +0.174 C 
ENDBRANCH   7   8
ENDBRANCH   6   7
ENDBRANCH   5   6
ENDBRANCH  10   5
ENDBRANCH  11  10
BRANCH  15  16
ATOM     16  C   UNL     1      -3.658  -0.203  23.932  0.00  0.00    +0.091 C 
BRANCH  16  17
ATOM     17  C   UNL     1      -4.177   0.230  24.404  0.00  0.00    +0.227 A 
ATOM     18  N   UNL     1      -4.732  -0.084  24.929  0.00  0.00    -0.111 NA
ATOM     19  N   UNL     1      -5.130   0.545  25.284  0.00  0.00    -0.107 NA
ATOM     20  C   UNL     1      -4.822   1.246  24.980  0.00  0.00    +0.250 A 
ATOM     21  O   UNL     1      -4.233   1.052  24.437  0.00  0.00    -0.420 OA
BRANCH  20  22
ATOM     22  C   UNL     1      -5.061   2.010  25.185  0.00  0.00    +0.055 A 
ATOM     23  C   UNL     1      -5.779   2.127  25.573  0.00  0.00    +0.006 A 
ATOM     24  C   UNL     1      -6.018   2.889  25.777  0.00  0.00    +0.024 A 
ATOM     25  C   UNL     1      -5.539   3.536  25.592  0.00  0.00    +0.143 A 
ATOM     26  C   UNL     1      -4.821   3.418  25.203  0.00  0.00    +0.024 A 
ATOM     27  C   UNL     1      -4.582   2.655  24.999  0.00  0.00    +0.006 A 
BRANCH  25  28
ATOM     28  N   UNL     1      -5.778   4.298  25.796  0.00  0.00    +0.058 N 
ATOM     29  O   UNL     1      -5.217   4.860  26.019  0.00  0.00    -0.126 OA
ATOM     30  O   UNL     1      -6.578   4.499  25.777  0.00  0.00    -0.126 OA
ENDBRANCH  25  28
ENDBRANCH  20  22
ENDBRANCH  16  17
ENDBRANCH  15  16
TORSDOF 13
ENDMDL
