REMARK  Name = 
REMARK  5 active torsions:
REMARK  status: ('A' for Active; 'I' for Inactive)
REMARK    1  A    between atoms: C_2  and  N_4
REMARK    2  A    between atoms: N_4  and  C_5
REMARK    3  A    between atoms: C_8  and  C_9
REMARK    4  A    between atoms: C_9  and  N_10
REMARK    5  A    between atoms: C_11  and  C_13
REMARK                            x       y       z     vdW  Elec       q    Type
REMARK                         _______ _______ _______ _____ _____    ______ ____
ROOT
ATOM      9  C   UNL     1      -2.934  -3.236   0.000  0.00  0.00    +0.148 C 
ENDROOT
BRANCH   9   8
ATOM      5  C   UNL     1      -2.037  -1.299   0.000  0.00  0.00    +0.135 C 
ATOM      6  C   UNL     1      -1.369  -1.784   0.000  0.00  0.00    +0.162 C 
ATOM      7  O   UNL     1      -1.624  -2.569   0.000  0.00  0.00    -0.350 OA
ATOM      8  C   UNL     1      -2.449  -2.569   0.000  0.00  0.00    +0.169 C 
ATOM     20  C   UNL     1      -2.704  -1.784   0.000  0.00  0.00    +0.199 C 
ATOM     21  O   UNL     1      -3.489  -1.529   0.000  0.00  0.00    -0.219 OA
BRANCH   5   4
ATOM      4  N   UNL     1      -2.037  -0.474   0.000  0.00  0.00    -0.216 NA
BRANCH   4   2
ATOM      1  C   UNL     1      -1.322   0.763   0.000  0.00  0.00    +0.019 C 
ATOM      2  C   UNL     1      -1.322  -0.062   0.000  0.00  0.00    +0.073 C 
ATOM      3  C   UNL     1      -0.608  -0.474   0.000  0.00  0.00    +0.019 C 
ENDBRANCH   4   2
ENDBRANCH   5   4
ENDBRANCH   9   8
BRANCH   9  10
ATOM     10  N   UNL     1      -3.755  -3.150   0.000  0.00  0.00    -0.199 NA
ATOM     11  C   UNL     1      -4.239  -3.817   0.000  0.00  0.00    +0.265 C 
ATOM     12  O   UNL     1      -5.060  -3.731   0.000  0.00  0.00    -0.268 OA
BRANCH  11  13
ATOM     13  C   UNL     1      -3.904  -4.571   0.000  0.00  0.00    +0.055 A 
ATOM     14  C   UNL     1      -3.083  -4.657   0.000  0.00  0.00    +0.007 A 
ATOM     15  C   UNL     1      -2.748  -5.411   0.000  0.00  0.00    +0.030 A 
ATOM     16  C   UNL     1      -3.233  -6.078   0.000  0.00  0.00    +0.140 A 
ATOM     17  F   UNL     1      -2.897  -6.832   0.000  0.00  0.00    -0.204 F 
ATOM     18  C   UNL     1      -4.053  -5.992   0.000  0.00  0.00    +0.030 A 
ATOM     19  C   UNL     1      -4.389  -5.238   0.000  0.00  0.00    +0.007 A 
ENDBRANCH  11  13
ENDBRANCH   9  10
TORSDOF 5
