MODEL 1
REMARK VINA RESULT:     -11.2      0.000      0.000
REMARK  Name = 
REMARK  4 active torsions:
REMARK  status: ('A' for Active; 'I' for Inactive)
REMARK    1  A    between atoms: C_4  and  C_25
REMARK    2  A    between atoms: C_6  and  C_7
REMARK    3  A    between atoms: C_14  and  C_15
REMARK    4  A    between atoms: C_15  and  N_16
REMARK                            x       y       z     vdW  Elec       q    Type
REMARK                         _______ _______ _______ _____ _____    ______ ____
ROOT
ATOM      7  C   UNL     1      -0.814   1.329  25.255  0.00  0.00    +0.056 C 
ATOM      8  C   UNL     1      -1.245   0.884  25.726  0.00  0.00    +0.078 C 
ATOM      9  N   UNL     1      -0.858   0.635  25.041  0.00  0.00    -0.272 NA
ATOM     10  C   UNL     1      -0.370   1.471  24.640  0.00  0.00    +0.072 C 
ATOM     11  C   UNL     1       0.007   1.743  24.180  0.00  0.00    +0.018 C 
ATOM     12  C   UNL     1      -0.438   1.077  24.584  0.00  0.00    +0.010 C 
ATOM     13  C   UNL     1      -0.390   0.291  24.196  0.00  0.00    +0.018 C 
ATOM     14  C   UNL     1      -0.804  -0.179  24.632  0.00  0.00    +0.079 C 
ENDROOT
BRANCH   7   6
ATOM      1  C   UNL     1       0.208   1.989  26.575  0.00  0.00    +0.153 C 
ATOM      2  N   UNL     1      -0.265   2.429  26.061  0.00  0.00    -0.253 N 
ATOM      3  N   UNL     1      -0.351   3.249  26.064  0.00  0.00    -0.174 NA
ATOM      4  C   UNL     1      -0.874   3.453  25.460  0.00  0.00    +0.079 A 
ATOM      5  C   UNL     1      -1.111   2.759  25.083  0.00  0.00    +0.031 A 
ATOM      6  C   UNL     1      -0.734   2.126  25.455  0.00  0.00    +0.058 A 
BRANCH   4  25
ATOM     25  C   UNL     1      -1.116   4.218  25.267  0.00  0.00    +0.042 C 
ATOM     26  C   UNL     1      -0.600   4.727  24.874  0.00  0.00    +0.006 C 
ATOM     27  C   UNL     1      -0.844   5.491  24.681  0.00  0.00    +0.000 C 
ATOM     28  C   UNL     1      -1.603   5.746  24.881  0.00  0.00    +0.000 C 
ATOM     29  C   UNL     1      -2.119   5.236  25.273  0.00  0.00    +0.000 C 
ATOM     30  C   UNL     1      -1.876   4.472  25.467  0.00  0.00    +0.006 C 
ENDBRANCH   4  25
ENDBRANCH   7   6
BRANCH  14  15
ATOM     15  C   UNL     1      -1.055  -0.962  24.696  0.00  0.00    +0.133 C 
BRANCH  15  16
ATOM     16  N   UNL     1      -1.831  -1.164  24.501  0.00  0.00    -0.187 NA
ATOM     17  C   UNL     1      -2.080  -1.948  24.562  0.00  0.00    +0.323 C 
ATOM     18  O   UNL     1      -1.554  -2.530  24.818  0.00  0.00    -0.251 OA
ATOM     19  N   UNL     1      -2.855  -2.151  24.366  0.00  0.00    -0.258 N 
ATOM     20  C   UNL     1      -3.105  -2.935  24.427  0.00  0.00    +0.127 C 
ATOM     21  C   UNL     1      -3.880  -3.138  24.231  0.00  0.00    +0.164 C 
ATOM     22  O   UNL     1      -4.406  -2.556  23.974  0.00  0.00    -0.350 OA
ATOM     23  C   UNL     1      -4.156  -1.772  23.914  0.00  0.00    +0.164 C 
ATOM     24  C   UNL     1      -3.382  -1.569  24.109  0.00  0.00    +0.127 C 
ENDBRANCH  15  16
ENDBRANCH  14  15
TORSDOF 4
ENDMDL
MODEL 2
REMARK VINA RESULT:     -10.7      1.922      2.576
REMARK  Name = 
REMARK  4 active torsions:
REMARK  status: ('A' for Active; 'I' for Inactive)
REMARK    1  A    between atoms: C_4  and  C_25
REMARK    2  A    between atoms: C_6  and  C_7
REMARK    3  A    between atoms: C_14  and  C_15
REMARK    4  A    between atoms: C_15  and  N_16
REMARK                            x       y       z     vdW  Elec       q    Type
REMARK                         _______ _______ _______ _____ _____    ______ ____
ROOT
ATOM      7  C   UNL     1      -3.547   2.126  24.833  0.00  0.00    +0.056 C 
ATOM      8  C   UNL     1      -3.620   1.608  25.410  0.00  0.00    +0.078 C 
ATOM      9  N   UNL     1      -3.785   1.476  24.612  0.00  0.00    -0.272 NA
ATOM     10  C   UNL     1      -3.585   2.369  24.102  0.00  0.00    +0.072 C 
ATOM     11  C   UNL     1      -3.563   2.714  23.548  0.00  0.00    +0.018 C 
ATOM     12  C   UNL     1      -3.712   1.988  24.053  0.00  0.00    +0.010 C 
ATOM     13  C   UNL     1      -4.001   1.276  23.629  0.00  0.00    +0.018 C 
ATOM     14  C   UNL     1      -4.086   0.739  24.164  0.00  0.00    +0.079 C 
ENDROOT
BRANCH   7   6
ATOM      1  C   UNL     1      -4.447   3.342  25.802  0.00  0.00    +0.153 C 
ATOM      2  N   UNL     1      -3.693   3.439  25.480  0.00  0.00    -0.253 N 
ATOM      3  N   UNL     1      -3.220   4.111  25.547  0.00  0.00    -0.174 NA
ATOM      4  C   UNL     1      -2.515   3.969  25.144  0.00  0.00    +0.079 A 
ATOM      5  C   UNL     1      -2.552   3.208  24.828  0.00  0.00    +0.031 A 
ATOM      6  C   UNL     1      -3.280   2.880  25.036  0.00  0.00    +0.058 A 
BRANCH   4  25
ATOM     25  C   UNL     1      -1.884   4.495  25.070  0.00  0.00    +0.042 C 
ATOM     26  C   UNL     1      -2.023   5.308  25.071  0.00  0.00    +0.006 C 
ATOM     27  C   UNL     1      -1.391   5.834  24.997  0.00  0.00    +0.000 C 
ATOM     28  C   UNL     1      -0.622   5.547  24.923  0.00  0.00    +0.000 C 
ATOM     29  C   UNL     1      -0.483   4.734  24.922  0.00  0.00    +0.000 C 
ATOM     30  C   UNL     1      -1.114   4.208  24.996  0.00  0.00    +0.006 C 
ENDBRANCH   4  25
ENDBRANCH   7   6
BRANCH  14  15
ATOM     15  C   UNL     1      -4.314  -0.045  24.274  0.00  0.00    +0.133 C 
BRANCH  15  16
ATOM     16  N   UNL     1      -3.743  -0.636  24.349  0.00  0.00    -0.187 NA
ATOM     17  C   UNL     1      -3.958  -1.429  24.276  0.00  0.00    +0.323 C 
ATOM     18  O   UNL     1      -4.743  -1.632  24.128  0.00  0.00    -0.251 OA
ATOM     19  N   UNL     1      -3.386  -2.019  24.352  0.00  0.00    -0.258 N 
ATOM     20  C   UNL     1      -3.600  -2.813  24.279  0.00  0.00    +0.127 C 
ATOM     21  C   UNL     1      -3.029  -3.403  24.355  0.00  0.00    +0.164 C 
ATOM     22  O   UNL     1      -2.243  -3.199  24.503  0.00  0.00    -0.350 OA
ATOM     23  C   UNL     1      -2.029  -2.406  24.575  0.00  0.00    +0.164 C 
ATOM     24  C   UNL     1      -2.600  -1.816  24.500  0.00  0.00    +0.127 C 
ENDBRANCH  15  16
ENDBRANCH  14  15
TORSDOF 4
ENDMDL
MODEL 3
REMARK VINA RESULT:     -10.3      2.022      5.763
REMARK  Name = 
REMARK  4 active torsions:
REMARK  status: ('A' for Active; 'I' for Inactive)
REMARK    1  A    between atoms: C_4  and  C_25
REMARK    2  A    between atoms: C_6  and  C_7
REMARK    3  A    between atoms: C_14  and  C_15
REMARK    4  A    between atoms: C_15  and  N_16
REMARK                            x       y       z     vdW  Elec       q    Type
REMARK                         _______ _______ _______ _____ _____    ______ ____
ROOT
ATOM      7  C   UNL     1      -1.130   0.121  24.827  0.00  0.00    +0.056 C 
ATOM      8  C   UNL     1      -0.922   0.597  24.247  0.00  0.00    +0.078 C 
ATOM      9  N   UNL     1      -0.879   0.763  25.054  0.00  0.00    -0.272 NA
ATOM     10  C   UNL     1      -1.233  -0.081  25.565  0.00  0.00    +0.072 C 
ATOM     11  C   UNL     1      -1.374  -0.390  26.123  0.00  0.00    +0.018 C 
ATOM     12  C   UNL     1      -1.085   0.292  25.617  0.00  0.00    +0.010 C 
ATOM     13  C   UNL     1      -0.811   1.004  26.049  0.00  0.00    +0.018 C 
ATOM     14  C   UNL     1      -0.595   1.501  25.511  0.00  0.00    +0.079 C 
ENDROOT
BRANCH   7   6
ATOM      1  C   UNL     1      -0.155  -1.282  24.274  0.00  0.00    +0.153 C 
ATOM      2  N   UNL     1      -0.975  -1.267  24.364  0.00  0.00    -0.253 N 
ATOM      3  N   UNL     1      -1.491  -1.894  24.216  0.00  0.00    -0.174 NA
ATOM      4  C   UNL     1      -2.258  -1.637  24.379  0.00  0.00    +0.079 A 
ATOM      5  C   UNL     1      -2.216  -0.852  24.627  0.00  0.00    +0.031 A 
ATOM      6  C   UNL     1      -1.423  -0.623  24.618  0.00  0.00    +0.058 A 
BRANCH   4  25
ATOM     25  C   UNL     1      -2.945  -2.087  24.306  0.00  0.00    +0.042 C 
ATOM     26  C   UNL     1      -2.973  -2.851  24.615  0.00  0.00    +0.006 C 
ATOM     27  C   UNL     1      -3.660  -3.300  24.542  0.00  0.00    +0.000 C 
ATOM     28  C   UNL     1      -4.320  -2.986  24.159  0.00  0.00    +0.000 C 
ATOM     29  C   UNL     1      -4.292  -2.222  23.850  0.00  0.00    +0.000 C 
ATOM     30  C   UNL     1      -3.605  -1.772  23.923  0.00  0.00    +0.006 C 
ENDBRANCH   4  25
ENDBRANCH   7   6
BRANCH  14  15
ATOM     15  C   UNL     1      -0.288   2.258  25.405  0.00  0.00    +0.133 C 
BRANCH  15  16
ATOM     16  N   UNL     1      -0.786   2.915  25.436  0.00  0.00    -0.187 NA
ATOM     17  C   UNL     1      -0.529   3.641  25.142  0.00  0.00    +0.323 C 
ATOM     18  O   UNL     1       0.226   3.712  24.817  0.00  0.00    -0.251 OA
ATOM     19  N   UNL     1      -1.028   4.298  25.173  0.00  0.00    -0.258 N 
ATOM     20  C   UNL     1      -0.772   5.025  24.879  0.00  0.00    +0.127 C 
ATOM     21  C   UNL     1      -1.270   5.682  24.909  0.00  0.00    +0.164 C 
ATOM     22  O   UNL     1      -2.025   5.611  25.234  0.00  0.00    -0.350 OA
ATOM     23  C   UNL     1      -2.282   4.884  25.528  0.00  0.00    +0.164 C 
ATOM     24  C   UNL     1      -1.784   4.228  25.497  0.00  0.00    +0.127 C 
ENDBRANCH  15  16
ENDBRANCH  14  15
TORSDOF 4
ENDMDL
MODEL 4
REMARK VINA RESULT:     -10.0      3.081      4.502
REMARK  Name = 
REMARK  4 active torsions:
REMARK  status: ('A' for Active; 'I' for Inactive)
REMARK    1  A    between atoms: C_4  and  C_25
REMARK    2  A    between atoms: C_6  and  C_7
REMARK    3  A    between atoms: C_14  and  C_15
REMARK    4  A    between atoms: C_15  and  N_16
REMARK                            x       y       z     vdW  Elec       q    Type
REMARK                         _______ _______ _______ _____ _____    ______ ____
ROOT
ATOM      7  C   UNL     1      -2.097   1.433  23.846  0.00  0.00    +0.056 C 
ATOM      8  C   UNL     1      -2.044   0.878  23.304  0.00  0.00    +0.078 C 
ATOM      9  N   UNL     1      -1.446   1.112  23.822  0.00  0.00    -0.272 NA
ATOM     10  C   UNL     1      -1.837   1.877  24.422  0.00  0.00    +0.072 C 
ATOM     11  C   UNL     1      -1.767   2.315  24.902  0.00  0.00    +0.018 C 
ATOM     12  C   UNL     1      -1.505   1.657  24.352  0.00  0.00    +0.010 C 
ATOM     13  C   UNL     1      -0.680   1.377  24.451  0.00  0.00    +0.018 C 
ATOM     14  C   UNL     1      -0.586   0.825  23.931  0.00  0.00    +0.079 C 
ENDROOT
BRANCH   7   6
ATOM      1  C   UNL     1      -2.825   2.518  22.615  0.00  0.00    +0.153 C 
ATOM      2  N   UNL     1      -3.153   2.327  23.347  0.00  0.00    -0.253 N 
ATOM      3  N   UNL     1      -3.874   2.600  23.642  0.00  0.00    -0.174 NA
ATOM      4  C   UNL     1      -3.985   2.271  24.390  0.00  0.00    +0.079 A 
ATOM      5  C   UNL     1      -3.333   1.794  24.558  0.00  0.00    +0.031 A 
ATOM      6  C   UNL     1      -2.819   1.829  23.913  0.00  0.00    +0.058 A 
BRANCH   4  25
ATOM     25  C   UNL     1      -4.633   2.397  24.884  0.00  0.00    +0.042 C 
ATOM     26  C   UNL     1      -4.731   3.125  25.259  0.00  0.00    +0.006 C 
ATOM     27  C   UNL     1      -5.380   3.251  25.752  0.00  0.00    +0.000 C 
ATOM     28  C   UNL     1      -5.931   2.649  25.871  0.00  0.00    +0.000 C 
ATOM     29  C   UNL     1      -5.833   1.920  25.496  0.00  0.00    +0.000 C 
ATOM     30  C   UNL     1      -5.185   1.794  25.002  0.00  0.00    +0.006 C 
ENDBRANCH   4  25
ENDBRANCH   7   6
BRANCH  14  15
ATOM     15  C   UNL     1      -0.033   0.288  23.640  0.00  0.00    +0.133 C 
BRANCH  15  16
ATOM     16  N   UNL     1       0.740   0.532  23.488  0.00  0.00    -0.187 NA
ATOM     17  C   UNL     1       1.230   0.074  23.007  0.00  0.00    +0.323 C 
ATOM     18  O   UNL     1       0.947  -0.628  22.679  0.00  0.00    -0.251 OA
ATOM     19  N   UNL     1       2.003   0.318  22.855  0.00  0.00    -0.258 N 
ATOM     20  C   UNL     1       2.493  -0.140  22.375  0.00  0.00    +0.127 C 
ATOM     21  C   UNL     1       3.267   0.105  22.222  0.00  0.00    +0.164 C 
ATOM     22  O   UNL     1       3.549   0.807  22.551  0.00  0.00    -0.350 OA
ATOM     23  C   UNL     1       3.059   1.264  23.031  0.00  0.00    +0.164 C 
ATOM     24  C   UNL     1       2.287   1.021  23.183  0.00  0.00    +0.127 C 
ENDBRANCH  15  16
ENDBRANCH  14  15
TORSDOF 4
ENDMDL
MODEL 5
REMARK VINA RESULT:      -9.7      3.221      5.230
REMARK  Name = 
REMARK  4 active torsions:
REMARK  status: ('A' for Active; 'I' for Inactive)
REMARK    1  A    between atoms: C_4  and  C_25
REMARK    2  A    between atoms: C_6  and  C_7
REMARK    3  A    between atoms: C_14  and  C_15
REMARK    4  A    between atoms: C_15  and  N_16
REMARK                            x       y       z     vdW  Elec       q    Type
REMARK                         _______ _______ _______ _____ _____    ______ ____
ROOT
ATOM      7  C   UNL     1      -0.186   0.553  23.990  0.00  0.00    +0.056 C 
ATOM      8  C   UNL     1       0.198   1.192  23.768  0.00  0.00    +0.078 C 
ATOM      9  N   UNL     1       0.428   0.411  23.627  0.00  0.00    -0.272 NA
ATOM     10  C   UNL     1      -0.302  -0.208  24.054  0.00  0.00    +0.072 C 
ATOM     11  C   UNL     1      -0.535  -0.804  24.187  0.00  0.00    +0.018 C 
ATOM     12  C   UNL     1       0.046  -0.210  23.849  0.00  0.00    +0.010 C 
ATOM     13  C   UNL     1       0.744  -0.546  23.435  0.00  0.00    +0.018 C 
ATOM     14  C   UNL     1       1.151   0.056  23.199  0.00  0.00    +0.079 C 
ENDROOT
BRANCH   7   6
ATOM      1  C   UNL     1      -0.374   1.451  25.533  0.00  0.00    +0.153 C 
ATOM      2  N   UNL     1      -0.977   1.074  25.115  0.00  0.00    -0.253 N 
ATOM      3  N   UNL     1      -1.773   1.043  25.332  0.00  0.00    -0.174 NA
ATOM      4  C   UNL     1      -2.178   0.612  24.758  0.00  0.00    +0.079 A 
ATOM      5  C   UNL     1      -1.633   0.376  24.185  0.00  0.00    +0.031 A 
ATOM      6  C   UNL     1      -0.891   0.661  24.406  0.00  0.00    +0.058 A 
BRANCH   4  25
ATOM     25  C   UNL     1      -2.986   0.446  24.756  0.00  0.00    +0.042 C 
ATOM     26  C   UNL     1      -3.509   0.949  24.365  0.00  0.00    +0.006 C 
ATOM     27  C   UNL     1      -4.317   0.782  24.364  0.00  0.00    +0.000 C 
ATOM     28  C   UNL     1      -4.601   0.113  24.754  0.00  0.00    +0.000 C 
ATOM     29  C   UNL     1      -4.078  -0.389  25.146  0.00  0.00    +0.000 C 
ATOM     30  C   UNL     1      -3.270  -0.223  25.147  0.00  0.00    +0.006 C 
ENDBRANCH   4  25
ENDBRANCH   7   6
BRANCH  14  15
ATOM     15  C   UNL     1       1.840   0.261  22.795  0.00  0.00    +0.133 C 
BRANCH  15  16
ATOM     16  N   UNL     1       2.569  -0.031  23.046  0.00  0.00    -0.187 NA
ATOM     17  C   UNL     1       3.261   0.384  22.874  0.00  0.00    +0.323 C 
ATOM     18  O   UNL     1       3.223   1.092  22.452  0.00  0.00    -0.251 OA
ATOM     19  N   UNL     1       3.990   0.092  23.125  0.00  0.00    -0.258 N 
ATOM     20  C   UNL     1       4.682   0.507  22.954  0.00  0.00    +0.127 C 
ATOM     21  C   UNL     1       5.412   0.214  23.204  0.00  0.00    +0.164 C 
ATOM     22  O   UNL     1       5.449  -0.493  23.627  0.00  0.00    -0.350 OA
ATOM     23  C   UNL     1       4.757  -0.908  23.798  0.00  0.00    +0.164 C 
ATOM     24  C   UNL     1       4.028  -0.616  23.548  0.00  0.00    +0.127 C 
ENDBRANCH  15  16
ENDBRANCH  14  15
TORSDOF 4
ENDMDL
MODEL 6
REMARK VINA RESULT:      -9.1      2.764      6.225
REMARK  Name = 
REMARK  4 active torsions:
REMARK  status: ('A' for Active; 'I' for Inactive)
REMARK    1  A    between atoms: C_4  and  C_25
REMARK    2  A    between atoms: C_6  and  C_7
REMARK    3  A    between atoms: C_14  and  C_15
REMARK    4  A    between atoms: C_15  and  N_16
REMARK                            x       y       z     vdW  Elec       q    Type
REMARK                         _______ _______ _______ _____ _____    ______ ____
ROOT
ATOM      7  C   UNL     1      -3.539   1.202  24.655  0.00  0.00    +0.056 C 
ATOM      8  C   UNL     1      -2.860   1.576  24.720  0.00  0.00    +0.078 C 
ATOM      9  N   UNL     1      -3.596   1.855  24.970  0.00  0.00    -0.272 NA
ATOM     10  C   UNL     1      -4.302   1.115  24.738  0.00  0.00    +0.072 C 
ATOM     11  C   UNL     1      -4.919   0.899  24.736  0.00  0.00    +0.018 C 
ATOM     12  C   UNL     1      -4.258   1.482  24.902  0.00  0.00    +0.010 C 
ATOM     13  C   UNL     1      -4.494   2.232  25.291  0.00  0.00    +0.018 C 
ATOM     14  C   UNL     1      -3.849   2.632  25.374  0.00  0.00    +0.079 C 
ENDROOT
BRANCH   7   6
ATOM      1  C   UNL     1      -3.246   0.856  22.917  0.00  0.00    +0.153 C 
ATOM      2  N   UNL     1      -3.392   0.296  23.505  0.00  0.00    -0.253 N 
ATOM      3  N   UNL     1      -3.430  -0.521  23.398  0.00  0.00    -0.174 NA
ATOM      4  C   UNL     1      -3.587  -0.868  24.130  0.00  0.00    +0.079 A 
ATOM      5  C   UNL     1      -3.647  -0.265  24.689  0.00  0.00    +0.031 A 
ATOM      6  C   UNL     1      -3.527   0.454  24.303  0.00  0.00    +0.058 A 
BRANCH   4  25
ATOM     25  C   UNL     1      -3.670  -1.675  24.276  0.00  0.00    +0.042 C 
ATOM     26  C   UNL     1      -4.202  -2.122  23.832  0.00  0.00    +0.006 C 
ATOM     27  C   UNL     1      -4.284  -2.930  23.979  0.00  0.00    +0.000 C 
ATOM     28  C   UNL     1      -3.834  -3.291  24.569  0.00  0.00    +0.000 C 
ATOM     29  C   UNL     1      -3.302  -2.844  25.012  0.00  0.00    +0.000 C 
ATOM     30  C   UNL     1      -3.219  -2.036  24.866  0.00  0.00    +0.006 C 
ENDBRANCH   4  25
ENDBRANCH   7   6
BRANCH  14  15
ATOM     15  C   UNL     1      -3.555   3.347  25.661  0.00  0.00    +0.133 C 
BRANCH  15  16
ATOM     16  N   UNL     1      -2.812   3.614  25.421  0.00  0.00    -0.187 NA
ATOM     17  C   UNL     1      -2.631   4.418  25.460  0.00  0.00    +0.323 C 
ATOM     18  O   UNL     1      -3.191   4.955  25.740  0.00  0.00    -0.251 OA
ATOM     19  N   UNL     1      -1.888   4.685  25.220  0.00  0.00    -0.258 N 
ATOM     20  C   UNL     1      -1.706   5.489  25.260  0.00  0.00    +0.127 C 
ATOM     21  C   UNL     1      -0.963   5.756  25.019  0.00  0.00    +0.164 C 
ATOM     22  O   UNL     1      -0.402   5.219  24.740  0.00  0.00    -0.350 OA
ATOM     23  C   UNL     1      -0.585   4.415  24.700  0.00  0.00    +0.164 C 
ATOM     24  C   UNL     1      -1.326   4.149  24.940  0.00  0.00    +0.127 C 
ENDBRANCH  15  16
ENDBRANCH  14  15
TORSDOF 4
ENDMDL
