REMARK  Name = 
REMARK  4 active torsions:
REMARK  status: ('A' for Active; 'I' for Inactive)
REMARK    1  A    between atoms: N_4  and  C_5
REMARK    2  A    between atoms: C_5  and  C_6
REMARK    3  A    between atoms: C_9  and  N_10
REMARK    4  A    between atoms: N_10  and  C_11
REMARK                            x       y       z     vdW  Elec       q    Type
REMARK                         _______ _______ _______ _____ _____    ______ ____
ROOT
ATOM      6  C   UNL     1       2.037  -1.299   0.000  0.00  0.00    +0.169 C 
ATOM      7  O   UNL     1       2.704  -1.784   0.000  0.00  0.00    -0.350 OA
ATOM      8  C   UNL     1       2.449  -2.569   0.000  0.00  0.00    +0.162 C 
ATOM      9  C   UNL     1       1.624  -2.569   0.000  0.00  0.00    +0.135 C 
ATOM     20  C   UNL     1       1.369  -1.784   0.000  0.00  0.00    +0.199 C 
ATOM     21  O   UNL     1       0.585  -1.529   0.000  0.00  0.00    -0.219 OA
ENDROOT
BRANCH   6   5
ATOM      5  C   UNL     1       2.037  -0.474   0.000  0.00  0.00    +0.147 C 
BRANCH   5   4
ATOM      1  C   UNL     1       3.466   1.176   0.000  0.00  0.00    +0.096 C 
ATOM      2  C   UNL     1       2.751   0.763   0.000  0.00  0.00    +0.242 C 
ATOM      3  O   UNL     1       2.037   1.176   0.000  0.00  0.00    -0.273 OA
ATOM      4  N   UNL     1       2.751  -0.062   0.000  0.00  0.00    -0.203 NA
ENDBRANCH   5   4
ENDBRANCH   6   5
BRANCH   9  10
ATOM     10  N   UNL     1       1.139  -3.236   0.000  0.00  0.00    -0.216 NA
BRANCH  10  11
ATOM     11  C   UNL     1       0.319  -3.150   0.000  0.00  0.00    +0.076 C 
ATOM     12  C   UNL     1      -0.166  -3.817   0.000  0.00  0.00    +0.039 C 
ATOM     13  C   UNL     1      -0.987  -3.731   0.000  0.00  0.00    +0.095 C 
ATOM     14  N   UNL     1      -1.322  -2.977   0.000  0.00  0.00    -0.279 N 
ATOM     15  C   UNL     1      -0.837  -2.310   0.000  0.00  0.00    +0.095 C 
ATOM     16  C   UNL     1      -0.017  -2.396   0.000  0.00  0.00    +0.039 C 
ATOM     17  C   UNL     1      -2.143  -2.891   0.000  0.00  0.00    +0.226 C 
ATOM     18  C   UNL     1      -2.628  -3.559   0.000  0.00  0.00    +0.095 C 
ATOM     19  O   UNL     1      -2.478  -2.138   0.000  0.00  0.00    -0.275 OA
ENDBRANCH  10  11
ENDBRANCH   9  10
TORSDOF 4
