MODEL 1
REMARK VINA RESULT:     -13.1      0.000      0.000
REMARK  Name = 
REMARK  3 active torsions:
REMARK  status: ('A' for Active; 'I' for Inactive)
REMARK    1  A    between atoms: C_2  and  C_5
REMARK    2  A    between atoms: C_9  and  C_11
REMARK    3  A    between atoms: C_26  and  C_28
REMARK                            x       y       z     vdW  Elec       q    Type
REMARK                         _______ _______ _______ _____ _____    ______ ____
ROOT
ATOM     11  C   UNL     1      -4.102  -0.565  24.579  0.00  0.00    +0.000 A 
ATOM     12  C   UNL     1      -3.520   0.018  24.540  0.00  0.00    +0.006 A 
ATOM     13  C   UNL     1      -3.696   0.791  24.773  0.00  0.00    +0.069 A 
ATOM     14  C   UNL     1      -4.453   0.978  25.043  0.00  0.00    +0.078 A 
ATOM     15  N   UNL     1      -4.741   1.708  25.300  0.00  0.00    -0.178 NA
ATOM     16  C   UNL     1      -4.344   2.429  25.349  0.00  0.00    +0.265 C 
ATOM     17  O   UNL     1      -4.789   3.064  25.630  0.00  0.00    -0.271 OA
ATOM     18  C   UNL     1      -3.561   2.600  25.153  0.00  0.00    +0.174 C 
ATOM     19  C   UNL     1      -3.384   3.395  25.285  0.00  0.00    +0.123 C 
ATOM     20  N   UNL     1      -2.627   3.681  25.124  0.00  0.00    -0.274 N 
ATOM     21  C   UNL     1      -2.047   3.173  24.832  0.00  0.00    +0.115 C 
ATOM     22  C   UNL     1      -2.224   2.377  24.700  0.00  0.00    +0.116 C 
ATOM     23  N   UNL     1      -2.981   2.092  24.861  0.00  0.00    -0.266 N 
ATOM     24  C   UNL     1      -3.042   1.286  24.691  0.00  0.00    +0.251 C 
ATOM     25  O   UNL     1      -2.356   0.929  24.403  0.00  0.00    -0.270 OA
ATOM     26  C   UNL     1      -2.450   4.476  25.256  0.00  0.00    +0.242 C 
ATOM     27  O   UNL     1      -3.030   4.985  25.549  0.00  0.00    -0.273 OA
ATOM     33  C   UNL     1      -5.033   0.394  25.082  0.00  0.00    +0.017 A 
ATOM     34  C   UNL     1      -4.858  -0.378  24.849  0.00  0.00    +0.001 A 
ENDROOT
BRANCH  11   9
ATOM      5  C   UNL     1      -3.058  -2.472  24.377  0.00  0.00    +0.071 A 
ATOM      6  C   UNL     1      -3.575  -2.882  23.883  0.00  0.00    +0.004 A 
ATOM      7  C   UNL     1      -4.269  -2.519  23.620  0.00  0.00    -0.000 A 
ATOM      8  C   UNL     1      -4.444  -1.747  23.852  0.00  0.00    -0.000 A 
ATOM      9  C   UNL     1      -3.927  -1.338  24.347  0.00  0.00    -0.000 A 
ATOM     10  C   UNL     1      -3.233  -1.700  24.610  0.00  0.00    +0.004 A 
BRANCH   5   2
ATOM      1  F   UNL     1      -1.672  -3.196  24.904  0.00  0.00    -0.166 F 
ATOM      2  C   UNL     1      -2.365  -2.834  24.640  0.00  0.00    +0.419 C 
ATOM      3  F   UNL     1      -1.993  -2.638  23.931  0.00  0.00    -0.166 F 
ATOM      4  F   UNL     1      -2.737  -3.030  25.351  0.00  0.00    -0.166 F 
ENDBRANCH   5   2
ENDBRANCH  11   9
BRANCH  26  28
ATOM     28  C   UNL     1      -1.693   4.762  25.096  0.00  0.00    +0.161 C 
ATOM     29  C   UNL     1      -1.509   5.402  24.608  0.00  0.00    +0.086 C 
ATOM     30  S   UNL     1      -0.690   5.494  24.604  0.00  0.00    -0.119 S 
ATOM     31  C   UNL     1      -0.367   4.910  25.091  0.00  0.00    +0.147 C 
ATOM     32  N   UNL     1      -0.986   4.459  25.394  0.00  0.00    -0.198 NA
ENDBRANCH  26  28
TORSDOF 3
ENDMDL
MODEL 2
REMARK VINA RESULT:     -12.1      3.401      6.248
REMARK  Name = 
REMARK  3 active torsions:
REMARK  status: ('A' for Active; 'I' for Inactive)
REMARK    1  A    between atoms: C_2  and  C_5
REMARK    2  A    between atoms: C_9  and  C_11
REMARK    3  A    between atoms: C_26  and  C_28
REMARK                            x       y       z     vdW  Elec       q    Type
REMARK                         _______ _______ _______ _____ _____    ______ ____
ROOT
ATOM     11  C   UNL     1      -0.883   2.953  24.835  0.00  0.00    +0.000 A 
ATOM     12  C   UNL     1      -1.415   2.323  24.848  0.00  0.00    +0.006 A 
ATOM     13  C   UNL     1      -1.147   1.555  24.706  0.00  0.00    +0.069 A 
ATOM     14  C   UNL     1      -0.348   1.419  24.551  0.00  0.00    +0.078 A 
ATOM     15  N   UNL     1       0.031   0.702  24.396  0.00  0.00    -0.178 NA
ATOM     16  C   UNL     1      -0.296  -0.055  24.358  0.00  0.00    +0.265 C 
ATOM     17  O   UNL     1       0.234  -0.665  24.190  0.00  0.00    -0.271 OA
ATOM     18  C   UNL     1      -1.081  -0.282  24.465  0.00  0.00    +0.174 C 
ATOM     19  C   UNL     1      -1.174  -1.098  24.379  0.00  0.00    +0.123 C 
ATOM     20  N   UNL     1      -1.919  -1.439  24.465  0.00  0.00    -0.274 N 
ATOM     21  C   UNL     1      -2.573  -0.967  24.637  0.00  0.00    +0.115 C 
ATOM     22  C   UNL     1      -2.481  -0.150  24.723  0.00  0.00    +0.116 C 
ATOM     23  N   UNL     1      -1.735   0.191  24.637  0.00  0.00    -0.266 N 
ATOM     24  C   UNL     1      -1.764   1.009  24.744  0.00  0.00    +0.251 C 
ATOM     25  O   UNL     1      -2.509   1.321  24.912  0.00  0.00    -0.270 OA
ATOM     26  C   UNL     1      -2.011  -2.255  24.380  0.00  0.00    +0.242 C 
ATOM     27  O   UNL     1      -1.357  -2.728  24.208  0.00  0.00    -0.273 OA
ATOM     33  C   UNL     1       0.183   2.050  24.538  0.00  0.00    +0.017 A 
ATOM     34  C   UNL     1      -0.085   2.817  24.680  0.00  0.00    +0.001 A 
ENDROOT
BRANCH  11   9
ATOM      5  C   UNL     1      -2.144   4.610  25.493  0.00  0.00    +0.071 A 
ATOM      6  C   UNL     1      -1.686   5.255  25.261  0.00  0.00    +0.004 A 
ATOM      7  C   UNL     1      -0.961   5.134  24.886  0.00  0.00    -0.000 A 
ATOM      8  C   UNL     1      -0.693   4.366  24.744  0.00  0.00    -0.000 A 
ATOM      9  C   UNL     1      -1.151   3.721  24.976  0.00  0.00    -0.000 A 
ATOM     10  C   UNL     1      -1.876   3.842  25.351  0.00  0.00    +0.004 A 
BRANCH   5   2
ATOM      1  F   UNL     1      -3.594   4.852  26.243  0.00  0.00    -0.166 F 
ATOM      2  C   UNL     1      -2.869   4.731  25.867  0.00  0.00    +0.419 C 
ATOM      3  F   UNL     1      -3.252   4.695  25.138  0.00  0.00    -0.166 F 
ATOM      4  F   UNL     1      -2.485   4.767  26.598  0.00  0.00    -0.166 F 
ENDBRANCH   5   2
ENDBRANCH  11   9
BRANCH  26  28
ATOM     28  C   UNL     1      -2.757  -2.597  24.466  0.00  0.00    +0.161 C 
ATOM     29  C   UNL     1      -3.305  -2.724  23.862  0.00  0.00    +0.086 C 
ATOM     30  S   UNL     1      -3.973  -3.077  24.193  0.00  0.00    -0.119 S 
ATOM     31  C   UNL     1      -3.837  -3.168  25.002  0.00  0.00    +0.147 C 
ATOM     32  N   UNL     1      -3.087  -2.871  25.170  0.00  0.00    -0.198 NA
ENDBRANCH  26  28
TORSDOF 3
ENDMDL
MODEL 3
REMARK VINA RESULT:     -12.0      1.736      2.602
REMARK  Name = 
REMARK  3 active torsions:
REMARK  status: ('A' for Active; 'I' for Inactive)
REMARK    1  A    between atoms: C_2  and  C_5
REMARK    2  A    between atoms: C_9  and  C_11
REMARK    3  A    between atoms: C_26  and  C_28
REMARK                            x       y       z     vdW  Elec       q    Type
REMARK                         _______ _______ _______ _____ _____    ______ ____
ROOT
ATOM     11  C   UNL     1      -1.992  -1.232  24.733  0.00  0.00    +0.000 A 
ATOM     12  C   UNL     1      -2.191  -0.438  24.840  0.00  0.00    +0.006 A 
ATOM     13  C   UNL     1      -1.612   0.145  24.763  0.00  0.00    +0.069 A 
ATOM     14  C   UNL     1      -0.836  -0.065  24.578  0.00  0.00    +0.078 A 
ATOM     15  N   UNL     1      -0.181   0.426  24.476  0.00  0.00    -0.178 NA
ATOM     16  C   UNL     1      -0.139   1.248  24.534  0.00  0.00    +0.265 C 
ATOM     17  O   UNL     1       0.604   1.579  24.400  0.00  0.00    -0.271 OA
ATOM     18  C   UNL     1      -0.743   1.782  24.708  0.00  0.00    +0.174 C 
ATOM     19  C   UNL     1      -0.466   2.559  24.712  0.00  0.00    +0.123 C 
ATOM     20  N   UNL     1      -0.984   3.180  24.875  0.00  0.00    -0.274 N 
ATOM     21  C   UNL     1      -1.778   3.025  25.034  0.00  0.00    +0.115 C 
ATOM     22  C   UNL     1      -2.056   2.247  25.031  0.00  0.00    +0.116 C 
ATOM     23  N   UNL     1      -1.537   1.627  24.868  0.00  0.00    -0.266 N 
ATOM     24  C   UNL     1      -1.924   0.898  24.892  0.00  0.00    +0.251 C 
ATOM     25  O   UNL     1      -2.730   0.926  25.069  0.00  0.00    -0.270 OA
ATOM     26  C   UNL     1      -0.707   3.958  24.879  0.00  0.00    +0.242 C 
ATOM     27  O   UNL     1       0.088   4.113  24.719  0.00  0.00    -0.273 OA
ATOM     33  C   UNL     1      -0.639  -0.859  24.470  0.00  0.00    +0.017 A 
ATOM     34  C   UNL     1      -1.217  -1.442  24.547  0.00  0.00    +0.001 A 
ENDROOT
BRANCH  11   9
ATOM      5  C   UNL     1      -3.740  -2.472  24.316  0.00  0.00    +0.071 A 
ATOM      6  C   UNL     1      -3.727  -2.982  24.964  0.00  0.00    +0.004 A 
ATOM      7  C   UNL     1      -3.135  -2.909  25.535  0.00  0.00    -0.000 A 
ATOM      8  C   UNL     1      -2.557  -2.326  25.458  0.00  0.00    -0.000 A 
ATOM      9  C   UNL     1      -2.570  -1.815  24.810  0.00  0.00    -0.000 A 
ATOM     10  C   UNL     1      -3.162  -1.888  24.239  0.00  0.00    +0.004 A 
BRANCH   5   2
ATOM      1  F   UNL     1      -4.923  -2.616  23.174  0.00  0.00    -0.166 F 
ATOM      2  C   UNL     1      -4.331  -2.545  23.745  0.00  0.00    +0.419 C 
ATOM      3  F   UNL     1      -3.988  -3.245  23.478  0.00  0.00    -0.166 F 
ATOM      4  F   UNL     1      -4.675  -1.843  24.012  0.00  0.00    -0.166 F 
ENDBRANCH   5   2
ENDBRANCH  11   9
BRANCH  26  28
ATOM     28  C   UNL     1      -1.224   4.579  25.041  0.00  0.00    +0.161 C 
ATOM     29  C   UNL     1      -1.320   5.262  24.588  0.00  0.00    +0.086 C 
ATOM     30  S   UNL     1      -1.892   5.732  24.952  0.00  0.00    -0.119 S 
ATOM     31  C   UNL     1      -2.150   5.339  25.631  0.00  0.00    +0.147 C 
ATOM     32  N   UNL     1      -1.737   4.627  25.685  0.00  0.00    -0.198 NA
ENDBRANCH  26  28
TORSDOF 3
ENDMDL
MODEL 4
REMARK VINA RESULT:     -11.6      3.463      4.795
REMARK  Name = 
REMARK  3 active torsions:
REMARK  status: ('A' for Active; 'I' for Inactive)
REMARK    1  A    between atoms: C_2  and  C_5
REMARK    2  A    between atoms: C_9  and  C_11
REMARK    3  A    between atoms: C_26  and  C_28
REMARK                            x       y       z     vdW  Elec       q    Type
REMARK                         _______ _______ _______ _____ _____    ______ ____
ROOT
ATOM     11  C   UNL     1      -4.212   0.800  25.091  0.00  0.00    +0.000 A 
ATOM     12  C   UNL     1      -3.488   0.958  24.730  0.00  0.00    +0.006 A 
ATOM     13  C   UNL     1      -2.890   0.388  24.739  0.00  0.00    +0.069 A 
ATOM     14  C   UNL     1      -3.018  -0.338  25.109  0.00  0.00    +0.078 A 
ATOM     15  N   UNL     1      -2.501  -0.977  25.181  0.00  0.00    -0.178 NA
ATOM     16  C   UNL     1      -1.728  -1.047  24.901  0.00  0.00    +0.265 C 
ATOM     17  O   UNL     1      -1.352  -1.763  25.063  0.00  0.00    -0.271 OA
ATOM     18  C   UNL     1      -1.282  -0.496  24.479  0.00  0.00    +0.174 C 
ATOM     19  C   UNL     1      -0.529  -0.787  24.304  0.00  0.00    +0.123 C 
ATOM     20  N   UNL     1       0.006  -0.321  23.885  0.00  0.00    -0.274 N 
ATOM     21  C   UNL     1      -0.210   0.436  23.639  0.00  0.00    +0.115 C 
ATOM     22  C   UNL     1      -0.962   0.729  23.814  0.00  0.00    +0.116 C 
ATOM     23  N   UNL     1      -1.497   0.262  24.234  0.00  0.00    -0.266 N 
ATOM     24  C   UNL     1      -2.214   0.655  24.350  0.00  0.00    +0.251 C 
ATOM     25  O   UNL     1      -2.259   1.416  24.034  0.00  0.00    -0.270 OA
ATOM     26  C   UNL     1       0.758  -0.612  23.710  0.00  0.00    +0.242 C 
ATOM     27  O   UNL     1       0.974  -1.370  23.955  0.00  0.00    -0.273 OA
ATOM     33  C   UNL     1      -3.743  -0.495  25.470  0.00  0.00    +0.017 A 
ATOM     34  C   UNL     1      -4.341   0.074  25.461  0.00  0.00    +0.001 A 
ENDROOT
BRANCH  11   9
ATOM      5  C   UNL     1      -5.254   2.702  25.345  0.00  0.00    +0.071 A 
ATOM      6  C   UNL     1      -6.004   2.508  25.064  0.00  0.00    +0.004 A 
ATOM      7  C   UNL     1      -6.158   1.744  24.791  0.00  0.00    -0.000 A 
ATOM      8  C   UNL     1      -5.560   1.175  24.800  0.00  0.00    -0.000 A 
ATOM      9  C   UNL     1      -4.810   1.369  25.082  0.00  0.00    -0.000 A 
ATOM     10  C   UNL     1      -4.656   2.133  25.354  0.00  0.00    +0.004 A 
BRANCH   5   2
ATOM      1  F   UNL     1      -4.946   4.228  25.892  0.00  0.00    -0.166 F 
ATOM      2  C   UNL     1      -5.100   3.465  25.618  0.00  0.00    +0.419 C 
ATOM      3  F   UNL     1      -4.971   3.717  24.843  0.00  0.00    -0.166 F 
ATOM      4  F   UNL     1      -5.229   3.214  26.394  0.00  0.00    -0.166 F 
ENDBRANCH   5   2
ENDBRANCH  11   9
BRANCH  26  28
ATOM     28  C   UNL     1       1.293  -0.146  23.290  0.00  0.00    +0.161 C 
ATOM     29  C   UNL     1       1.568  -0.292  22.525  0.00  0.00    +0.086 C 
ATOM     30  S   UNL     1       2.092   0.312  22.323  0.00  0.00    -0.119 S 
ATOM     31  C   UNL     1       2.142   0.831  22.963  0.00  0.00    +0.147 C 
ATOM     32  N   UNL     1       1.648   0.548  23.559  0.00  0.00    -0.198 NA
ENDBRANCH  26  28
TORSDOF 3
ENDMDL
MODEL 5
REMARK VINA RESULT:     -11.0      3.377      4.912
REMARK  Name = 
REMARK  3 active torsions:
REMARK  status: ('A' for Active; 'I' for Inactive)
REMARK    1  A    between atoms: C_2  and  C_5
REMARK    2  A    between atoms: C_9  and  C_11
REMARK    3  A    between atoms: C_26  and  C_28
REMARK                            x       y       z     vdW  Elec       q    Type
REMARK                         _______ _______ _______ _____ _____    ______ ____
ROOT
ATOM     11  C   UNL     1      -3.599   3.421  25.540  0.00  0.00    +0.000 A 
ATOM     12  C   UNL     1      -3.190   2.844  25.116  0.00  0.00    +0.006 A 
ATOM     13  C   UNL     1      -2.364   2.842  25.113  0.00  0.00    +0.069 A 
ATOM     14  C   UNL     1      -1.949   3.417  25.533  0.00  0.00    +0.078 A 
ATOM     15  N   UNL     1      -1.133   3.514  25.602  0.00  0.00    -0.178 NA
ATOM     16  C   UNL     1      -0.530   3.060  25.268  0.00  0.00    +0.265 C 
ATOM     17  O   UNL     1       0.239   3.301  25.443  0.00  0.00    -0.271 OA
ATOM     18  C   UNL     1      -0.596   2.396  24.783  0.00  0.00    +0.174 C 
ATOM     19  C   UNL     1       0.146   2.105  24.568  0.00  0.00    +0.123 C 
ATOM     20  N   UNL     1       0.204   1.442  24.082  0.00  0.00    -0.274 N 
ATOM     21  C   UNL     1      -0.479   1.068  23.810  0.00  0.00    +0.115 C 
ATOM     22  C   UNL     1      -1.222   1.359  24.025  0.00  0.00    +0.116 C 
ATOM     23  N   UNL     1      -1.279   2.023  24.511  0.00  0.00    -0.266 N 
ATOM     24  C   UNL     1      -2.067   2.222  24.658  0.00  0.00    +0.251 C 
ATOM     25  O   UNL     1      -2.630   1.735  24.303  0.00  0.00    -0.270 OA
ATOM     26  C   UNL     1       0.946   1.150  23.868  0.00  0.00    +0.242 C 
ATOM     27  O   UNL     1       1.630   1.524  24.140  0.00  0.00    -0.273 OA
ATOM     33  C   UNL     1      -2.358   3.994  25.957  0.00  0.00    +0.017 A 
ATOM     34  C   UNL     1      -3.184   3.997  25.960  0.00  0.00    +0.001 A 
ENDROOT
BRANCH  11   9
ATOM      5  C   UNL     1      -5.662   2.741  25.750  0.00  0.00    +0.071 A 
ATOM      6  C   UNL     1      -6.074   3.427  25.550  0.00  0.00    +0.004 A 
ATOM      7  C   UNL     1      -5.660   4.112  25.346  0.00  0.00    -0.000 A 
ATOM      8  C   UNL     1      -4.835   4.110  25.343  0.00  0.00    -0.000 A 
ATOM      9  C   UNL     1      -4.424   3.424  25.543  0.00  0.00    -0.000 A 
ATOM     10  C   UNL     1      -4.837   2.739  25.747  0.00  0.00    +0.004 A 
BRANCH   5   2
ATOM      1  F   UNL     1      -6.488   1.372  26.157  0.00  0.00    -0.166 F 
ATOM      2  C   UNL     1      -6.075   2.057  25.954  0.00  0.00    +0.419 C 
ATOM      3  F   UNL     1      -6.028   2.264  26.751  0.00  0.00    -0.166 F 
ATOM      4  F   UNL     1      -6.123   1.848  25.157  0.00  0.00    -0.166 F 
ENDBRANCH   5   2
ENDBRANCH  11   9
BRANCH  26  28
ATOM     28  C   UNL     1       1.004   0.487  23.382  0.00  0.00    +0.161 C 
ATOM     29  C   UNL     1       1.414   0.443  22.667  0.00  0.00    +0.086 C 
ATOM     30  S   UNL     1       1.325  -0.320  22.367  0.00  0.00    -0.119 S 
ATOM     31  C   UNL     1       0.860  -0.749  22.898  0.00  0.00    +0.147 C 
ATOM     32  N   UNL     1       0.662  -0.250  23.524  0.00  0.00    -0.198 NA
ENDBRANCH  26  28
TORSDOF 3
ENDMDL
MODEL 6
REMARK VINA RESULT:     -10.8      3.062      5.759
REMARK  Name = 
REMARK  3 active torsions:
REMARK  status: ('A' for Active; 'I' for Inactive)
REMARK    1  A    between atoms: C_2  and  C_5
REMARK    2  A    between atoms: C_9  and  C_11
REMARK    3  A    between atoms: C_26  and  C_28
REMARK                            x       y       z     vdW  Elec       q    Type
REMARK                         _______ _______ _______ _____ _____    ______ ____
ROOT
ATOM     11  C   UNL     1      -3.122   3.609  25.006  0.00  0.00    +0.000 A 
ATOM     12  C   UNL     1      -2.857   2.828  24.977  0.00  0.00    +0.006 A 
ATOM     13  C   UNL     1      -3.394   2.215  24.848  0.00  0.00    +0.069 A 
ATOM     14  C   UNL     1      -4.195   2.383  24.748  0.00  0.00    +0.078 A 
ATOM     15  N   UNL     1      -4.818   1.858  24.614  0.00  0.00    -0.178 NA
ATOM     16  C   UNL     1      -4.793   1.036  24.547  0.00  0.00    +0.265 C 
ATOM     17  O   UNL     1      -5.517   0.665  24.412  0.00  0.00    -0.271 OA
ATOM     18  C   UNL     1      -4.139   0.536  24.597  0.00  0.00    +0.174 C 
ATOM     19  C   UNL     1      -4.355  -0.255  24.499  0.00  0.00    +0.123 C 
ATOM     20  N   UNL     1      -3.781  -0.846  24.530  0.00  0.00    -0.274 N 
ATOM     21  C   UNL     1      -2.992  -0.648  24.660  0.00  0.00    +0.115 C 
ATOM     22  C   UNL     1      -2.774   0.142  24.759  0.00  0.00    +0.116 C 
ATOM     23  N   UNL     1      -3.349   0.733  24.727  0.00  0.00    -0.266 N 
ATOM     24  C   UNL     1      -3.017   1.481  24.839  0.00  0.00    +0.251 C 
ATOM     25  O   UNL     1      -2.201   1.497  24.957  0.00  0.00    -0.270 OA
ATOM     26  C   UNL     1      -3.998  -1.636  24.432  0.00  0.00    +0.242 C 
ATOM     27  O   UNL     1      -4.789  -1.834  24.302  0.00  0.00    -0.273 OA
ATOM     33  C   UNL     1      -4.460   3.164  24.777  0.00  0.00    +0.017 A 
ATOM     34  C   UNL     1      -3.923   3.777  24.906  0.00  0.00    +0.001 A 
ENDROOT
BRANCH  11   9
ATOM      5  C   UNL     1      -1.293   4.797  24.935  0.00  0.00    +0.071 A 
ATOM      6  C   UNL     1      -1.511   5.448  25.393  0.00  0.00    +0.004 A 
ATOM      7  C   UNL     1      -2.268   5.485  25.722  0.00  0.00    -0.000 A 
ATOM      8  C   UNL     1      -2.804   4.872  25.592  0.00  0.00    -0.000 A 
ATOM      9  C   UNL     1      -2.586   4.222  25.135  0.00  0.00    -0.000 A 
ATOM     10  C   UNL     1      -1.829   4.184  24.806  0.00  0.00    +0.004 A 
BRANCH   5   2
ATOM      1  F   UNL     1       0.219   4.722  24.276  0.00  0.00    -0.166 F 
ATOM      2  C   UNL     1      -0.537   4.760  24.606  0.00  0.00    +0.419 C 
ATOM      3  F   UNL     1      -0.311   4.217  25.185  0.00  0.00    -0.166 F 
ATOM      4  F   UNL     1      -0.762   5.302  24.026  0.00  0.00    -0.166 F 
ENDBRANCH   5   2
ENDBRANCH  11   9
BRANCH  26  28
ATOM     28  C   UNL     1      -3.424  -2.228  24.463  0.00  0.00    +0.161 C 
ATOM     29  C   UNL     1      -3.302  -2.753  25.088  0.00  0.00    +0.086 C 
ATOM     30  S   UNL     1      -2.674  -3.248  24.887  0.00  0.00    -0.119 S 
ATOM     31  C   UNL     1      -2.407  -3.029  24.137  0.00  0.00    +0.147 C 
ATOM     32  N   UNL     1      -2.871  -2.399  23.876  0.00  0.00    -0.198 NA
ENDBRANCH  26  28
TORSDOF 3
ENDMDL
MODEL 7
REMARK VINA RESULT:     -10.6      3.669      4.326
REMARK  Name = 
REMARK  3 active torsions:
REMARK  status: ('A' for Active; 'I' for Inactive)
REMARK    1  A    between atoms: C_2  and  C_5
REMARK    2  A    between atoms: C_9  and  C_11
REMARK    3  A    between atoms: C_26  and  C_28
REMARK                            x       y       z     vdW  Elec       q    Type
REMARK                         _______ _______ _______ _____ _____    ______ ____
ROOT
ATOM     11  C   UNL     1      -2.287  -0.463  24.846  0.00  0.00    +0.000 A 
ATOM     12  C   UNL     1      -1.544  -0.595  24.515  0.00  0.00    +0.006 A 
ATOM     13  C   UNL     1      -1.026   0.038  24.398  0.00  0.00    +0.069 A 
ATOM     14  C   UNL     1      -1.253   0.801  24.613  0.00  0.00    +0.078 A 
ATOM     15  N   UNL     1      -0.825   1.503  24.545  0.00  0.00    -0.178 NA
ATOM     16  C   UNL     1      -0.064   1.615  24.245  0.00  0.00    +0.265 C 
ATOM     17  O   UNL     1       0.213   2.392  24.252  0.00  0.00    -0.271 OA
ATOM     18  C   UNL     1       0.456   1.052  23.939  0.00  0.00    +0.174 C 
ATOM     19  C   UNL     1       1.165   1.397  23.697  0.00  0.00    +0.123 C 
ATOM     20  N   UNL     1       1.762   0.929  23.374  0.00  0.00    -0.274 N 
ATOM     21  C   UNL     1       1.651   0.116  23.292  0.00  0.00    +0.115 C 
ATOM     22  C   UNL     1       0.941  -0.230  23.534  0.00  0.00    +0.116 C 
ATOM     23  N   UNL     1       0.344   0.239  23.858  0.00  0.00    -0.266 N 
ATOM     24  C   UNL     1      -0.316  -0.213  24.062  0.00  0.00    +0.251 C 
ATOM     25  O   UNL     1      -0.257  -1.021  23.910  0.00  0.00    -0.270 OA
ATOM     26  C   UNL     1       2.472   1.274  23.132  0.00  0.00    +0.242 C 
ATOM     27  O   UNL     1       2.583   2.088  23.214  0.00  0.00    -0.273 OA
ATOM     33  C   UNL     1      -1.997   0.932  24.945  0.00  0.00    +0.017 A 
ATOM     34  C   UNL     1      -2.514   0.300  25.061  0.00  0.00    +0.001 A 
ENDROOT
BRANCH  11   9
ATOM      5  C   UNL     1      -3.782  -2.004  24.452  0.00  0.00    +0.071 A 
ATOM      6  C   UNL     1      -3.840  -2.359  25.195  0.00  0.00    +0.004 A 
ATOM      7  C   UNL     1      -3.380  -2.081  25.822  0.00  0.00    -0.000 A 
ATOM      8  C   UNL     1      -2.863  -1.449  25.705  0.00  0.00    -0.000 A 
ATOM      9  C   UNL     1      -2.805  -1.095  24.963  0.00  0.00    -0.000 A 
ATOM     10  C   UNL     1      -3.264  -1.373  24.335  0.00  0.00    +0.004 A 
BRANCH   5   2
ATOM      1  F   UNL     1      -4.701  -2.558  23.198  0.00  0.00    -0.166 F 
ATOM      2  C   UNL     1      -4.241  -2.282  23.825  0.00  0.00    +0.419 C 
ATOM      3  F   UNL     1      -3.795  -2.975  23.804  0.00  0.00    -0.166 F 
ATOM      4  F   UNL     1      -4.689  -1.588  23.847  0.00  0.00    -0.166 F 
ENDBRANCH   5   2
ENDBRANCH  11   9
BRANCH  26  28
ATOM     28  C   UNL     1       3.069   0.806  22.809  0.00  0.00    +0.161 C 
ATOM     29  C   UNL     1       3.777   0.600  23.179  0.00  0.00    +0.086 C 
ATOM     30  S   UNL     1       4.209   0.128  22.658  0.00  0.00    -0.119 S 
ATOM     31  C   UNL     1       3.768   0.043  21.966  0.00  0.00    +0.147 C 
ATOM     32  N   UNL     1       3.063   0.462  22.060  0.00  0.00    -0.198 NA
ENDBRANCH  26  28
TORSDOF 3
ENDMDL
MODEL 8
REMARK VINA RESULT:     -10.5      3.980      5.373
REMARK  Name = 
REMARK  3 active torsions:
REMARK  status: ('A' for Active; 'I' for Inactive)
REMARK    1  A    between atoms: C_2  and  C_5
REMARK    2  A    between atoms: C_9  and  C_11
REMARK    3  A    between atoms: C_26  and  C_28
REMARK                            x       y       z     vdW  Elec       q    Type
REMARK                         _______ _______ _______ _____ _____    ______ ____
ROOT
ATOM     11  C   UNL     1      -2.761   1.743  24.661  0.00  0.00    +0.000 A 
ATOM     12  C   UNL     1      -1.993   1.832  24.374  0.00  0.00    +0.006 A 
ATOM     13  C   UNL     1      -1.516   1.168  24.262  0.00  0.00    +0.069 A 
ATOM     14  C   UNL     1      -1.807   0.417  24.438  0.00  0.00    +0.078 A 
ATOM     15  N   UNL     1      -1.426  -0.312  24.367  0.00  0.00    -0.178 NA
ATOM     16  C   UNL     1      -0.660  -0.468  24.103  0.00  0.00    +0.265 C 
ATOM     17  O   UNL     1      -0.439  -1.263  24.097  0.00  0.00    -0.271 OA
ATOM     18  C   UNL     1      -0.086   0.065  23.845  0.00  0.00    +0.174 C 
ATOM     19  C   UNL     1       0.610  -0.322  23.628  0.00  0.00    +0.123 C 
ATOM     20  N   UNL     1       1.255   0.112  23.354  0.00  0.00    -0.274 N 
ATOM     21  C   UNL     1       1.205   0.933  23.295  0.00  0.00    +0.115 C 
ATOM     22  C   UNL     1       0.509   1.321  23.512  0.00  0.00    +0.116 C 
ATOM     23  N   UNL     1      -0.135   0.886  23.787  0.00  0.00    -0.266 N 
ATOM     24  C   UNL     1      -0.773   1.377  23.973  0.00  0.00    +0.251 C 
ATOM     25  O   UNL     1      -0.649   2.184  23.853  0.00  0.00    -0.270 OA
ATOM     26  C   UNL     1       1.951  -0.276  23.137  0.00  0.00    +0.242 C 
ATOM     27  O   UNL     1       2.000  -1.098  23.196  0.00  0.00    -0.273 OA
ATOM     33  C   UNL     1      -2.575   0.328  24.725  0.00  0.00    +0.017 A 
ATOM     34  C   UNL     1      -3.053   0.992  24.837  0.00  0.00    +0.001 A 
ENDROOT
BRANCH  11   9
ATOM      5  C   UNL     1      -3.539   3.610  25.483  0.00  0.00    +0.071 A 
ATOM      6  C   UNL     1      -4.194   3.734  24.997  0.00  0.00    +0.004 A 
ATOM      7  C   UNL     1      -4.371   3.194  24.399  0.00  0.00    -0.000 A 
ATOM      8  C   UNL     1      -3.894   2.530  24.287  0.00  0.00    -0.000 A 
ATOM      9  C   UNL     1      -3.239   2.407  24.773  0.00  0.00    -0.000 A 
ATOM     10  C   UNL     1      -3.061   2.947  25.372  0.00  0.00    +0.004 A 
BRANCH   5   2
ATOM      1  F   UNL     1      -3.182   4.690  26.680  0.00  0.00    -0.166 F 
ATOM      2  C   UNL     1      -3.361   4.149  26.082  0.00  0.00    +0.419 C 
ATOM      3  F   UNL     1      -3.902   3.776  26.580  0.00  0.00    -0.166 F 
ATOM      4  F   UNL     1      -2.820   4.524  25.583  0.00  0.00    -0.166 F 
ENDBRANCH   5   2
ENDBRANCH  11   9
BRANCH  26  28
ATOM     28  C   UNL     1       2.596   0.158  22.862  0.00  0.00    +0.161 C 
ATOM     29  C   UNL     1       2.880   0.167  22.088  0.00  0.00    +0.086 C 
ATOM     30  S   UNL     1       3.530   0.674  22.059  0.00  0.00    -0.119 S 
ATOM     31  C   UNL     1       3.647   0.979  22.817  0.00  0.00    +0.147 C 
ATOM     32  N   UNL     1       3.070   0.661  23.313  0.00  0.00    -0.198 NA
ENDBRANCH  26  28
TORSDOF 3
ENDMDL
MODEL 9
REMARK VINA RESULT:      -9.8      3.829      4.814
REMARK  Name = 
REMARK  3 active torsions:
REMARK  status: ('A' for Active; 'I' for Inactive)
REMARK    1  A    between atoms: C_2  and  C_5
REMARK    2  A    between atoms: C_9  and  C_11
REMARK    3  A    between atoms: C_26  and  C_28
REMARK                            x       y       z     vdW  Elec       q    Type
REMARK                         _______ _______ _______ _____ _____    ______ ____
ROOT
ATOM     11  C   UNL     1       0.869  -0.148  23.259  0.00  0.00    +0.000 A 
ATOM     12  C   UNL     1       0.322   0.466  23.326  0.00  0.00    +0.006 A 
ATOM     13  C   UNL     1      -0.358   0.363  23.783  0.00  0.00    +0.069 A 
ATOM     14  C   UNL     1      -0.489  -0.352  24.172  0.00  0.00    +0.078 A 
ATOM     15  N   UNL     1      -1.126  -0.567  24.652  0.00  0.00    -0.178 NA
ATOM     16  C   UNL     1      -1.787  -0.120  24.861  0.00  0.00    +0.265 C 
ATOM     17  O   UNL     1      -2.331  -0.495  25.354  0.00  0.00    -0.271 OA
ATOM     18  C   UNL     1      -1.975   0.652  24.641  0.00  0.00    +0.174 C 
ATOM     19  C   UNL     1      -2.692   0.894  24.973  0.00  0.00    +0.123 C 
ATOM     20  N   UNL     1      -2.982   1.650  24.822  0.00  0.00    -0.274 N 
ATOM     21  C   UNL     1      -2.556   2.167  24.340  0.00  0.00    +0.115 C 
ATOM     22  C   UNL     1      -1.839   1.926  24.008  0.00  0.00    +0.116 C 
ATOM     23  N   UNL     1      -1.550   1.169  24.159  0.00  0.00    -0.266 N 
ATOM     24  C   UNL     1      -0.830   1.040  23.777  0.00  0.00    +0.251 C 
ATOM     25  O   UNL     1      -0.544   1.671  23.330  0.00  0.00    -0.270 OA
ATOM     26  C   UNL     1      -3.698   1.892  25.153  0.00  0.00    +0.242 C 
ATOM     27  O   UNL     1      -4.124   1.375  25.635  0.00  0.00    -0.273 OA
ATOM     33  C   UNL     1       0.058  -0.965  24.105  0.00  0.00    +0.017 A 
ATOM     34  C   UNL     1       0.737  -0.864  23.648  0.00  0.00    +0.001 A 
ENDROOT
BRANCH  11   9
ATOM      5  C   UNL     1       2.900   0.400  22.677  0.00  0.00    +0.071 A 
ATOM      6  C   UNL     1       2.907   0.158  21.889  0.00  0.00    +0.004 A 
ATOM      7  C   UNL     1       2.234  -0.187  21.556  0.00  0.00    -0.000 A 
ATOM      8  C   UNL     1       1.555  -0.289  22.013  0.00  0.00    -0.000 A 
ATOM      9  C   UNL     1       1.548  -0.047  22.802  0.00  0.00    -0.000 A 
ATOM     10  C   UNL     1       2.221   0.298  23.134  0.00  0.00    +0.004 A 
BRANCH   5   2
ATOM      1  F   UNL     1       4.245   1.088  23.341  0.00  0.00    -0.166 F 
ATOM      2  C   UNL     1       3.572   0.744  23.009  0.00  0.00    +0.419 C 
ATOM      3  F   UNL     1       3.221   1.488  22.951  0.00  0.00    -0.166 F 
ATOM      4  F   UNL     1       3.925  -0.000  23.067  0.00  0.00    -0.166 F 
ENDBRANCH   5   2
ENDBRANCH  11   9
BRANCH  26  28
ATOM     28  C   UNL     1      -3.988   2.649  25.002  0.00  0.00    +0.161 C 
ATOM     29  C   UNL     1      -4.510   2.856  24.397  0.00  0.00    +0.086 C 
ATOM     30  S   UNL     1      -4.652   3.667  24.449  0.00  0.00    -0.119 S 
ATOM     31  C   UNL     1      -4.217   3.961  25.087  0.00  0.00    +0.147 C 
ATOM     32  N   UNL     1      -3.807   3.332  25.427  0.00  0.00    -0.198 NA
ENDBRANCH  26  28
TORSDOF 3
ENDMDL
MODEL 10
REMARK VINA RESULT:      -9.6     14.493     15.880
REMARK  Name = 
REMARK  3 active torsions:
REMARK  status: ('A' for Active; 'I' for Inactive)
REMARK    1  A    between atoms: C_2  and  C_5
REMARK    2  A    between atoms: C_9  and  C_11
REMARK    3  A    between atoms: C_26  and  C_28
REMARK                            x       y       z     vdW  Elec       q    Type
REMARK                         _______ _______ _______ _____ _____    ______ ____
ROOT
ATOM     11  C   UNL     1      -4.852 -10.481  16.806  0.00  0.00    +0.000 A 
ATOM     12  C   UNL     1      -4.889 -10.389  15.987  0.00  0.00    +0.006 A 
ATOM     13  C   UNL     1      -4.201 -10.453  15.534  0.00  0.00    +0.069 A 
ATOM     14  C   UNL     1      -3.479 -10.609  15.900  0.00  0.00    +0.078 A 
ATOM     15  N   UNL     1      -2.735 -10.694  15.553  0.00  0.00    -0.178 NA
ATOM     16  C   UNL     1      -2.529 -10.643  14.756  0.00  0.00    +0.265 C 
ATOM     17  O   UNL     1      -1.731 -10.755  14.584  0.00  0.00    -0.271 OA
ATOM     18  C   UNL     1      -3.018 -10.496  14.108  0.00  0.00    +0.174 C 
ATOM     19  C   UNL     1      -2.589 -10.491  13.402  0.00  0.00    +0.123 C 
ATOM     20  N   UNL     1      -2.975 -10.353  12.687  0.00  0.00    -0.274 N 
ATOM     21  C   UNL     1      -3.789 -10.220  12.675  0.00  0.00    +0.115 C 
ATOM     22  C   UNL     1      -4.218 -10.224  13.381  0.00  0.00    +0.116 C 
ATOM     23  N   UNL     1      -3.831 -10.362  14.096  0.00  0.00    -0.266 N 
ATOM     24  C   UNL     1      -4.358 -10.343  14.731  0.00  0.00    +0.251 C 
ATOM     25  O   UNL     1      -5.147 -10.195  14.538  0.00  0.00    -0.270 OA
ATOM     26  C   UNL     1      -2.547 -10.349  11.981  0.00  0.00    +0.242 C 
ATOM     27  O   UNL     1      -1.732 -10.482  11.993  0.00  0.00    -0.273 OA
ATOM     33  C   UNL     1      -3.443 -10.701  16.719  0.00  0.00    +0.017 A 
ATOM     34  C   UNL     1      -4.129 -10.637  17.172  0.00  0.00    +0.001 A 
ENDROOT
BRANCH  11   9
ATOM      5  C   UNL     1      -6.870  -9.925  17.425  0.00  0.00    +0.071 A 
ATOM      6  C   UNL     1      -6.912 -10.289  18.164  0.00  0.00    +0.004 A 
ATOM      7  C   UNL     1      -6.267 -10.717  18.451  0.00  0.00    -0.000 A 
ATOM      8  C   UNL     1      -5.580 -10.781  17.998  0.00  0.00    -0.000 A 
ATOM      9  C   UNL     1      -5.538 -10.417  17.259  0.00  0.00    -0.000 A 
ATOM     10  C   UNL     1      -6.183  -9.989  16.972  0.00  0.00    +0.004 A 
BRANCH   5   2
ATOM      1  F   UNL     1      -8.158  -9.067  16.853  0.00  0.00    -0.166 F 
ATOM      2  C   UNL     1      -7.514  -9.497  17.139  0.00  0.00    +0.419 C 
ATOM      3  F   UNL     1      -7.820 -10.183  16.800  0.00  0.00    -0.166 F 
ATOM      4  F   UNL     1      -7.208  -8.809  17.479  0.00  0.00    -0.166 F 
ENDBRANCH   5   2
ENDBRANCH  11   9
BRANCH  26  28
ATOM     28  C   UNL     1      -2.932 -10.211  11.266  0.00  0.00    +0.161 C 
ATOM     29  C   UNL     1      -3.029  -9.477  10.900  0.00  0.00    +0.086 C 
ATOM     30  S   UNL     1      -3.446  -9.594  10.198  0.00  0.00    -0.119 S 
ATOM     31  C   UNL     1      -3.607 -10.401  10.130  0.00  0.00    +0.147 C 
ATOM     32  N   UNL     1      -3.290 -10.781  10.789  0.00  0.00    -0.198 NA
ENDBRANCH  26  28
TORSDOF 3
ENDMDL
