MODEL 1
REMARK VINA RESULT:      -9.3      0.000      0.000
REMARK  Name = 
REMARK  7 active torsions:
REMARK  status: ('A' for Active; 'I' for Inactive)
REMARK    1  A    between atoms: C_2  and  C_4
REMARK    2  A    between atoms: C_4  and  C_5
REMARK    3  A    between atoms: C_10  and  C_11
REMARK    4  A    between atoms: C_11  and  C_12
REMARK    5  A    between atoms: C_12  and  N_13
REMARK    6  A    between atoms: C_16  and  N_19
REMARK    7  A    between atoms: N_31  and  C_32
REMARK                            x       y       z     vdW  Elec       q    Type
REMARK                         _______ _______ _______ _____ _____    ______ ____
ROOT
ATOM      5  C   UNL     1      -3.245   0.287  24.694  0.00  0.00    +0.015 C 
ATOM      6  C   UNL     1      -3.959   0.658  24.878  0.00  0.00    +0.022 C 
ATOM      7  C   UNL     1      -3.998   1.481  24.916  0.00  0.00    +0.095 C 
ATOM      8  N   UNL     1      -3.324   1.933  24.770  0.00  0.00    -0.263 N 
ATOM      9  C   UNL     1      -2.611   1.563  24.585  0.00  0.00    +0.095 C 
ATOM     10  C   UNL     1      -2.571   0.740  24.548  0.00  0.00    +0.022 C 
ATOM     29  C   UNL     1      -3.363   2.757  24.807  0.00  0.00    +0.327 C 
ATOM     30  O   UNL     1      -2.689   3.209  24.661  0.00  0.00    -0.250 OA
ATOM     31  N   UNL     1      -4.077   3.128  24.992  0.00  0.00    -0.162 NA
ENDROOT
BRANCH  31  32
ATOM     32  C   UNL     1      -4.752   2.675  25.138  0.00  0.00    +0.075 A 
ATOM     33  C   UNL     1      -4.956   2.479  25.913  0.00  0.00    +0.017 A 
ATOM     34  C   UNL     1      -5.630   2.027  26.060  0.00  0.00    +0.001 A 
ATOM     35  C   UNL     1      -6.100   1.771  25.432  0.00  0.00    +0.000 A 
ATOM     36  C   UNL     1      -5.896   1.968  24.657  0.00  0.00    +0.001 A 
ATOM     37  C   UNL     1      -5.222   2.420  24.511  0.00  0.00    +0.017 A 
ENDBRANCH  31  32
BRANCH   5   4
ATOM      4  C   UNL     1      -3.206  -0.536  24.656  0.00  0.00    +0.114 C 
BRANCH   4   2
ATOM      1  O   UNL     1      -3.976  -1.216  25.649  0.00  0.00    -0.246 OA
ATOM      2  C   UNL     1      -3.862  -0.990  24.864  0.00  0.00    +0.365 C 
ATOM      3  O   UNL     1      -4.406  -1.218  24.287  0.00  0.00    -0.246 OA
ENDBRANCH   4   2
ENDBRANCH   5   4
BRANCH  10  11
ATOM     11  C   UNL     1      -1.857   0.369  24.363  0.00  0.00    +0.019 C 
BRANCH  11  12
ATOM     12  C   UNL     1      -1.143   0.754  24.511  0.00  0.00    +0.072 C 
BRANCH  12  13
ATOM     13  N   UNL     1      -0.484   0.595  24.040  0.00  0.00    -0.273 NA
ATOM     14  C   UNL     1      -0.134  -0.152  24.060  0.00  0.00    +0.074 C 
ATOM     15  C   UNL     1       0.525  -0.311  23.589  0.00  0.00    +0.040 C 
ATOM     16  C   UNL     1       0.833   0.277  23.098  0.00  0.00    +0.093 C 
ATOM     17  C   UNL     1       0.482   1.023  23.079  0.00  0.00    +0.040 C 
ATOM     18  C   UNL     1      -0.176   1.182  23.550  0.00  0.00    +0.074 C 
BRANCH  16  19
ATOM     19  N   UNL     1       1.492   0.118  22.628  0.00  0.00    -0.280 N 
ATOM     20  C   UNL     1       1.497  -0.335  21.938  0.00  0.00    +0.350 A 
ATOM     21  O   UNL     1       0.844  -0.708  21.598  0.00  0.00    -0.244 OA
ATOM     22  N   UNL     1       2.269  -0.349  21.648  0.00  0.00    -0.191 NA
ATOM     23  C   UNL     1       2.741   0.094  22.159  0.00  0.00    +0.102 A 
ATOM     24  C   UNL     1       2.260   0.382  22.764  0.00  0.00    +0.082 A 
ATOM     25  C   UNL     1       2.586   0.849  23.362  0.00  0.00    +0.019 A 
ATOM     26  C   UNL     1       3.391   1.028  23.354  0.00  0.00    +0.002 A 
ATOM     27  C   UNL     1       3.871   0.739  22.748  0.00  0.00    +0.002 A 
ATOM     28  C   UNL     1       3.547   0.272  22.150  0.00  0.00    +0.021 A 
ENDBRANCH  16  19
ENDBRANCH  12  13
ENDBRANCH  11  12
ENDBRANCH  10  11
TORSDOF 7
ENDMDL
MODEL 2
REMARK VINA RESULT:      -9.1      2.000      3.127
REMARK  Name = 
REMARK  7 active torsions:
REMARK  status: ('A' for Active; 'I' for Inactive)
REMARK    1  A    between atoms: C_2  and  C_4
REMARK    2  A    between atoms: C_4  and  C_5
REMARK    3  A    between atoms: C_10  and  C_11
REMARK    4  A    between atoms: C_11  and  C_12
REMARK    5  A    between atoms: C_12  and  N_13
REMARK    6  A    between atoms: C_16  and  N_19
REMARK    7  A    between atoms: N_31  and  C_32
REMARK                            x       y       z     vdW  Elec       q    Type
REMARK                         _______ _______ _______ _____ _____    ______ ____
ROOT
ATOM      5  C   UNL     1      -1.451   0.696  24.065  0.00  0.00    +0.015 C 
ATOM      6  C   UNL     1      -2.199   0.422  24.282  0.00  0.00    +0.022 C 
ATOM      7  C   UNL     1      -2.305  -0.371  24.484  0.00  0.00    +0.095 C 
ATOM      8  N   UNL     1      -1.663  -0.890  24.468  0.00  0.00    -0.263 N 
ATOM      9  C   UNL     1      -0.916  -0.616  24.251  0.00  0.00    +0.095 C 
ATOM     10  C   UNL     1      -0.810   0.177  24.050  0.00  0.00    +0.022 C 
ATOM     29  C   UNL     1      -1.769  -1.682  24.670  0.00  0.00    +0.327 C 
ATOM     30  O   UNL     1      -1.128  -2.202  24.655  0.00  0.00    -0.250 OA
ATOM     31  N   UNL     1      -2.516  -1.957  24.887  0.00  0.00    -0.162 NA
ENDROOT
BRANCH  31  32
ATOM     32  C   UNL     1      -3.158  -1.438  24.903  0.00  0.00    +0.075 A 
ATOM     33  C   UNL     1      -3.332  -1.019  25.592  0.00  0.00    +0.017 A 
ATOM     34  C   UNL     1      -3.974  -0.500  25.609  0.00  0.00    +0.001 A 
ATOM     35  C   UNL     1      -4.441  -0.401  24.935  0.00  0.00    +0.000 A 
ATOM     36  C   UNL     1      -4.266  -0.820  24.247  0.00  0.00    +0.001 A 
ATOM     37  C   UNL     1      -3.625  -1.339  24.231  0.00  0.00    +0.017 A 
ENDBRANCH  31  32
BRANCH   5   4
ATOM      4  C   UNL     1      -1.345   1.489  23.863  0.00  0.00    +0.114 C 
BRANCH   4   2
ATOM      1  O   UNL     1      -2.482   2.171  23.330  0.00  0.00    -0.246 OA
ATOM      2  C   UNL     1      -1.966   2.024  23.956  0.00  0.00    +0.365 C 
ATOM      3  O   UNL     1      -2.071   2.413  24.676  0.00  0.00    -0.246 OA
ENDBRANCH   4   2
ENDBRANCH   5   4
BRANCH  10  11
ATOM     11  C   UNL     1      -0.063   0.451  23.832  0.00  0.00    +0.019 C 
BRANCH  11  12
ATOM     12  C   UNL     1       0.341   0.097  23.206  0.00  0.00    +0.072 C 
BRANCH  12  13
ATOM     13  N   UNL     1       1.158   0.186  23.139  0.00  0.00    -0.273 NA
ATOM     14  C   UNL     1       1.550   0.752  23.594  0.00  0.00    +0.074 C 
ATOM     15  C   UNL     1       2.368   0.841  23.526  0.00  0.00    +0.040 C 
ATOM     16  C   UNL     1       2.793   0.364  23.005  0.00  0.00    +0.093 C 
ATOM     17  C   UNL     1       2.401  -0.202  22.550  0.00  0.00    +0.040 C 
ATOM     18  C   UNL     1       1.584  -0.291  22.617  0.00  0.00    +0.074 C 
BRANCH  16  19
ATOM     19  N   UNL     1       3.610   0.454  22.938  0.00  0.00    -0.280 N 
ATOM     20  C   UNL     1       4.000   1.043  22.511  0.00  0.00    +0.350 A 
ATOM     21  O   UNL     1       3.641   1.646  22.077  0.00  0.00    -0.244 OA
ATOM     22  N   UNL     1       4.812   0.923  22.595  0.00  0.00    -0.191 NA
ATOM     23  C   UNL     1       4.923   0.260  23.073  0.00  0.00    +0.102 A 
ATOM     24  C   UNL     1       4.181  -0.030  23.284  0.00  0.00    +0.082 A 
ATOM     25  C   UNL     1       4.121  -0.697  23.766  0.00  0.00    +0.019 A 
ATOM     26  C   UNL     1       4.803  -1.074  24.036  0.00  0.00    +0.002 A 
ATOM     27  C   UNL     1       5.545  -0.784  23.824  0.00  0.00    +0.002 A 
ATOM     28  C   UNL     1       5.606  -0.117  23.343  0.00  0.00    +0.021 A 
ENDBRANCH  16  19
ENDBRANCH  12  13
ENDBRANCH  11  12
ENDBRANCH  10  11
TORSDOF 7
ENDMDL
MODEL 3
REMARK VINA RESULT:      -8.8      1.605      2.453
REMARK  Name = 
REMARK  7 active torsions:
REMARK  status: ('A' for Active; 'I' for Inactive)
REMARK    1  A    between atoms: C_2  and  C_4
REMARK    2  A    between atoms: C_4  and  C_5
REMARK    3  A    between atoms: C_10  and  C_11
REMARK    4  A    between atoms: C_11  and  C_12
REMARK    5  A    between atoms: C_12  and  N_13
REMARK    6  A    between atoms: C_16  and  N_19
REMARK    7  A    between atoms: N_31  and  C_32
REMARK                            x       y       z     vdW  Elec       q    Type
REMARK                         _______ _______ _______ _____ _____    ______ ____
ROOT
ATOM      5  C   UNL     1      -1.126  -0.394  24.494  0.00  0.00    +0.015 C 
ATOM      6  C   UNL     1      -1.945  -0.360  24.595  0.00  0.00    +0.022 C 
ATOM      7  C   UNL     1      -2.378   0.252  24.251  0.00  0.00    +0.095 C 
ATOM      8  N   UNL     1      -1.992   0.830  23.806  0.00  0.00    -0.263 N 
ATOM      9  C   UNL     1      -1.175   0.797  23.705  0.00  0.00    +0.095 C 
ATOM     10  C   UNL     1      -0.742   0.185  24.049  0.00  0.00    +0.022 C 
ATOM     29  C   UNL     1      -2.426   1.442  23.462  0.00  0.00    +0.327 C 
ATOM     30  O   UNL     1      -2.041   2.021  23.017  0.00  0.00    -0.250 OA
ATOM     31  N   UNL     1      -3.244   1.476  23.563  0.00  0.00    -0.162 NA
ENDROOT
BRANCH  31  32
ATOM     32  C   UNL     1      -3.629   0.898  24.008  0.00  0.00    +0.075 A 
ATOM     33  C   UNL     1      -3.776   1.025  24.810  0.00  0.00    +0.017 A 
ATOM     34  C   UNL     1      -4.162   0.447  25.256  0.00  0.00    +0.001 A 
ATOM     35  C   UNL     1      -4.400  -0.258  24.899  0.00  0.00    +0.000 A 
ATOM     36  C   UNL     1      -4.253  -0.385  24.097  0.00  0.00    +0.001 A 
ATOM     37  C   UNL     1      -3.868   0.194  23.652  0.00  0.00    +0.017 A 
ENDBRANCH  31  32
BRANCH   5   4
ATOM      4  C   UNL     1      -0.693  -1.006  24.838  0.00  0.00    +0.114 C 
BRANCH   4   2
ATOM      1  O   UNL     1      -1.177  -1.405  26.121  0.00  0.00    -0.246 OA
ATOM      2  C   UNL     1      -1.072  -1.559  25.319  0.00  0.00    +0.365 C 
ATOM      3  O   UNL     1      -1.345  -2.268  24.995  0.00  0.00    -0.246 OA
ENDBRANCH   4   2
ENDBRANCH   5   4
BRANCH  10  11
ATOM     11  C   UNL     1       0.077   0.151  23.948  0.00  0.00    +0.019 C 
BRANCH  11  12
ATOM     12  C   UNL     1       0.412   0.364  23.225  0.00  0.00    +0.072 C 
BRANCH  12  13
ATOM     13  N   UNL     1       1.233   0.393  23.144  0.00  0.00    -0.273 NA
ATOM     14  C   UNL     1       1.672   0.933  23.586  0.00  0.00    +0.074 C 
ATOM     15  C   UNL     1       2.493   0.962  23.505  0.00  0.00    +0.040 C 
ATOM     16  C   UNL     1       2.874   0.451  22.981  0.00  0.00    +0.093 C 
ATOM     17  C   UNL     1       2.434  -0.089  22.539  0.00  0.00    +0.040 C 
ATOM     18  C   UNL     1       1.614  -0.118  22.620  0.00  0.00    +0.074 C 
BRANCH  16  19
ATOM     19  N   UNL     1       3.694   0.480  22.900  0.00  0.00    -0.280 N 
ATOM     20  C   UNL     1       4.117   1.015  22.435  0.00  0.00    +0.350 A 
ATOM     21  O   UNL     1       3.793   1.613  21.969  0.00  0.00    -0.244 OA
ATOM     22  N   UNL     1       4.919   0.845  22.517  0.00  0.00    -0.191 NA
ATOM     23  C   UNL     1       4.993   0.206  23.033  0.00  0.00    +0.102 A 
ATOM     24  C   UNL     1       4.236  -0.019  23.270  0.00  0.00    +0.082 A 
ATOM     25  C   UNL     1       4.138  -0.651  23.792  0.00  0.00    +0.019 A 
ATOM     26  C   UNL     1       4.797  -1.057  24.077  0.00  0.00    +0.002 A 
ATOM     27  C   UNL     1       5.554  -0.831  23.840  0.00  0.00    +0.002 A 
ATOM     28  C   UNL     1       5.653  -0.200  23.318  0.00  0.00    +0.021 A 
ENDBRANCH  16  19
ENDBRANCH  12  13
ENDBRANCH  11  12
ENDBRANCH  10  11
TORSDOF 7
ENDMDL
MODEL 4
REMARK VINA RESULT:      -8.4      0.779      2.077
REMARK  Name = 
REMARK  7 active torsions:
REMARK  status: ('A' for Active; 'I' for Inactive)
REMARK    1  A    between atoms: C_2  and  C_4
REMARK    2  A    between atoms: C_4  and  C_5
REMARK    3  A    between atoms: C_10  and  C_11
REMARK    4  A    between atoms: C_11  and  C_12
REMARK    5  A    between atoms: C_12  and  N_13
REMARK    6  A    between atoms: C_16  and  N_19
REMARK    7  A    between atoms: N_31  and  C_32
REMARK                            x       y       z     vdW  Elec       q    Type
REMARK                         _______ _______ _______ _____ _____    ______ ____
ROOT
ATOM      5  C   UNL     1      -2.361   2.393  25.071  0.00  0.00    +0.015 C 
ATOM      6  C   UNL     1      -3.160   2.553  25.198  0.00  0.00    +0.022 C 
ATOM      7  C   UNL     1      -3.730   1.992  24.998  0.00  0.00    +0.095 C 
ATOM      8  N   UNL     1      -3.501   1.270  24.670  0.00  0.00    -0.263 N 
ATOM      9  C   UNL     1      -2.702   1.110  24.542  0.00  0.00    +0.095 C 
ATOM     10  C   UNL     1      -2.132   1.672  24.742  0.00  0.00    +0.022 C 
ATOM     29  C   UNL     1      -4.071   0.709  24.469  0.00  0.00    +0.327 C 
ATOM     30  O   UNL     1      -3.843  -0.013  24.141  0.00  0.00    -0.250 OA
ATOM     31  N   UNL     1      -4.871   0.869  24.597  0.00  0.00    -0.162 NA
ENDROOT
BRANCH  31  32
ATOM     32  C   UNL     1      -5.100   1.590  24.925  0.00  0.00    +0.075 A 
ATOM     33  C   UNL     1      -5.238   1.649  25.736  0.00  0.00    +0.017 A 
ATOM     34  C   UNL     1      -5.468   2.370  26.065  0.00  0.00    +0.001 A 
ATOM     35  C   UNL     1      -5.559   3.033  25.582  0.00  0.00    +0.000 A 
ATOM     36  C   UNL     1      -5.421   2.974  24.771  0.00  0.00    +0.001 A 
ATOM     37  C   UNL     1      -5.191   2.253  24.443  0.00  0.00    +0.017 A 
ENDBRANCH  31  32
BRANCH   5   4
ATOM      4  C   UNL     1      -1.790   2.955  25.271  0.00  0.00    +0.114 C 
BRANCH   4   2
ATOM      1  O   UNL     1      -2.109   4.313  24.964  0.00  0.00    -0.246 OA
ATOM      2  C   UNL     1      -2.022   3.708  25.517  0.00  0.00    +0.365 C 
ATOM      3  O   UNL     1      -2.166   3.854  26.316  0.00  0.00    -0.246 OA
ENDBRANCH   4   2
ENDBRANCH   5   4
BRANCH  10  11
ATOM     11  C   UNL     1      -1.333   1.512  24.615  0.00  0.00    +0.019 C 
BRANCH  11  12
ATOM     12  C   UNL     1      -1.081   0.735  24.500  0.00  0.00    +0.072 C 
BRANCH  12  13
ATOM     13  N   UNL     1      -0.423   0.579  24.026  0.00  0.00    -0.273 NA
ATOM     14  C   UNL     1      -0.091   1.183  23.572  0.00  0.00    +0.074 C 
ATOM     15  C   UNL     1       0.567   1.028  23.098  0.00  0.00    +0.040 C 
ATOM     16  C   UNL     1       0.892   0.270  23.079  0.00  0.00    +0.093 C 
ATOM     17  C   UNL     1       0.559  -0.333  23.534  0.00  0.00    +0.040 C 
ATOM     18  C   UNL     1      -0.098  -0.178  24.007  0.00  0.00    +0.074 C 
BRANCH  16  19
ATOM     19  N   UNL     1       1.549   0.115  22.606  0.00  0.00    -0.280 N 
ATOM     20  C   UNL     1       1.551  -0.327  21.908  0.00  0.00    +0.350 A 
ATOM     21  O   UNL     1       0.897  -0.692  21.564  0.00  0.00    -0.244 OA
ATOM     22  N   UNL     1       2.323  -0.340  21.618  0.00  0.00    -0.191 NA
ATOM     23  C   UNL     1       2.797   0.094  22.134  0.00  0.00    +0.102 A 
ATOM     24  C   UNL     1       2.319   0.375  22.745  0.00  0.00    +0.082 A 
ATOM     25  C   UNL     1       2.647   0.832  23.348  0.00  0.00    +0.019 A 
ATOM     26  C   UNL     1       3.453   1.007  23.342  0.00  0.00    +0.002 A 
ATOM     27  C   UNL     1       3.931   0.726  22.732  0.00  0.00    +0.002 A 
ATOM     28  C   UNL     1       3.604   0.269  22.128  0.00  0.00    +0.021 A 
ENDBRANCH  16  19
ENDBRANCH  12  13
ENDBRANCH  11  12
ENDBRANCH  10  11
TORSDOF 7
ENDMDL
MODEL 5
REMARK VINA RESULT:      -7.4     14.652     15.956
REMARK  Name = 
REMARK  7 active torsions:
REMARK  status: ('A' for Active; 'I' for Inactive)
REMARK    1  A    between atoms: C_2  and  C_4
REMARK    2  A    between atoms: C_4  and  C_5
REMARK    3  A    between atoms: C_10  and  C_11
REMARK    4  A    between atoms: C_11  and  C_12
REMARK    5  A    between atoms: C_12  and  N_13
REMARK    6  A    between atoms: C_16  and  N_19
REMARK    7  A    between atoms: N_31  and  C_32
REMARK                            x       y       z     vdW  Elec       q    Type
REMARK                         _______ _______ _______ _____ _____    ______ ____
ROOT
ATOM      5  C   UNL     1      -6.867 -10.070  15.350  0.00  0.00    +0.015 C 
ATOM      6  C   UNL     1      -7.294 -10.078  16.056  0.00  0.00    +0.022 C 
ATOM      7  C   UNL     1      -8.117 -10.025  16.041  0.00  0.00    +0.095 C 
ATOM      8  N   UNL     1      -8.513  -9.965  15.319  0.00  0.00    -0.263 N 
ATOM      9  C   UNL     1      -8.086  -9.958  14.614  0.00  0.00    +0.095 C 
ATOM     10  C   UNL     1      -7.263 -10.011  14.629  0.00  0.00    +0.022 C 
ATOM     29  C   UNL     1      -9.336  -9.913  15.304  0.00  0.00    +0.327 C 
ATOM     30  O   UNL     1      -9.733  -9.853  14.583  0.00  0.00    -0.250 OA
ATOM     31  N   UNL     1      -9.764  -9.920  16.010  0.00  0.00    -0.162 NA
ENDROOT
BRANCH  31  32
ATOM     32  C   UNL     1      -9.368  -9.980  16.731  0.00  0.00    +0.075 A 
ATOM     33  C   UNL     1      -9.126  -9.298  17.126  0.00  0.00    +0.017 A 
ATOM     34  C   UNL     1      -8.730  -9.356  17.848  0.00  0.00    +0.001 A 
ATOM     35  C   UNL     1      -8.577 -10.099  18.174  0.00  0.00    +0.000 A 
ATOM     36  C   UNL     1      -8.819 -10.781  17.779  0.00  0.00    +0.001 A 
ATOM     37  C   UNL     1      -9.214 -10.721  17.058  0.00  0.00    +0.017 A 
ENDBRANCH  31  32
BRANCH   5   4
ATOM      4  C   UNL     1      -6.044 -10.123  15.366  0.00  0.00    +0.114 C 
BRANCH   4   2
ATOM      1  O   UNL     1      -5.459  -9.287  16.366  0.00  0.00    -0.246 OA
ATOM      2  C   UNL     1      -5.639 -10.039  16.080  0.00  0.00    +0.365 C 
ATOM      3  O   UNL     1      -5.414 -10.708  16.507  0.00  0.00    -0.246 OA
ENDBRANCH   4   2
ENDBRANCH   5   4
BRANCH  10  11
ATOM     11  C   UNL     1      -6.836 -10.003  13.923  0.00  0.00    +0.019 C 
BRANCH  11  12
ATOM     12  C   UNL     1      -7.219  -9.840  13.211  0.00  0.00    +0.072 C 
BRANCH  12  13
ATOM     13  N   UNL     1      -6.777  -9.692  12.530  0.00  0.00    -0.273 NA
ATOM     14  C   UNL     1      -6.583 -10.312  12.021  0.00  0.00    +0.074 C 
ATOM     15  C   UNL     1      -6.142 -10.163  11.340  0.00  0.00    +0.040 C 
ATOM     16  C   UNL     1      -5.895  -9.395  11.168  0.00  0.00    +0.093 C 
ATOM     17  C   UNL     1      -6.089  -8.775  11.677  0.00  0.00    +0.040 C 
ATOM     18  C   UNL     1      -6.530  -8.924  12.357  0.00  0.00    +0.074 C 
BRANCH  16  19
ATOM     19  N   UNL     1      -5.454  -9.247  10.487  0.00  0.00    -0.280 N 
ATOM     20  C   UNL     1      -5.756  -9.018   9.753  0.00  0.00    +0.350 A 
ATOM     21  O   UNL     1      -6.552  -8.898   9.573  0.00  0.00    -0.244 OA
ATOM     22  N   UNL     1      -5.122  -8.931   9.233  0.00  0.00    -0.191 NA
ATOM     23  C   UNL     1      -4.429  -9.106   9.644  0.00  0.00    +0.102 A 
ATOM     24  C   UNL     1      -4.634  -9.301  10.419  0.00  0.00    +0.082 A 
ATOM     25  C   UNL     1      -4.047  -9.503  10.962  0.00  0.00    +0.019 A 
ATOM     26  C   UNL     1      -3.255  -9.509  10.731  0.00  0.00    +0.002 A 
ATOM     27  C   UNL     1      -3.050  -9.314   9.957  0.00  0.00    +0.002 A 
ATOM     28  C   UNL     1      -3.636  -9.112   9.412  0.00  0.00    +0.021 A 
ENDBRANCH  16  19
ENDBRANCH  12  13
ENDBRANCH  11  12
ENDBRANCH  10  11
TORSDOF 7
ENDMDL
MODEL 6
REMARK VINA RESULT:      -7.0      3.332      4.690
REMARK  Name = 
REMARK  7 active torsions:
REMARK  status: ('A' for Active; 'I' for Inactive)
REMARK    1  A    between atoms: C_2  and  C_4
REMARK    2  A    between atoms: C_4  and  C_5
REMARK    3  A    between atoms: C_10  and  C_11
REMARK    4  A    between atoms: C_11  and  C_12
REMARK    5  A    between atoms: C_12  and  N_13
REMARK    6  A    between atoms: C_16  and  N_19
REMARK    7  A    between atoms: N_31  and  C_32
REMARK                            x       y       z     vdW  Elec       q    Type
REMARK                         _______ _______ _______ _____ _____    ______ ____
ROOT
ATOM      5  C   UNL     1      -3.144   2.646  23.853  0.00  0.00    +0.015 C 
ATOM      6  C   UNL     1      -2.605   3.229  24.076  0.00  0.00    +0.022 C 
ATOM      7  C   UNL     1      -2.679   3.602  24.809  0.00  0.00    +0.095 C 
ATOM      8  N   UNL     1      -3.293   3.390  25.318  0.00  0.00    -0.263 N 
ATOM      9  C   UNL     1      -3.832   2.808  25.095  0.00  0.00    +0.095 C 
ATOM     10  C   UNL     1      -3.758   2.436  24.362  0.00  0.00    +0.022 C 
ATOM     29  C   UNL     1      -3.368   3.763  26.050  0.00  0.00    +0.327 C 
ATOM     30  O   UNL     1      -3.981   3.552  26.560  0.00  0.00    -0.250 OA
ATOM     31  N   UNL     1      -2.828   4.346  26.274  0.00  0.00    -0.162 NA
ENDROOT
BRANCH  31  32
ATOM     32  C   UNL     1      -2.214   4.557  25.764  0.00  0.00    +0.075 A 
ATOM     33  C   UNL     1      -2.303   5.200  25.255  0.00  0.00    +0.017 A 
ATOM     34  C   UNL     1      -1.690   5.411  24.746  0.00  0.00    +0.001 A 
ATOM     35  C   UNL     1      -0.986   4.980  24.746  0.00  0.00    +0.000 A 
ATOM     36  C   UNL     1      -0.897   4.337  25.255  0.00  0.00    +0.001 A 
ATOM     37  C   UNL     1      -1.511   4.126  25.764  0.00  0.00    +0.017 A 
ENDBRANCH  31  32
BRANCH   5   4
ATOM      4  C   UNL     1      -3.070   2.274  23.120  0.00  0.00    +0.114 C 
BRANCH   4   2
ATOM      1  O   UNL     1      -1.689   1.986  22.895  0.00  0.00    -0.246 OA
ATOM      2  C   UNL     1      -2.382   2.374  22.675  0.00  0.00    +0.365 C 
ATOM      3  O   UNL     1      -2.389   2.862  22.010  0.00  0.00    -0.246 OA
ENDBRANCH   4   2
ENDBRANCH   5   4
BRANCH  10  11
ATOM     11  C   UNL     1      -4.298   1.853  24.139  0.00  0.00    +0.019 C 
BRANCH  11  12
ATOM     12  C   UNL     1      -4.553   1.295  24.690  0.00  0.00    +0.072 C 
BRANCH  12  13
ATOM     13  N   UNL     1      -4.310   0.508  24.624  0.00  0.00    -0.273 NA
ATOM     14  C   UNL     1      -4.327   0.132  23.891  0.00  0.00    +0.074 C 
ATOM     15  C   UNL     1      -4.084  -0.654  23.825  0.00  0.00    +0.040 C 
ATOM     16  C   UNL     1      -3.824  -1.063  24.493  0.00  0.00    +0.093 C 
ATOM     17  C   UNL     1      -3.808  -0.685  25.227  0.00  0.00    +0.040 C 
ATOM     18  C   UNL     1      -4.051   0.100  25.292  0.00  0.00    +0.074 C 
BRANCH  16  19
ATOM     19  N   UNL     1      -3.582  -1.848  24.427  0.00  0.00    -0.280 N 
ATOM     20  C   UNL     1      -4.068  -2.494  24.263  0.00  0.00    +0.350 A 
ATOM     21  O   UNL     1      -4.883  -2.467  24.136  0.00  0.00    -0.244 OA
ATOM     22  N   UNL     1      -3.597  -3.171  24.248  0.00  0.00    -0.191 NA
ATOM     23  C   UNL     1      -2.820  -2.943  24.403  0.00  0.00    +0.102 A 
ATOM     24  C   UNL     1      -2.810  -2.126  24.514  0.00  0.00    +0.082 A 
ATOM     25  C   UNL     1      -2.100  -1.741  24.680  0.00  0.00    +0.019 A 
ATOM     26  C   UNL     1      -1.399  -2.172  24.735  0.00  0.00    +0.002 A 
ATOM     27  C   UNL     1      -1.409  -2.990  24.624  0.00  0.00    +0.002 A 
ATOM     28  C   UNL     1      -2.119  -3.376  24.458  0.00  0.00    +0.021 A 
ENDBRANCH  16  19
ENDBRANCH  12  13
ENDBRANCH  11  12
ENDBRANCH  10  11
TORSDOF 7
ENDMDL
MODEL 7
REMARK VINA RESULT:      -6.3     14.757     16.863
REMARK  Name = 
REMARK  7 active torsions:
REMARK  status: ('A' for Active; 'I' for Inactive)
REMARK    1  A    between atoms: C_2  and  C_4
REMARK    2  A    between atoms: C_4  and  C_5
REMARK    3  A    between atoms: C_10  and  C_11
REMARK    4  A    between atoms: C_11  and  C_12
REMARK    5  A    between atoms: C_12  and  N_13
REMARK    6  A    between atoms: C_16  and  N_19
REMARK    7  A    between atoms: N_31  and  C_32
REMARK                            x       y       z     vdW  Elec       q    Type
REMARK                         _______ _______ _______ _____ _____    ______ ____
ROOT
ATOM      5  C   UNL     1      -6.751  -9.821  12.394  0.00  0.00    +0.015 C 
ATOM      6  C   UNL     1      -6.146  -9.825  11.832  0.00  0.00    +0.022 C 
ATOM      7  C   UNL     1      -5.373  -9.999  12.059  0.00  0.00    +0.095 C 
ATOM      8  N   UNL     1      -5.203 -10.168  12.848  0.00  0.00    -0.263 N 
ATOM      9  C   UNL     1      -5.807 -10.164  13.410  0.00  0.00    +0.095 C 
ATOM     10  C   UNL     1      -6.580  -9.991  13.183  0.00  0.00    +0.022 C 
ATOM     29  C   UNL     1      -4.429 -10.342  13.076  0.00  0.00    +0.327 C 
ATOM     30  O   UNL     1      -4.259 -10.512  13.865  0.00  0.00    -0.250 OA
ATOM     31  N   UNL     1      -3.825 -10.346  12.513  0.00  0.00    -0.162 NA
ENDROOT
BRANCH  31  32
ATOM     32  C   UNL     1      -3.995 -10.176  11.724  0.00  0.00    +0.075 A 
ATOM     33  C   UNL     1      -3.940  -9.401  11.448  0.00  0.00    +0.017 A 
ATOM     34  C   UNL     1      -4.109  -9.230  10.659  0.00  0.00    +0.001 A 
ATOM     35  C   UNL     1      -4.334  -9.836  10.145  0.00  0.00    +0.000 A 
ATOM     36  C   UNL     1      -4.389 -10.612  10.421  0.00  0.00    +0.001 A 
ATOM     37  C   UNL     1      -4.219 -10.781  11.210  0.00  0.00    +0.017 A 
ENDBRANCH  31  32
BRANCH   5   4
ATOM      4  C   UNL     1      -7.524  -9.647  12.167  0.00  0.00    +0.114 C 
BRANCH   4   2
ATOM      1  O   UNL     1      -7.991 -10.294  10.981  0.00  0.00    -0.246 OA
ATOM      2  C   UNL     1      -7.722  -9.616  11.366  0.00  0.00    +0.365 C 
ATOM      3  O   UNL     1      -7.650  -8.907  10.951  0.00  0.00    -0.246 OA
ENDBRANCH   4   2
ENDBRANCH   5   4
BRANCH  10  11
ATOM     11  C   UNL     1      -7.185  -9.987  13.745  0.00  0.00    +0.019 C 
BRANCH  11  12
ATOM     12  C   UNL     1      -7.022 -10.194  14.527  0.00  0.00    +0.072 C 
BRANCH  12  13
ATOM     13  N   UNL     1      -7.583 -10.055  15.116  0.00  0.00    -0.273 NA
ATOM     14  C   UNL     1      -7.459  -9.458  15.671  0.00  0.00    +0.074 C 
ATOM     15  C   UNL     1      -8.021  -9.320  16.260  0.00  0.00    +0.040 C 
ATOM     16  C   UNL     1      -8.705  -9.779  16.293  0.00  0.00    +0.093 C 
ATOM     17  C   UNL     1      -8.829 -10.376  15.737  0.00  0.00    +0.040 C 
ATOM     18  C   UNL     1      -8.268 -10.514  15.149  0.00  0.00    +0.074 C 
BRANCH  16  19
ATOM     19  N   UNL     1      -9.266  -9.640  16.882  0.00  0.00    -0.280 N 
ATOM     20  C   UNL     1      -9.914  -9.131  16.825  0.00  0.00    +0.350 A 
ATOM     21  O   UNL     1     -10.113  -8.672  16.169  0.00  0.00    -0.244 OA
ATOM     22  N   UNL     1     -10.326  -9.163  17.538  0.00  0.00    -0.191 NA
ATOM     23  C   UNL     1      -9.934  -9.690  18.036  0.00  0.00    +0.102 A 
ATOM     24  C   UNL     1      -9.279  -9.985  17.630  0.00  0.00    +0.082 A 
ATOM     25  C   UNL     1      -8.779 -10.531  17.996  0.00  0.00    +0.019 A 
ATOM     26  C   UNL     1      -8.933 -10.781  18.766  0.00  0.00    +0.002 A 
ATOM     27  C   UNL     1      -9.588 -10.486  19.172  0.00  0.00    +0.002 A 
ATOM     28  C   UNL     1     -10.088  -9.941  18.808  0.00  0.00    +0.021 A 
ENDBRANCH  16  19
ENDBRANCH  12  13
ENDBRANCH  11  12
ENDBRANCH  10  11
TORSDOF 7
ENDMDL
MODEL 8
REMARK VINA RESULT:      -6.2     15.210     16.865
REMARK  Name = 
REMARK  7 active torsions:
REMARK  status: ('A' for Active; 'I' for Inactive)
REMARK    1  A    between atoms: C_2  and  C_4
REMARK    2  A    between atoms: C_4  and  C_5
REMARK    3  A    between atoms: C_10  and  C_11
REMARK    4  A    between atoms: C_11  and  C_12
REMARK    5  A    between atoms: C_12  and  N_13
REMARK    6  A    between atoms: C_16  and  N_19
REMARK    7  A    between atoms: N_31  and  C_32
REMARK                            x       y       z     vdW  Elec       q    Type
REMARK                         _______ _______ _______ _____ _____    ______ ____
ROOT
ATOM      5  C   UNL     1      -6.715  -9.528  11.877  0.00  0.00    +0.015 C 
ATOM      6  C   UNL     1      -6.893  -9.452  11.075  0.00  0.00    +0.022 C 
ATOM      7  C   UNL     1      -7.670  -9.547  10.814  0.00  0.00    +0.095 C 
ATOM      8  N   UNL     1      -8.268  -9.718  11.356  0.00  0.00    -0.263 N 
ATOM      9  C   UNL     1      -8.090  -9.793  12.157  0.00  0.00    +0.095 C 
ATOM     10  C   UNL     1      -7.314  -9.698  12.418  0.00  0.00    +0.022 C 
ATOM     29  C   UNL     1      -9.045  -9.813  11.095  0.00  0.00    +0.327 C 
ATOM     30  O   UNL     1      -9.644  -9.984  11.636  0.00  0.00    -0.250 OA
ATOM     31  N   UNL     1      -9.224  -9.738  10.293  0.00  0.00    -0.162 NA
ENDROOT
BRANCH  31  32
ATOM     32  C   UNL     1      -8.625  -9.567   9.751  0.00  0.00    +0.075 A 
ATOM     33  C   UNL     1      -8.194 -10.180   9.407  0.00  0.00    +0.017 A 
ATOM     34  C   UNL     1      -7.595 -10.010   8.865  0.00  0.00    +0.001 A 
ATOM     35  C   UNL     1      -7.428  -9.227   8.668  0.00  0.00    +0.000 A 
ATOM     36  C   UNL     1      -7.859  -8.614   9.012  0.00  0.00    +0.001 A 
ATOM     37  C   UNL     1      -8.458  -8.784   9.554  0.00  0.00    +0.017 A 
ENDBRANCH  31  32
BRANCH   5   4
ATOM      4  C   UNL     1      -5.938  -9.432  12.137  0.00  0.00    +0.114 C 
BRANCH   4   2
ATOM      1  O   UNL     1      -5.139  -8.534  11.364  0.00  0.00    -0.246 OA
ATOM      2  C   UNL     1      -5.333  -9.303  11.591  0.00  0.00    +0.365 C 
ATOM      3  O   UNL     1      -4.921  -9.943  11.273  0.00  0.00    -0.246 OA
ENDBRANCH   4   2
ENDBRANCH   5   4
BRANCH  10  11
ATOM     11  C   UNL     1      -7.135  -9.774  13.220  0.00  0.00    +0.019 C 
BRANCH  11  12
ATOM     12  C   UNL     1      -7.743  -9.807  13.776  0.00  0.00    +0.072 C 
BRANCH  12  13
ATOM     13  N   UNL     1      -7.566  -9.916  14.575  0.00  0.00    -0.273 NA
ATOM     14  C   UNL     1      -7.550  -9.267  15.085  0.00  0.00    +0.074 C 
ATOM     15  C   UNL     1      -7.373  -9.376  15.884  0.00  0.00    +0.040 C 
ATOM     16  C   UNL     1      -7.213 -10.132  16.172  0.00  0.00    +0.093 C 
ATOM     17  C   UNL     1      -7.229 -10.780  15.661  0.00  0.00    +0.040 C 
ATOM     18  C   UNL     1      -7.406 -10.672  14.863  0.00  0.00    +0.074 C 
BRANCH  16  19
ATOM     19  N   UNL     1      -7.036 -10.240  16.970  0.00  0.00    -0.280 N 
ATOM     20  C   UNL     1      -7.573 -10.203  17.596  0.00  0.00    +0.350 A 
ATOM     21  O   UNL     1      -8.382 -10.051  17.531  0.00  0.00    -0.244 OA
ATOM     22  N   UNL     1      -7.160 -10.344  18.295  0.00  0.00    -0.191 NA
ATOM     23  C   UNL     1      -6.368 -10.468  18.103  0.00  0.00    +0.102 A 
ATOM     24  C   UNL     1      -6.291 -10.404  17.284  0.00  0.00    +0.082 A 
ATOM     25  C   UNL     1      -5.552 -10.503  16.931  0.00  0.00    +0.019 A 
ATOM     26  C   UNL     1      -4.891 -10.666  17.395  0.00  0.00    +0.002 A 
ATOM     27  C   UNL     1      -4.968 -10.730  18.214  0.00  0.00    +0.002 A 
ATOM     28  C   UNL     1      -5.706 -10.631  18.569  0.00  0.00    +0.021 A 
ENDBRANCH  16  19
ENDBRANCH  12  13
ENDBRANCH  11  12
ENDBRANCH  10  11
TORSDOF 7
ENDMDL
MODEL 9
REMARK VINA RESULT:      -5.7     15.981     18.002
REMARK  Name = 
REMARK  7 active torsions:
REMARK  status: ('A' for Active; 'I' for Inactive)
REMARK    1  A    between atoms: C_2  and  C_4
REMARK    2  A    between atoms: C_4  and  C_5
REMARK    3  A    between atoms: C_10  and  C_11
REMARK    4  A    between atoms: C_11  and  C_12
REMARK    5  A    between atoms: C_12  and  N_13
REMARK    6  A    between atoms: C_16  and  N_19
REMARK    7  A    between atoms: N_31  and  C_32
REMARK                            x       y       z     vdW  Elec       q    Type
REMARK                         _______ _______ _______ _____ _____    ______ ____
ROOT
ATOM      5  C   UNL     1      -6.997  -9.367  11.315  0.00  0.00    +0.015 C 
ATOM      6  C   UNL     1      -6.766  -9.438  10.526  0.00  0.00    +0.022 C 
ATOM      7  C   UNL     1      -7.291  -9.742   9.968  0.00  0.00    +0.095 C 
ATOM      8  N   UNL     1      -8.048  -9.976  10.199  0.00  0.00    -0.263 N 
ATOM      9  C   UNL     1      -8.279  -9.906  10.987  0.00  0.00    +0.095 C 
ATOM     10  C   UNL     1      -7.754  -9.602  11.545  0.00  0.00    +0.022 C 
ATOM     29  C   UNL     1      -8.574 -10.280   9.640  0.00  0.00    +0.327 C 
ATOM     30  O   UNL     1      -9.331 -10.515   9.870  0.00  0.00    -0.250 OA
ATOM     31  N   UNL     1      -8.343 -10.351   8.851  0.00  0.00    -0.162 NA
ENDROOT
BRANCH  31  32
ATOM     32  C   UNL     1      -7.586 -10.117   8.620  0.00  0.00    +0.075 A 
ATOM     33  C   UNL     1      -7.452  -9.341   8.374  0.00  0.00    +0.017 A 
ATOM     34  C   UNL     1      -6.695  -9.106   8.142  0.00  0.00    +0.001 A 
ATOM     35  C   UNL     1      -6.073  -9.648   8.158  0.00  0.00    +0.000 A 
ATOM     36  C   UNL     1      -6.207 -10.423   8.405  0.00  0.00    +0.001 A 
ATOM     37  C   UNL     1      -6.964 -10.657   8.636  0.00  0.00    +0.017 A 
ENDBRANCH  31  32
BRANCH   5   4
ATOM      4  C   UNL     1      -6.471  -9.063  11.873  0.00  0.00    +0.114 C 
BRANCH   4   2
ATOM      1  O   UNL     1      -5.114  -9.498  11.775  0.00  0.00    -0.246 OA
ATOM      2  C   UNL     1      -5.687  -8.916  11.664  0.00  0.00    +0.365 C 
ATOM      3  O   UNL     1      -5.476  -8.186  11.342  0.00  0.00    -0.246 OA
ENDBRANCH   4   2
ENDBRANCH   5   4
BRANCH  10  11
ATOM     11  C   UNL     1      -7.985  -9.531  12.334  0.00  0.00    +0.019 C 
BRANCH  11  12
ATOM     12  C   UNL     1      -8.612  -9.983  12.622  0.00  0.00    +0.072 C 
BRANCH  12  13
ATOM     13  N   UNL     1      -8.930  -9.822  13.367  0.00  0.00    -0.273 NA
ATOM     14  C   UNL     1      -9.736  -9.665  13.446  0.00  0.00    +0.074 C 
ATOM     15  C   UNL     1     -10.053  -9.504  14.190  0.00  0.00    +0.040 C 
ATOM     16  C   UNL     1      -9.565  -9.498  14.855  0.00  0.00    +0.093 C 
ATOM     17  C   UNL     1      -8.758  -9.655  14.775  0.00  0.00    +0.040 C 
ATOM     18  C   UNL     1      -8.441  -9.816  14.031  0.00  0.00    +0.074 C 
BRANCH  16  19
ATOM     19  N   UNL     1      -9.882  -9.337  15.598  0.00  0.00    -0.280 N 
ATOM     20  C   UNL     1     -10.115  -9.897  16.158  0.00  0.00    +0.350 A 
ATOM     21  O   UNL     1     -10.072 -10.716  16.072  0.00  0.00    -0.244 OA
ATOM     22  N   UNL     1     -10.400  -9.493  16.819  0.00  0.00    -0.191 NA
ATOM     23  C   UNL     1     -10.342  -8.685  16.668  0.00  0.00    +0.102 A 
ATOM     24  C   UNL     1     -10.022  -8.588  15.914  0.00  0.00    +0.082 A 
ATOM     25  C   UNL     1      -9.900  -7.830  15.612  0.00  0.00    +0.019 A 
ATOM     26  C   UNL     1     -10.097  -7.169  16.063  0.00  0.00    +0.002 A 
ATOM     27  C   UNL     1     -10.417  -7.265  16.817  0.00  0.00    +0.002 A 
ATOM     28  C   UNL     1     -10.540  -8.023  17.120  0.00  0.00    +0.021 A 
ENDBRANCH  16  19
ENDBRANCH  12  13
ENDBRANCH  11  12
ENDBRANCH  10  11
TORSDOF 7
ENDMDL
