MODEL 1
REMARK VINA RESULT:      -7.9      0.000      0.000
REMARK  Name = 
REMARK  7 active torsions:
REMARK  status: ('A' for Active; 'I' for Inactive)
REMARK    1  A    between atoms: N_6  and  C_7
REMARK    2  A    between atoms: C_7  and  C_8
REMARK    3  A    between atoms: C_18  and  C_19
REMARK    4  A    between atoms: C_19  and  C_20
REMARK    5  A    between atoms: C_20  and  C_21
REMARK    6  A    between atoms: N_23  and  C_24
REMARK    7  A    between atoms: C_24  and  C_25
REMARK                            x       y       z     vdW  Elec       q    Type
REMARK                         _______ _______ _______ _____ _____    ______ ____
ROOT
ATOM      1  C   UNL     1      -1.490  -0.277  24.524  0.00  0.00    +0.090 C 
ATOM      2  N   UNL     1      -1.606   0.511  24.309  0.00  0.00    -0.271 NA
ATOM      3  C   UNL     1      -2.341   0.831  24.506  0.00  0.00    +0.083 C 
ATOM      4  C   UNL     1      -2.933   0.407  24.893  0.00  0.00    +0.035 C 
ATOM      5  C   UNL     1      -3.581   0.907  24.994  0.00  0.00    +0.074 C 
ATOM      6  N   UNL     1      -3.390   1.641  24.670  0.00  0.00    -0.260 NA
ATOM     13  C   UNL     1      -2.623   1.594  24.368  0.00  0.00    +0.152 C 
ATOM     14  C   UNL     1      -2.241   2.225  23.999  0.00  0.00    +0.257 C 
ATOM     15  O   UNL     1      -2.675   2.925  23.944  0.00  0.00    -0.272 OA
ATOM     16  N   UNL     1      -1.482   2.249  23.676  0.00  0.00    -0.203 NA
ATOM     17  C   UNL     1      -0.918   1.647  23.643  0.00  0.00    +0.131 C 
ATOM     18  C   UNL     1      -0.973   0.875  23.925  0.00  0.00    +0.080 C 
ENDROOT
BRANCH   6   7
ATOM      7  C   UNL     1      -3.879   2.305  24.650  0.00  0.00    +0.121 C 
BRANCH   7   8
ATOM      8  C   UNL     1      -4.651   2.257  24.938  0.00  0.00    +0.105 A 
ATOM      9  C   UNL     1      -4.932   2.595  25.634  0.00  0.00    +0.074 A 
ATOM     10  S   UNL     1      -5.732   2.408  25.705  0.00  0.00    +0.038 S 
ATOM     11  N   UNL     1      -5.946   1.952  25.050  0.00  0.00    -0.110 NA
ATOM     12  N   UNL     1      -5.277   1.859  24.576  0.00  0.00    -0.143 NA
ENDBRANCH   7   8
ENDBRANCH   6   7
BRANCH  18  19
ATOM     19  C   UNL     1      -0.307   0.402  23.807  0.00  0.00    +0.027 C 
BRANCH  19  20
ATOM     20  C   UNL     1       0.396   0.738  23.538  0.00  0.00    +0.088 C 
BRANCH  20  21
ATOM     21  C   UNL     1       0.976   0.262  23.193  0.00  0.00    +0.242 C 
ATOM     22  O   UNL     1       0.772  -0.471  22.874  0.00  0.00    -0.273 OA
ATOM     23  N   UNL     1       1.759   0.519  23.169  0.00  0.00    -0.200 NA
BRANCH  23  24
ATOM     24  C   UNL     1       2.339   0.043  22.824  0.00  0.00    +0.148 C 
BRANCH  24  25
ATOM     25  C   UNL     1       3.129   0.278  22.842  0.00  0.00    +0.029 A 
ATOM     26  C   UNL     1       3.434   0.982  22.539  0.00  0.00    +0.004 A 
ATOM     27  C   UNL     1       4.247   0.988  22.676  0.00  0.00    +0.007 A 
ATOM     28  C   UNL     1       4.445   0.288  23.064  0.00  0.00    +0.035 A 
ATOM     29  S   UNL     1       3.755  -0.152  23.167  0.00  0.00    -0.089 S 
ENDBRANCH  24  25
ENDBRANCH  23  24
ENDBRANCH  20  21
ENDBRANCH  19  20
ENDBRANCH  18  19
TORSDOF 7
ENDMDL
MODEL 2
REMARK VINA RESULT:      -7.6      0.847      1.304
REMARK  Name = 
REMARK  7 active torsions:
REMARK  status: ('A' for Active; 'I' for Inactive)
REMARK    1  A    between atoms: N_6  and  C_7
REMARK    2  A    between atoms: C_7  and  C_8
REMARK    3  A    between atoms: C_18  and  C_19
REMARK    4  A    between atoms: C_19  and  C_20
REMARK    5  A    between atoms: C_20  and  C_21
REMARK    6  A    between atoms: N_23  and  C_24
REMARK    7  A    between atoms: C_24  and  C_25
REMARK                            x       y       z     vdW  Elec       q    Type
REMARK                         _______ _______ _______ _____ _____    ______ ____
ROOT
ATOM      1  C   UNL     1      -1.040   1.933  23.115  0.00  0.00    +0.090 C 
ATOM      2  N   UNL     1      -1.337   1.369  23.639  0.00  0.00    -0.271 NA
ATOM      3  C   UNL     1      -2.098   1.511  23.925  0.00  0.00    +0.083 C 
ATOM      4  C   UNL     1      -2.548   2.169  23.712  0.00  0.00    +0.035 C 
ATOM      5  C   UNL     1      -3.271   2.122  24.105  0.00  0.00    +0.074 C 
ATOM      6  N   UNL     1      -3.269   1.435  24.561  0.00  0.00    -0.260 NA
ATOM     13  C   UNL     1      -2.543   1.057  24.450  0.00  0.00    +0.152 C 
ATOM     14  C   UNL     1      -2.338   0.349  24.819  0.00  0.00    +0.257 C 
ATOM     15  O   UNL     1      -2.910   0.027  25.319  0.00  0.00    -0.272 OA
ATOM     16  N   UNL     1      -1.637  -0.081  24.754  0.00  0.00    -0.203 NA
ATOM     17  C   UNL     1      -0.967   0.093  24.304  0.00  0.00    +0.131 C 
ATOM     18  C   UNL     1      -0.834   0.737  23.808  0.00  0.00    +0.080 C 
ENDROOT
BRANCH   6   7
ATOM      7  C   UNL     1      -3.883   1.171  25.045  0.00  0.00    +0.121 C 
BRANCH   7   8
ATOM      8  C   UNL     1      -4.557   1.637  25.145  0.00  0.00    +0.105 A 
ATOM      9  C   UNL     1      -5.306   1.480  24.839  0.00  0.00    +0.074 A 
ATOM     10  S   UNL     1      -5.810   2.088  25.075  0.00  0.00    +0.038 S 
ATOM     11  N   UNL     1      -5.372   2.622  25.528  0.00  0.00    -0.110 NA
ATOM     12  N   UNL     1      -4.597   2.343  25.571  0.00  0.00    -0.143 NA
ENDBRANCH   7   8
ENDBRANCH   6   7
BRANCH  18  19
ATOM     19  C   UNL     1      -0.100   0.754  23.430  0.00  0.00    +0.027 C 
BRANCH  19  20
ATOM     20  C   UNL     1       0.416   0.115  23.503  0.00  0.00    +0.088 C 
BRANCH  20  21
ATOM     21  C   UNL     1       1.011  -0.001  22.943  0.00  0.00    +0.242 C 
ATOM     22  O   UNL     1       0.827  -0.325  22.207  0.00  0.00    -0.273 OA
ATOM     23  N   UNL     1       1.789   0.207  23.119  0.00  0.00    -0.200 NA
BRANCH  23  24
ATOM     24  C   UNL     1       2.384   0.091  22.559  0.00  0.00    +0.148 C 
BRANCH  24  25
ATOM     25  C   UNL     1       3.164   0.292  22.737  0.00  0.00    +0.029 A 
ATOM     26  C   UNL     1       3.505   1.038  22.649  0.00  0.00    +0.004 A 
ATOM     27  C   UNL     1       4.291   0.990  22.892  0.00  0.00    +0.007 A 
ATOM     28  C   UNL     1       4.437   0.214  23.131  0.00  0.00    +0.035 A 
ATOM     29  S   UNL     1       3.740  -0.218  23.035  0.00  0.00    -0.089 S 
ENDBRANCH  24  25
ENDBRANCH  23  24
ENDBRANCH  20  21
ENDBRANCH  19  20
ENDBRANCH  18  19
TORSDOF 7
ENDMDL
MODEL 3
REMARK VINA RESULT:      -6.9      3.445      4.718
REMARK  Name = 
REMARK  7 active torsions:
REMARK  status: ('A' for Active; 'I' for Inactive)
REMARK    1  A    between atoms: N_6  and  C_7
REMARK    2  A    between atoms: C_7  and  C_8
REMARK    3  A    between atoms: C_18  and  C_19
REMARK    4  A    between atoms: C_19  and  C_20
REMARK    5  A    between atoms: C_20  and  C_21
REMARK    6  A    between atoms: N_23  and  C_24
REMARK    7  A    between atoms: C_24  and  C_25
REMARK                            x       y       z     vdW  Elec       q    Type
REMARK                         _______ _______ _______ _____ _____    ______ ____
ROOT
ATOM      1  C   UNL     1      -0.775   0.779  23.600  0.00  0.00    +0.090 C 
ATOM      2  N   UNL     1      -0.722   1.063  24.373  0.00  0.00    -0.271 NA
ATOM      3  C   UNL     1      -0.732   1.884  24.455  0.00  0.00    +0.083 C 
ATOM      4  C   UNL     1      -0.792   2.404  23.817  0.00  0.00    +0.035 C 
ATOM      5  C   UNL     1      -0.785   3.173  24.113  0.00  0.00    +0.074 C 
ATOM      6  N   UNL     1      -0.721   3.130  24.934  0.00  0.00    -0.260 NA
ATOM     13  C   UNL     1      -0.688   2.333  25.146  0.00  0.00    +0.152 C 
ATOM     14  C   UNL     1      -0.623   2.072  25.925  0.00  0.00    +0.257 C 
ATOM     15  O   UNL     1      -0.591   2.663  26.500  0.00  0.00    -0.272 OA
ATOM     16  N   UNL     1      -0.586   1.298  26.207  0.00  0.00    -0.203 NA
ATOM     17  C   UNL     1      -0.604   0.593  25.778  0.00  0.00    +0.131 C 
ATOM     18  C   UNL     1      -0.665   0.488  24.963  0.00  0.00    +0.080 C 
ENDROOT
BRANCH   6   7
ATOM      7  C   UNL     1      -0.694   3.771  25.454  0.00  0.00    +0.121 C 
BRANCH   7   8
ATOM      8  C   UNL     1      -1.010   4.499  25.226  0.00  0.00    +0.105 A 
ATOM      9  C   UNL     1      -1.787   4.748  25.340  0.00  0.00    +0.074 A 
ATOM     10  S   UNL     1      -1.860   5.508  25.028  0.00  0.00    +0.038 S 
ATOM     11  N   UNL     1      -1.126   5.729  24.721  0.00  0.00    -0.110 NA
ATOM     12  N   UNL     1      -0.600   5.105  24.843  0.00  0.00    -0.143 NA
ENDBRANCH   7   8
ENDBRANCH   6   7
BRANCH  18  19
ATOM     19  C   UNL     1      -0.669  -0.294  24.700  0.00  0.00    +0.027 C 
BRANCH  19  20
ATOM     20  C   UNL     1      -0.892  -0.900  25.213  0.00  0.00    +0.088 C 
BRANCH  20  21
ATOM     21  C   UNL     1      -1.241  -1.586  24.915  0.00  0.00    +0.242 C 
ATOM     22  O   UNL     1      -0.770  -2.227  24.698  0.00  0.00    -0.273 OA
ATOM     23  N   UNL     1      -2.060  -1.630  24.834  0.00  0.00    -0.200 NA
BRANCH  23  24
ATOM     24  C   UNL     1      -2.409  -2.316  24.536  0.00  0.00    +0.148 C 
BRANCH  24  25
ATOM     25  C   UNL     1      -3.197  -2.306  24.293  0.00  0.00    +0.029 A 
ATOM     26  C   UNL     1      -3.656  -1.634  24.162  0.00  0.00    +0.004 A 
ATOM     27  C   UNL     1      -4.408  -1.880  23.926  0.00  0.00    +0.007 A 
ATOM     28  C   UNL     1      -4.413  -2.704  23.912  0.00  0.00    +0.035 A 
ATOM     29  S   UNL     1      -3.665  -2.969  24.139  0.00  0.00    -0.089 S 
ENDBRANCH  24  25
ENDBRANCH  23  24
ENDBRANCH  20  21
ENDBRANCH  19  20
ENDBRANCH  18  19
TORSDOF 7
ENDMDL
MODEL 4
REMARK VINA RESULT:      -6.4      1.240      6.424
REMARK  Name = 
REMARK  7 active torsions:
REMARK  status: ('A' for Active; 'I' for Inactive)
REMARK    1  A    between atoms: N_6  and  C_7
REMARK    2  A    between atoms: C_7  and  C_8
REMARK    3  A    between atoms: C_18  and  C_19
REMARK    4  A    between atoms: C_19  and  C_20
REMARK    5  A    between atoms: C_20  and  C_21
REMARK    6  A    between atoms: N_23  and  C_24
REMARK    7  A    between atoms: C_24  and  C_25
REMARK                            x       y       z     vdW  Elec       q    Type
REMARK                         _______ _______ _______ _____ _____    ______ ____
ROOT
ATOM      1  C   UNL     1      -1.693   1.654  24.026  0.00  0.00    +0.090 C 
ATOM      2  N   UNL     1      -1.397   0.888  24.108  0.00  0.00    -0.271 NA
ATOM      3  C   UNL     1      -0.622   0.774  23.848  0.00  0.00    +0.083 C 
ATOM      4  C   UNL     1      -0.158   1.375  23.524  0.00  0.00    +0.035 C 
ATOM      5  C   UNL     1       0.577   1.054  23.331  0.00  0.00    +0.074 C 
ATOM      6  N   UNL     1       0.568   0.255  23.536  0.00  0.00    -0.260 NA
ATOM     13  C   UNL     1      -0.173   0.082  23.855  0.00  0.00    +0.152 C 
ATOM     14  C   UNL     1      -0.389  -0.667  24.124  0.00  0.00    +0.257 C 
ATOM     15  O   UNL     1       0.189  -1.252  24.056  0.00  0.00    -0.272 OA
ATOM     16  N   UNL     1      -1.105  -0.910  24.452  0.00  0.00    -0.203 NA
ATOM     17  C   UNL     1      -1.785  -0.462  24.593  0.00  0.00    +0.131 C 
ATOM     18  C   UNL     1      -1.914   0.337  24.440  0.00  0.00    +0.080 C 
ENDROOT
BRANCH   6   7
ATOM      7  C   UNL     1       1.190  -0.278  23.438  0.00  0.00    +0.121 C 
BRANCH   7   8
ATOM      8  C   UNL     1       1.819  -0.090  22.938  0.00  0.00    +0.105 A 
ATOM      9  C   UNL     1       2.540   0.237  23.168  0.00  0.00    +0.074 A 
ATOM     10  S   UNL     1       3.003   0.334  22.492  0.00  0.00    +0.038 S 
ATOM     11  N   UNL     1       2.567   0.066  21.844  0.00  0.00    -0.110 NA
ATOM     12  N   UNL     1       1.835  -0.196  22.120  0.00  0.00    -0.143 NA
ENDBRANCH   7   8
ENDBRANCH   6   7
BRANCH  18  19
ATOM     19  C   UNL     1      -2.659   0.626  24.645  0.00  0.00    +0.027 C 
BRANCH  19  20
ATOM     20  C   UNL     1      -3.253   0.105  24.882  0.00  0.00    +0.088 C 
BRANCH  20  21
ATOM     21  C   UNL     1      -4.046   0.322  24.809  0.00  0.00    +0.242 C 
ATOM     22  O   UNL     1      -4.578  -0.185  24.434  0.00  0.00    -0.273 OA
ATOM     23  N   UNL     1      -4.306   1.043  25.111  0.00  0.00    -0.200 NA
BRANCH  23  24
ATOM     24  C   UNL     1      -5.099   1.259  25.039  0.00  0.00    +0.148 C 
BRANCH  24  25
ATOM     25  C   UNL     1      -5.352   1.998  25.303  0.00  0.00    +0.029 A 
ATOM     26  C   UNL     1      -5.102   2.729  25.013  0.00  0.00    +0.004 A 
ATOM     27  C   UNL     1      -5.495   3.319  25.435  0.00  0.00    +0.007 A 
ATOM     28  C   UNL     1      -5.987   2.953  25.986  0.00  0.00    +0.035 A 
ATOM     29  S   UNL     1      -5.899   2.136  25.905  0.00  0.00    -0.089 S 
ENDBRANCH  24  25
ENDBRANCH  23  24
ENDBRANCH  20  21
ENDBRANCH  19  20
ENDBRANCH  18  19
TORSDOF 7
ENDMDL
MODEL 5
REMARK VINA RESULT:      -6.3     17.657     18.830
REMARK  Name = 
REMARK  7 active torsions:
REMARK  status: ('A' for Active; 'I' for Inactive)
REMARK    1  A    between atoms: N_6  and  C_7
REMARK    2  A    between atoms: C_7  and  C_8
REMARK    3  A    between atoms: C_18  and  C_19
REMARK    4  A    between atoms: C_19  and  C_20
REMARK    5  A    between atoms: C_20  and  C_21
REMARK    6  A    between atoms: N_23  and  C_24
REMARK    7  A    between atoms: C_24  and  C_25
REMARK                            x       y       z     vdW  Elec       q    Type
REMARK                         _______ _______ _______ _____ _____    ______ ____
ROOT
ATOM      1  C   UNL     1      -6.752  -8.906  11.016  0.00  0.00    +0.090 C 
ATOM      2  N   UNL     1      -6.192  -8.965  10.413  0.00  0.00    -0.271 NA
ATOM      3  C   UNL     1      -5.443  -9.222  10.643  0.00  0.00    +0.083 C 
ATOM      4  C   UNL     1      -5.247  -9.412  11.421  0.00  0.00    +0.035 C 
ATOM      5  C   UNL     1      -4.455  -9.644  11.436  0.00  0.00    +0.074 C 
ATOM      6  N   UNL     1      -4.162  -9.597  10.666  0.00  0.00    -0.260 NA
ATOM     13  C   UNL     1      -4.772  -9.336  10.176  0.00  0.00    +0.152 C 
ATOM     14  C   UNL     1      -4.685  -9.221   9.364  0.00  0.00    +0.257 C 
ATOM     15  O   UNL     1      -3.937  -9.385   9.057  0.00  0.00    -0.272 OA
ATOM     16  N   UNL     1      -5.247  -8.964   8.818  0.00  0.00    -0.203 NA
ATOM     17  C   UNL     1      -6.035  -8.758   8.949  0.00  0.00    +0.131 C 
ATOM     18  C   UNL     1      -6.456  -8.758   9.658  0.00  0.00    +0.080 C 
ENDROOT
BRANCH   6   7
ATOM      7  C   UNL     1      -3.393  -9.779  10.428  0.00  0.00    +0.121 C 
BRANCH   7   8
ATOM      8  C   UNL     1      -2.836 -10.024  10.986  0.00  0.00    +0.105 A 
ATOM      9  C   UNL     1      -2.781 -10.776  11.318  0.00  0.00    +0.074 A 
ATOM     10  S   UNL     1      -2.148 -10.776  11.847  0.00  0.00    +0.038 S 
ATOM     11  N   UNL     1      -1.812 -10.022  11.842  0.00  0.00    -0.110 NA
ATOM     12  N   UNL     1      -2.237  -9.557  11.310  0.00  0.00    -0.143 NA
ENDBRANCH   7   8
ENDBRANCH   6   7
BRANCH  18  19
ATOM     19  C   UNL     1      -7.244  -8.521   9.608  0.00  0.00    +0.027 C 
BRANCH  19  20
ATOM     20  C   UNL     1      -7.514  -8.124   8.938  0.00  0.00    +0.088 C 
BRANCH  20  21
ATOM     21  C   UNL     1      -8.318  -7.961   8.850  0.00  0.00    +0.242 C 
ATOM     22  O   UNL     1      -8.863  -8.579   8.814  0.00  0.00    -0.273 OA
ATOM     23  N   UNL     1      -8.577  -7.180   8.798  0.00  0.00    -0.200 NA
BRANCH  23  24
ATOM     24  C   UNL     1      -9.381  -7.016   8.710  0.00  0.00    +0.148 C 
BRANCH  24  25
ATOM     25  C   UNL     1      -9.645  -6.235   8.696  0.00  0.00    +0.029 A 
ATOM     26  C   UNL     1      -9.201  -5.577   8.472  0.00  0.00    +0.004 A 
ATOM     27  C   UNL     1      -9.681  -4.909   8.541  0.00  0.00    +0.007 A 
ATOM     28  C   UNL     1     -10.421  -5.155   8.808  0.00  0.00    +0.035 A 
ATOM     29  S   UNL     1     -10.400  -5.974   8.904  0.00  0.00    -0.089 S 
ENDBRANCH  24  25
ENDBRANCH  23  24
ENDBRANCH  20  21
ENDBRANCH  19  20
ENDBRANCH  18  19
TORSDOF 7
ENDMDL
MODEL 6
REMARK VINA RESULT:      -6.2     15.099     16.337
REMARK  Name = 
REMARK  7 active torsions:
REMARK  status: ('A' for Active; 'I' for Inactive)
REMARK    1  A    between atoms: N_6  and  C_7
REMARK    2  A    between atoms: C_7  and  C_8
REMARK    3  A    between atoms: C_18  and  C_19
REMARK    4  A    between atoms: C_19  and  C_20
REMARK    5  A    between atoms: C_20  and  C_21
REMARK    6  A    between atoms: N_23  and  C_24
REMARK    7  A    between atoms: C_24  and  C_25
REMARK                            x       y       z     vdW  Elec       q    Type
REMARK                         _______ _______ _______ _____ _____    ______ ____
ROOT
ATOM      1  C   UNL     1      -3.477 -10.781  14.357  0.00  0.00    +0.090 C 
ATOM      2  N   UNL     1      -4.186 -10.495  14.048  0.00  0.00    -0.271 NA
ATOM      3  C   UNL     1      -4.194 -10.356  13.235  0.00  0.00    +0.083 C 
ATOM      4  C   UNL     1      -3.543 -10.490  12.745  0.00  0.00    +0.035 C 
ATOM      5  C   UNL     1      -3.758 -10.290  11.975  0.00  0.00    +0.074 C 
ATOM      6  N   UNL     1      -4.542 -10.032  11.988  0.00  0.00    -0.260 NA
ATOM     13  C   UNL     1      -4.811 -10.073  12.766  0.00  0.00    +0.152 C 
ATOM     14  C   UNL     1      -5.573  -9.859  12.996  0.00  0.00    +0.257 C 
ATOM     15  O   UNL     1      -6.069  -9.594  12.391  0.00  0.00    -0.272 OA
ATOM     16  N   UNL     1      -5.908  -9.874  13.750  0.00  0.00    -0.203 NA
ATOM     17  C   UNL     1      -5.560 -10.108  14.461  0.00  0.00    +0.131 C 
ATOM     18  C   UNL     1      -4.795 -10.384  14.594  0.00  0.00    +0.080 C 
ENDROOT
BRANCH   6   7
ATOM      7  C   UNL     1      -4.980  -9.778  11.336  0.00  0.00    +0.121 C 
BRANCH   7   8
ATOM      8  C   UNL     1      -4.607  -9.659  10.610  0.00  0.00    +0.105 A 
ATOM      9  C   UNL     1      -4.609 -10.181   9.972  0.00  0.00    +0.074 A 
ATOM     10  S   UNL     1      -4.169  -9.840   9.363  0.00  0.00    +0.038 S 
ATOM     11  N   UNL     1      -3.894  -9.107   9.625  0.00  0.00    -0.110 NA
ATOM     12  N   UNL     1      -4.165  -8.995  10.396  0.00  0.00    -0.143 NA
ENDBRANCH   7   8
ENDBRANCH   6   7
BRANCH  18  19
ATOM     19  C   UNL     1      -4.613 -10.575  15.376  0.00  0.00    +0.027 C 
BRANCH  19  20
ATOM     20  C   UNL     1      -5.004 -10.197  15.995  0.00  0.00    +0.088 C 
BRANCH  20  21
ATOM     21  C   UNL     1      -4.843 -10.408  16.776  0.00  0.00    +0.242 C 
ATOM     22  O   UNL     1      -4.062 -10.499  17.025  0.00  0.00    -0.273 OA
ATOM     23  N   UNL     1      -5.461 -10.527  17.308  0.00  0.00    -0.200 NA
BRANCH  23  24
ATOM     24  C   UNL     1      -5.300 -10.738  18.089  0.00  0.00    +0.148 C 
BRANCH  24  25
ATOM     25  C   UNL     1      -5.903 -10.735  18.651  0.00  0.00    +0.029 A 
ATOM     26  C   UNL     1      -5.805 -10.780  19.469  0.00  0.00    +0.004 A 
ATOM     27  C   UNL     1      -6.552 -10.758  19.818  0.00  0.00    +0.007 A 
ATOM     28  C   UNL     1      -7.112 -10.699  19.215  0.00  0.00    +0.035 A 
ATOM     29  S   UNL     1      -6.712 -10.685  18.494  0.00  0.00    -0.089 S 
ENDBRANCH  24  25
ENDBRANCH  23  24
ENDBRANCH  20  21
ENDBRANCH  19  20
ENDBRANCH  18  19
TORSDOF 7
ENDMDL
MODEL 7
REMARK VINA RESULT:      -5.9     13.987     15.773
REMARK  Name = 
REMARK  7 active torsions:
REMARK  status: ('A' for Active; 'I' for Inactive)
REMARK    1  A    between atoms: N_6  and  C_7
REMARK    2  A    between atoms: C_7  and  C_8
REMARK    3  A    between atoms: C_18  and  C_19
REMARK    4  A    between atoms: C_19  and  C_20
REMARK    5  A    between atoms: C_20  and  C_21
REMARK    6  A    between atoms: N_23  and  C_24
REMARK    7  A    between atoms: C_24  and  C_25
REMARK                            x       y       z     vdW  Elec       q    Type
REMARK                         _______ _______ _______ _____ _____    ______ ____
ROOT
ATOM      1  C   UNL     1      -6.314 -10.205  14.502  0.00  0.00    +0.090 C 
ATOM      2  N   UNL     1      -5.963 -10.200  15.249  0.00  0.00    -0.271 NA
ATOM      3  C   UNL     1      -5.154 -10.364  15.266  0.00  0.00    +0.083 C 
ATOM      4  C   UNL     1      -4.708 -10.524  14.590  0.00  0.00    +0.035 C 
ATOM      5  C   UNL     1      -3.929 -10.659  14.825  0.00  0.00    +0.074 C 
ATOM      6  N   UNL     1      -3.893 -10.582  15.646  0.00  0.00    -0.260 NA
ATOM     13  C   UNL     1      -4.650 -10.399  15.918  0.00  0.00    +0.152 C 
ATOM     14  C   UNL     1      -4.830 -10.281  16.714  0.00  0.00    +0.257 C 
ATOM     15  O   UNL     1      -4.198 -10.356  17.240  0.00  0.00    -0.272 OA
ATOM     16  N   UNL     1      -5.558 -10.097  17.055  0.00  0.00    -0.203 NA
ATOM     17  C   UNL     1      -6.287  -9.986  16.683  0.00  0.00    +0.131 C 
ATOM     18  C   UNL     1      -6.467 -10.032  15.880  0.00  0.00    +0.080 C 
ENDROOT
BRANCH   6   7
ATOM      7  C   UNL     1      -3.218 -10.672  16.112  0.00  0.00    +0.121 C 
BRANCH   7   8
ATOM      8  C   UNL     1      -2.470 -10.620  15.768  0.00  0.00    +0.105 A 
ATOM      9  C   UNL     1      -1.752 -10.781  16.140  0.00  0.00    +0.074 A 
ATOM     10  S   UNL     1      -1.148 -10.659  15.592  0.00  0.00    +0.038 S 
ATOM     11  N   UNL     1      -1.493 -10.423  14.880  0.00  0.00    -0.110 NA
ATOM     12  N   UNL     1      -2.310 -10.399  14.989  0.00  0.00    -0.143 NA
ENDBRANCH   7   8
ENDBRANCH   6   7
BRANCH  18  19
ATOM     19  C   UNL     1      -7.255  -9.892  15.681  0.00  0.00    +0.027 C 
BRANCH  19  20
ATOM     20  C   UNL     1      -7.773  -9.577  16.239  0.00  0.00    +0.088 C 
BRANCH  20  21
ATOM     21  C   UNL     1      -8.567  -9.462  16.048  0.00  0.00    +0.242 C 
ATOM     22  O   UNL     1      -8.992 -10.062  15.673  0.00  0.00    -0.273 OA
ATOM     23  N   UNL     1      -8.937  -8.748  16.231  0.00  0.00    -0.200 NA
BRANCH  23  24
ATOM     24  C   UNL     1      -9.731  -8.633  16.040  0.00  0.00    +0.148 C 
BRANCH  24  25
ATOM     25  C   UNL     1     -10.099  -7.917  16.217  0.00  0.00    +0.029 A 
ATOM     26  C   UNL     1     -10.229  -7.294  15.691  0.00  0.00    +0.004 A 
ATOM     27  C   UNL     1     -10.612  -6.690  16.101  0.00  0.00    +0.007 A 
ATOM     28  C   UNL     1     -10.720  -6.939  16.880  0.00  0.00    +0.035 A 
ATOM     29  S   UNL     1     -10.403  -7.697  16.952  0.00  0.00    -0.089 S 
ENDBRANCH  24  25
ENDBRANCH  23  24
ENDBRANCH  20  21
ENDBRANCH  19  20
ENDBRANCH  18  19
TORSDOF 7
ENDMDL
MODEL 8
REMARK VINA RESULT:      -5.7     14.907     15.613
REMARK  Name = 
REMARK  7 active torsions:
REMARK  status: ('A' for Active; 'I' for Inactive)
REMARK    1  A    between atoms: N_6  and  C_7
REMARK    2  A    between atoms: C_7  and  C_8
REMARK    3  A    between atoms: C_18  and  C_19
REMARK    4  A    between atoms: C_19  and  C_20
REMARK    5  A    between atoms: C_20  and  C_21
REMARK    6  A    between atoms: N_23  and  C_24
REMARK    7  A    between atoms: C_24  and  C_25
REMARK                            x       y       z     vdW  Elec       q    Type
REMARK                         _______ _______ _______ _____ _____    ______ ____
ROOT
ATOM      1  C   UNL     1      -3.533 -10.473  15.154  0.00  0.00    +0.090 C 
ATOM      2  N   UNL     1      -4.358 -10.456  15.160  0.00  0.00    -0.271 NA
ATOM      3  C   UNL     1      -4.711 -10.463  15.906  0.00  0.00    +0.083 C 
ATOM      4  C   UNL     1      -4.282 -10.484  16.611  0.00  0.00    +0.035 C 
ATOM      5  C   UNL     1      -4.820 -10.484  17.237  0.00  0.00    +0.074 C 
ATOM      6  N   UNL     1      -5.581 -10.463  16.919  0.00  0.00    -0.260 NA
ATOM     13  C   UNL     1      -5.513 -10.450  16.096  0.00  0.00    +0.152 C 
ATOM     14  C   UNL     1      -6.162 -10.428  15.587  0.00  0.00    +0.257 C 
ATOM     15  O   UNL     1      -6.903 -10.420  15.951  0.00  0.00    -0.272 OA
ATOM     16  N   UNL     1      -6.168 -10.413  14.763  0.00  0.00    -0.203 NA
ATOM     17  C   UNL     1      -5.526 -10.417  14.243  0.00  0.00    +0.131 C 
ATOM     18  C   UNL     1      -4.722 -10.436  14.420  0.00  0.00    +0.080 C 
ENDROOT
BRANCH   6   7
ATOM      7  C   UNL     1      -6.286 -10.457  17.347  0.00  0.00    +0.121 C 
BRANCH   7   8
ATOM      8  C   UNL     1      -6.267 -10.428  18.172  0.00  0.00    +0.105 A 
ATOM      9  C   UNL     1      -6.810 -10.042  18.657  0.00  0.00    +0.074 A 
ATOM     10  S   UNL     1      -6.578 -10.155  19.440  0.00  0.00    +0.038 S 
ATOM     11  N   UNL     1      -5.891 -10.613  19.439  0.00  0.00    -0.110 NA
ATOM     12  N   UNL     1      -5.698 -10.781  18.655  0.00  0.00    -0.143 NA
ENDBRANCH   7   8
ENDBRANCH   6   7
BRANCH  18  19
ATOM     19  C   UNL     1      -4.212 -10.434  13.771  0.00  0.00    +0.027 C 
BRANCH  19  20
ATOM     20  C   UNL     1      -4.516 -10.471  13.006  0.00  0.00    +0.088 C 
BRANCH  20  21
ATOM     21  C   UNL     1      -4.015 -10.381  12.357  0.00  0.00    +0.242 C 
ATOM     22  O   UNL     1      -3.261 -10.714  12.369  0.00  0.00    -0.273 OA
ATOM     23  N   UNL     1      -4.268  -9.957  11.696  0.00  0.00    -0.200 NA
BRANCH  23  24
ATOM     24  C   UNL     1      -3.767  -9.867  11.047  0.00  0.00    +0.148 C 
BRANCH  24  25
ATOM     25  C   UNL     1      -4.009  -9.421  10.397  0.00  0.00    +0.029 A 
ATOM     26  C   UNL     1      -3.722  -9.489   9.627  0.00  0.00    +0.004 A 
ATOM     27  C   UNL     1      -4.117  -8.938   9.157  0.00  0.00    +0.007 A 
ATOM     28  C   UNL     1      -4.649  -8.529   9.637  0.00  0.00    +0.035 A 
ATOM     29  S   UNL     1      -4.583  -8.827  10.404  0.00  0.00    -0.089 S 
ENDBRANCH  24  25
ENDBRANCH  23  24
ENDBRANCH  20  21
ENDBRANCH  19  20
ENDBRANCH  18  19
TORSDOF 7
ENDMDL
MODEL 9
REMARK VINA RESULT:      -5.6     16.653     17.196
REMARK  Name = 
REMARK  7 active torsions:
REMARK  status: ('A' for Active; 'I' for Inactive)
REMARK    1  A    between atoms: N_6  and  C_7
REMARK    2  A    between atoms: C_7  and  C_8
REMARK    3  A    between atoms: C_18  and  C_19
REMARK    4  A    between atoms: C_19  and  C_20
REMARK    5  A    between atoms: C_20  and  C_21
REMARK    6  A    between atoms: N_23  and  C_24
REMARK    7  A    between atoms: C_24  and  C_25
REMARK                            x       y       z     vdW  Elec       q    Type
REMARK                         _______ _______ _______ _____ _____    ______ ____
ROOT
ATOM      1  C   UNL     1      -5.212 -10.586  11.805  0.00  0.00    +0.090 C 
ATOM      2  N   UNL     1      -4.978 -10.029  11.244  0.00  0.00    -0.271 NA
ATOM      3  C   UNL     1      -5.584  -9.707  10.785  0.00  0.00    +0.083 C 
ATOM      4  C   UNL     1      -6.378  -9.916  10.868  0.00  0.00    +0.035 C 
ATOM      5  C   UNL     1      -6.815  -9.483  10.319  0.00  0.00    +0.074 C 
ATOM      6  N   UNL     1      -6.291  -9.005   9.896  0.00  0.00    -0.260 NA
ATOM     13  C   UNL     1      -5.530  -9.144  10.184  0.00  0.00    +0.152 C 
ATOM     14  C   UNL     1      -4.859  -8.764   9.894  0.00  0.00    +0.257 C 
ATOM     15  O   UNL     1      -4.988  -8.224   9.284  0.00  0.00    -0.272 OA
ATOM     16  N   UNL     1      -4.074  -8.853  10.132  0.00  0.00    -0.203 NA
ATOM     17  C   UNL     1      -3.768  -9.345  10.720  0.00  0.00    +0.131 C 
ATOM     18  C   UNL     1      -4.170  -9.867  11.214  0.00  0.00    +0.080 C 
ENDROOT
BRANCH   6   7
ATOM      7  C   UNL     1      -6.493  -8.481   9.291  0.00  0.00    +0.121 C 
BRANCH   7   8
ATOM      8  C   UNL     1      -7.280  -8.409   9.055  0.00  0.00    +0.105 A 
ATOM      9  C   UNL     1      -7.581  -8.585   8.308  0.00  0.00    +0.074 A 
ATOM     10  S   UNL     1      -8.391  -8.433   8.316  0.00  0.00    +0.038 S 
ATOM     11  N   UNL     1      -8.592  -8.162   9.070  0.00  0.00    -0.110 NA
ATOM     12  N   UNL     1      -7.905  -8.147   9.526  0.00  0.00    -0.143 NA
ENDBRANCH   7   8
ENDBRANCH   6   7
BRANCH  18  19
ATOM     19  C   UNL     1      -3.702 -10.285  11.751  0.00  0.00    +0.027 C 
BRANCH  19  20
ATOM     20  C   UNL     1      -3.084  -9.905  12.143  0.00  0.00    +0.088 C 
BRANCH  20  21
ATOM     21  C   UNL     1      -2.549 -10.343  12.594  0.00  0.00    +0.242 C 
ATOM     22  O   UNL     1      -1.959 -10.781  12.220  0.00  0.00    -0.273 OA
ATOM     23  N   UNL     1      -2.605 -10.343  13.416  0.00  0.00    -0.200 NA
BRANCH  23  24
ATOM     24  C   UNL     1      -2.070 -10.781  13.867  0.00  0.00    +0.148 C 
BRANCH  24  25
ATOM     25  C   UNL     1      -2.080 -10.726  14.689  0.00  0.00    +0.029 A 
ATOM     26  C   UNL     1      -1.422 -10.632  15.177  0.00  0.00    +0.004 A 
ATOM     27  C   UNL     1      -1.685 -10.602  15.958  0.00  0.00    +0.007 A 
ATOM     28  C   UNL     1      -2.506 -10.678  15.953  0.00  0.00    +0.035 A 
ATOM     29  S   UNL     1      -2.751 -10.754  15.169  0.00  0.00    -0.089 S 
ENDBRANCH  24  25
ENDBRANCH  23  24
ENDBRANCH  20  21
ENDBRANCH  19  20
ENDBRANCH  18  19
TORSDOF 7
ENDMDL
MODEL 10
REMARK VINA RESULT:      -5.5     16.575     17.721
REMARK  Name = 
REMARK  7 active torsions:
REMARK  status: ('A' for Active; 'I' for Inactive)
REMARK    1  A    between atoms: N_6  and  C_7
REMARK    2  A    between atoms: C_7  and  C_8
REMARK    3  A    between atoms: C_18  and  C_19
REMARK    4  A    between atoms: C_19  and  C_20
REMARK    5  A    between atoms: C_20  and  C_21
REMARK    6  A    between atoms: N_23  and  C_24
REMARK    7  A    between atoms: C_24  and  C_25
REMARK                            x       y       z     vdW  Elec       q    Type
REMARK                         _______ _______ _______ _____ _____    ______ ____
ROOT
ATOM      1  C   UNL     1      -4.909 -10.461  11.852  0.00  0.00    +0.090 C 
ATOM      2  N   UNL     1      -4.099 -10.350  11.743  0.00  0.00    -0.271 NA
ATOM      3  C   UNL     1      -3.636 -10.389  12.425  0.00  0.00    +0.083 C 
ATOM      4  C   UNL     1      -3.946 -10.529  13.176  0.00  0.00    +0.035 C 
ATOM      5  C   UNL     1      -3.320 -10.529  13.714  0.00  0.00    +0.074 C 
ATOM      6  N   UNL     1      -2.623 -10.388  13.294  0.00  0.00    -0.260 NA
ATOM     13  C   UNL     1      -2.819 -10.301  12.497  0.00  0.00    +0.152 C 
ATOM     14  C   UNL     1      -2.263 -10.153  11.907  0.00  0.00    +0.257 C 
ATOM     15  O   UNL     1      -1.479 -10.095  12.158  0.00  0.00    -0.272 OA
ATOM     16  N   UNL     1      -2.386 -10.056  11.097  0.00  0.00    -0.203 NA
ATOM     17  C   UNL     1      -3.097 -10.083  10.678  0.00  0.00    +0.131 C 
ATOM     18  C   UNL     1      -3.859 -10.214  10.965  0.00  0.00    +0.080 C 
ENDROOT
BRANCH   6   7
ATOM      7  C   UNL     1      -1.865 -10.342  13.615  0.00  0.00    +0.121 C 
BRANCH   7   8
ATOM      8  C   UNL     1      -1.763 -10.342  14.434  0.00  0.00    +0.105 A 
ATOM      9  C   UNL     1      -1.201  -9.910  14.854  0.00  0.00    +0.074 A 
ATOM     10  S   UNL     1      -1.297 -10.077  15.656  0.00  0.00    +0.038 S 
ATOM     11  N   UNL     1      -1.921 -10.612  15.732  0.00  0.00    -0.110 NA
ATOM     12  N   UNL     1      -2.209 -10.776  14.977  0.00  0.00    -0.143 NA
ENDBRANCH   7   8
ENDBRANCH   6   7
BRANCH  18  19
ATOM     19  C   UNL     1      -4.461 -10.208  10.401  0.00  0.00    +0.027 C 
BRANCH  19  20
ATOM     20  C   UNL     1      -4.439  -9.666   9.780  0.00  0.00    +0.088 C 
BRANCH  20  21
ATOM     21  C   UNL     1      -5.020  -9.686   9.194  0.00  0.00    +0.242 C 
ATOM     22  O   UNL     1      -4.941 -10.198   8.552  0.00  0.00    -0.273 OA
ATOM     23  N   UNL     1      -5.679  -9.194   9.249  0.00  0.00    -0.200 NA
BRANCH  23  24
ATOM     24  C   UNL     1      -6.260  -9.214   8.663  0.00  0.00    +0.148 C 
BRANCH  24  25
ATOM     25  C   UNL     1      -6.941  -8.756   8.741  0.00  0.00    +0.029 A 
ATOM     26  C   UNL     1      -7.316  -8.560   9.450  0.00  0.00    +0.004 A 
ATOM     27  C   UNL     1      -7.974  -8.097   9.271  0.00  0.00    +0.007 A 
ATOM     28  C   UNL     1      -8.007  -8.007   8.452  0.00  0.00    +0.035 A 
ATOM     29  S   UNL     1      -7.369  -8.414   8.124  0.00  0.00    -0.089 S 
ENDBRANCH  24  25
ENDBRANCH  23  24
ENDBRANCH  20  21
ENDBRANCH  19  20
ENDBRANCH  18  19
TORSDOF 7
ENDMDL
