REMARK  Name = 
REMARK  6 active torsions:
REMARK  status: ('A' for Active; 'I' for Inactive)
REMARK    1  A    between atoms: C_5  and  C_6
REMARK    2  A    between atoms: C_6  and  C_7
REMARK    3  A    between atoms: N_12  and  C_15
REMARK    4  A    between atoms: C_23  and  C_24
REMARK    5  A    between atoms: C_24  and  N_25
REMARK    6  A    between atoms: C_26  and  C_28
REMARK                            x       y       z     vdW  Elec       q    Type
REMARK                         _______ _______ _______ _____ _____    ______ ____
ROOT
ATOM      1  O   UNL     1       2.751  -1.712   0.000  0.00  0.00    -0.218 OA
ATOM      2  C   UNL     1       2.751  -2.537   0.000  0.00  0.00    +0.213 C 
ATOM      3  C   UNL     1       3.419  -3.022   0.000  0.00  0.00    +0.212 C 
ATOM      4  O   UNL     1       4.203  -2.767   0.000  0.00  0.00    -0.218 OA
ATOM      5  C   UNL     1       3.164  -3.806   0.000  0.00  0.00    +0.157 C 
ATOM     22  O   UNL     1       2.339  -3.806   0.000  0.00  0.00    -0.351 OA
ATOM     23  C   UNL     1       2.084  -3.022   0.000  0.00  0.00    +0.170 C 
ENDROOT
BRANCH   5   6
ATOM      6  C   UNL     1       3.649  -4.474   0.000  0.00  0.00    +0.117 C 
BRANCH   6   7
ATOM      7  C   UNL     1       4.469  -4.387   0.000  0.00  0.00    +0.228 C 
ATOM      8  O   UNL     1       4.805  -3.634   0.000  0.00  0.00    -0.275 OA
ATOM      9  N   UNL     1       4.954  -5.055   0.000  0.00  0.00    -0.276 N 
ATOM     10  C   UNL     1       5.774  -4.969   0.000  0.00  0.00    +0.115 C 
ATOM     11  C   UNL     1       6.259  -5.636   0.000  0.00  0.00    +0.112 C 
ATOM     12  N   UNL     1       5.924  -6.390   0.000  0.00  0.00    -0.304 N 
ATOM     13  C   UNL     1       5.103  -6.476   0.000  0.00  0.00    +0.112 C 
ATOM     14  C   UNL     1       4.618  -5.809   0.000  0.00  0.00    +0.115 C 
BRANCH  12  15
ATOM     15  C   UNL     1       6.409  -7.057   0.000  0.00  0.00    +0.048 A 
ATOM     16  C   UNL     1       7.229  -6.971   0.000  0.00  0.00    +0.017 A 
ATOM     17  C   UNL     1       7.714  -7.638   0.000  0.00  0.00    +0.031 A 
ATOM     18  C   UNL     1       7.379  -8.392   0.000  0.00  0.00    +0.140 A 
ATOM     19  F   UNL     1       7.864  -9.059   0.000  0.00  0.00    -0.204 F 
ATOM     20  C   UNL     1       6.558  -8.478   0.000  0.00  0.00    +0.031 A 
ATOM     21  C   UNL     1       6.073  -7.811   0.000  0.00  0.00    +0.017 A 
ENDBRANCH  12  15
ENDBRANCH   6   7
ENDBRANCH   5   6
BRANCH  23  24
ATOM     24  C   UNL     1       1.299  -2.767   0.000  0.00  0.00    +0.148 C 
BRANCH  24  25
ATOM     25  N   UNL     1       1.128  -1.960   0.000  0.00  0.00    -0.199 NA
ATOM     26  C   UNL     1       0.343  -1.705   0.000  0.00  0.00    +0.265 C 
ATOM     27  O   UNL     1      -0.270  -2.257   0.000  0.00  0.00    -0.268 OA
BRANCH  26  28
ATOM     28  C   UNL     1       0.171  -0.898   0.000  0.00  0.00    +0.057 A 
ATOM     29  C   UNL     1      -0.613  -0.643   0.000  0.00  0.00    +0.005 A 
ATOM     30  C   UNL     1      -0.785   0.164   0.000  0.00  0.00    +0.002 A 
ATOM     31  C   UNL     1      -0.172   0.716   0.000  0.00  0.00    +0.030 A 
ATOM     32  C   UNL     1       0.613   0.461   0.000  0.00  0.00    +0.140 A 
ATOM     33  F   UNL     1       1.226   1.013   0.000  0.00  0.00    -0.204 F 
ATOM     34  C   UNL     1       0.784  -0.346   0.000  0.00  0.00    +0.034 A 
ENDBRANCH  26  28
ENDBRANCH  24  25
ENDBRANCH  23  24
TORSDOF 6
