MODEL 1
REMARK VINA RESULT:      -8.7      0.000      0.000
REMARK  Name = 
REMARK  2 active torsions:
REMARK  status: ('A' for Active; 'I' for Inactive)
REMARK    1  A    between atoms: C_2  and  N_3
REMARK    2  A    between atoms: N_13  and  C_14
REMARK                            x       y       z     vdW  Elec       q    Type
REMARK                         _______ _______ _______ _____ _____    ______ ____
ROOT
ATOM      3  N   UNL     1      -4.033  -0.721  24.429  0.00  0.00    -0.188 NA
ATOM      4  C   UNL     1      -3.687   0.026  24.358  0.00  0.00    +0.323 C 
ATOM      5  O   UNL     1      -2.942   0.103  24.013  0.00  0.00    -0.251 OA
ATOM      6  N   UNL     1      -4.087   0.693  24.631  0.00  0.00    -0.259 N 
ATOM      7  C   UNL     1      -4.832   0.700  24.987  0.00  0.00    +0.126 C 
ATOM      8  C   UNL     1      -5.018   1.482  25.172  0.00  0.00    +0.155 C 
ATOM      9  O   UNL     1      -5.679   1.823  25.530  0.00  0.00    -0.343 OA
ATOM     10  C   UNL     1      -5.711   2.638  25.646  0.00  0.00    +0.227 C 
ATOM     11  C   UNL     1      -5.082   3.114  25.406  0.00  0.00    +0.256 C 
ATOM     12  O   UNL     1      -5.113   3.931  25.523  0.00  0.00    -0.272 OA
ATOM     13  N   UNL     1      -4.420   2.775  25.049  0.00  0.00    -0.277 N 
ATOM     17  C   UNL     1      -4.388   1.958  24.932  0.00  0.00    +0.124 C 
ATOM     18  C   UNL     1      -3.814   1.470  24.598  0.00  0.00    +0.117 C 
ENDROOT
BRANCH  13  14
ATOM     14  C   UNL     1      -3.791   3.250  24.808  0.00  0.00    +0.076 C 
ATOM     15  C   UNL     1      -3.178   3.420  25.334  0.00  0.00    +0.022 C 
ATOM     16  C   UNL     1      -3.774   3.556  24.043  0.00  0.00    +0.022 C 
ENDBRANCH  13  14
BRANCH   3   2
ATOM      1  C   UNL     1      -4.010  -2.121  24.149  0.00  0.00    +0.025 C 
ATOM      2  C   UNL     1      -3.633  -1.389  24.156  0.00  0.00    +0.117 C 
ENDBRANCH   3   2
TORSDOF 2
ENDMDL
MODEL 2
REMARK VINA RESULT:      -8.3      1.191      1.823
REMARK  Name = 
REMARK  2 active torsions:
REMARK  status: ('A' for Active; 'I' for Inactive)
REMARK    1  A    between atoms: C_2  and  N_3
REMARK    2  A    between atoms: N_13  and  C_14
REMARK                            x       y       z     vdW  Elec       q    Type
REMARK                         _______ _______ _______ _____ _____    ______ ____
ROOT
ATOM      3  N   UNL     1      -3.469  -1.150  24.644  0.00  0.00    -0.188 NA
ATOM      4  C   UNL     1      -3.807  -0.488  25.003  0.00  0.00    +0.323 C 
ATOM      5  O   UNL     1      -4.214  -0.569  25.716  0.00  0.00    -0.251 OA
ATOM      6  N   UNL     1      -3.739   0.254  24.648  0.00  0.00    -0.259 N 
ATOM      7  C   UNL     1      -3.351   0.418  23.939  0.00  0.00    +0.126 C 
ATOM      8  C   UNL     1      -3.419   1.227  23.793  0.00  0.00    +0.155 C 
ATOM      9  O   UNL     1      -3.145   1.702  23.177  0.00  0.00    -0.343 OA
ATOM     10  C   UNL     1      -3.300   2.512  23.179  0.00  0.00    +0.227 C 
ATOM     11  C   UNL     1      -3.730   2.847  23.798  0.00  0.00    +0.256 C 
ATOM     12  O   UNL     1      -3.887   3.658  23.801  0.00  0.00    -0.272 OA
ATOM     13  N   UNL     1      -4.005   2.373  24.415  0.00  0.00    -0.277 N 
ATOM     17  C   UNL     1      -3.849   1.562  24.412  0.00  0.00    +0.124 C 
ATOM     18  C   UNL     1      -4.047   0.961  24.940  0.00  0.00    +0.117 C 
ENDROOT
BRANCH  13  14
ATOM     14  C   UNL     1      -4.435   2.708  25.034  0.00  0.00    +0.076 C 
ATOM     15  C   UNL     1      -5.260   2.690  25.020  0.00  0.00    +0.022 C 
ATOM     16  C   UNL     1      -4.041   3.061  25.666  0.00  0.00    +0.022 C 
ENDBRANCH  13  14
BRANCH   3   2
ATOM      1  C   UNL     1      -3.280  -2.565  24.598  0.00  0.00    +0.025 C 
ATOM      2  C   UNL     1      -3.537  -1.892  24.998  0.00  0.00    +0.117 C 
ENDBRANCH   3   2
TORSDOF 2
ENDMDL
MODEL 3
REMARK VINA RESULT:      -8.1      1.229      4.240
REMARK  Name = 
REMARK  2 active torsions:
REMARK  status: ('A' for Active; 'I' for Inactive)
REMARK    1  A    between atoms: C_2  and  N_3
REMARK    2  A    between atoms: N_13  and  C_14
REMARK                            x       y       z     vdW  Elec       q    Type
REMARK                         _______ _______ _______ _____ _____    ______ ____
ROOT
ATOM      3  N   UNL     1      -4.205   2.137  24.973  0.00  0.00    -0.188 NA
ATOM      4  C   UNL     1      -4.366   1.328  24.975  0.00  0.00    +0.323 C 
ATOM      5  O   UNL     1      -5.141   1.062  25.072  0.00  0.00    -0.251 OA
ATOM      6  N   UNL     1      -3.753   0.784  24.879  0.00  0.00    -0.259 N 
ATOM      7  C   UNL     1      -2.954   0.967  24.777  0.00  0.00    +0.126 C 
ATOM      8  C   UNL     1      -2.538   0.259  24.704  0.00  0.00    +0.155 C 
ATOM      9  O   UNL     1      -1.737   0.098  24.593  0.00  0.00    -0.343 OA
ATOM     10  C   UNL     1      -1.476  -0.682  24.540  0.00  0.00    +0.227 C 
ATOM     11  C   UNL     1      -2.016  -1.302  24.597  0.00  0.00    +0.256 C 
ATOM     12  O   UNL     1      -1.755  -2.084  24.543  0.00  0.00    -0.272 OA
ATOM     13  N   UNL     1      -2.818  -1.143  24.708  0.00  0.00    -0.277 N 
ATOM     17  C   UNL     1      -3.079  -0.361  24.762  0.00  0.00    +0.124 C 
ATOM     18  C   UNL     1      -3.829  -0.037  24.870  0.00  0.00    +0.117 C 
ENDROOT
BRANCH  13  14
ATOM     14  C   UNL     1      -3.358  -1.763  24.765  0.00  0.00    +0.076 C 
ATOM     15  C   UNL     1      -3.496  -2.124  25.495  0.00  0.00    +0.022 C 
ATOM     16  C   UNL     1      -3.761  -2.022  24.094  0.00  0.00    +0.022 C 
ENDBRANCH  13  14
BRANCH   3   2
ATOM      1  C   UNL     1      -4.649   3.482  25.159  0.00  0.00    +0.025 C 
ATOM      2  C   UNL     1      -4.819   2.681  25.068  0.00  0.00    +0.117 C 
ENDBRANCH   3   2
TORSDOF 2
ENDMDL
MODEL 4
REMARK VINA RESULT:      -8.0      1.556      3.558
REMARK  Name = 
REMARK  2 active torsions:
REMARK  status: ('A' for Active; 'I' for Inactive)
REMARK    1  A    between atoms: C_2  and  N_3
REMARK    2  A    between atoms: N_13  and  C_14
REMARK                            x       y       z     vdW  Elec       q    Type
REMARK                         _______ _______ _______ _____ _____    ______ ____
ROOT
ATOM      3  N   UNL     1      -1.985   4.138  25.060  0.00  0.00    -0.188 NA
ATOM      4  C   UNL     1      -2.053   3.325  24.934  0.00  0.00    +0.323 C 
ATOM      5  O   UNL     1      -1.377   2.871  24.801  0.00  0.00    -0.251 OA
ATOM      6  N   UNL     1      -2.796   2.967  24.941  0.00  0.00    -0.259 N 
ATOM      7  C   UNL     1      -3.517   3.349  25.066  0.00  0.00    +0.126 C 
ATOM      8  C   UNL     1      -4.115   2.782  25.027  0.00  0.00    +0.155 C 
ATOM      9  O   UNL     1      -4.935   2.837  25.107  0.00  0.00    -0.343 OA
ATOM     10  C   UNL     1      -5.403   2.162  25.039  0.00  0.00    +0.227 C 
ATOM     11  C   UNL     1      -5.052   1.431  24.889  0.00  0.00    +0.256 C 
ATOM     12  O   UNL     1      -5.520   0.754  24.820  0.00  0.00    -0.272 OA
ATOM     13  N   UNL     1      -4.233   1.374  24.808  0.00  0.00    -0.277 N 
ATOM     17  C   UNL     1      -3.764   2.051  24.877  0.00  0.00    +0.124 C 
ATOM     18  C   UNL     1      -2.949   2.165  24.824  0.00  0.00    +0.117 C 
ENDROOT
BRANCH  13  14
ATOM     14  C   UNL     1      -3.882   0.643  24.659  0.00  0.00    +0.076 C 
ATOM     15  C   UNL     1      -3.721   0.414  23.883  0.00  0.00    +0.022 C 
ATOM     16  C   UNL     1      -3.692   0.141  25.285  0.00  0.00    +0.022 C 
ENDBRANCH  13  14
BRANCH   3   2
ATOM      1  C   UNL     1      -1.181   5.318  25.052  0.00  0.00    +0.025 C 
ATOM      2  C   UNL     1      -1.242   4.496  25.053  0.00  0.00    +0.117 C 
ENDBRANCH   3   2
TORSDOF 2
ENDMDL
