MODEL 1
REMARK VINA RESULT:      -8.2      0.000      0.000
REMARK  Name = 
REMARK  10 active torsions:
REMARK  status: ('A' for Active; 'I' for Inactive)
REMARK    1  A    between atoms: O_2  and  C_3
REMARK    2  A    between atoms: C_3  and  C_4
REMARK    3  A    between atoms: N_6  and  C_7
REMARK    4  A    between atoms: C_11  and  C_13
REMARK    5  A    between atoms: N_15  and  C_16
REMARK    6  A    between atoms: C_16  and  C_17
REMARK    7  A    between atoms: C_16  and  C_23
REMARK    8  A    between atoms: C_17  and  C_18
REMARK    9  A    between atoms: C_26  and  C_28
REMARK   10  A    between atoms: C_28  and  O_29
REMARK                            x       y       z     vdW  Elec       q    Type
REMARK                         _______ _______ _______ _____ _____    ______ ____
ROOT
ATOM      7  C   UNL     1      -1.833  -0.220  24.666  0.00  0.00    +0.099 C 
ATOM      8  C   UNL     1      -1.152  -0.190  25.132  0.00  0.00    +0.043 C 
ATOM      9  C   UNL     1      -0.893   0.532  25.435  0.00  0.00    +0.096 C 
ATOM     10  N   UNL     1      -1.314   1.224  25.273  0.00  0.00    -0.271 N 
ATOM     11  C   UNL     1      -1.994   1.192  24.808  0.00  0.00    +0.155 C 
ATOM     12  C   UNL     1      -2.254   0.470  24.505  0.00  0.00    +0.051 C 
ATOM     26  C   UNL     1      -1.055   1.945  25.576  0.00  0.00    +0.256 C 
ATOM     27  O   UNL     1      -1.476   2.636  25.415  0.00  0.00    -0.272 OA
ENDROOT
BRANCH   7   6
ATOM      4  C   UNL     1      -2.515  -1.464  24.843  0.00  0.00    +0.272 C 
ATOM      5  O   UNL     1      -2.678  -1.264  25.627  0.00  0.00    -0.271 OA
ATOM      6  N   UNL     1      -2.092  -0.943  24.363  0.00  0.00    -0.205 NA
BRANCH   4   3
ATOM      3  C   UNL     1      -2.774  -2.186  24.540  0.00  0.00    +0.229 C 
BRANCH   3   2
ATOM      1  C   UNL     1      -3.898  -3.020  24.253  0.00  0.00    +0.175 C 
ATOM      2  O   UNL     1      -3.521  -2.475  24.742  0.00  0.00    -0.342 OA
ENDBRANCH   3   2
ENDBRANCH   4   3
ENDBRANCH   7   6
BRANCH  11  13
ATOM     13  C   UNL     1      -2.415   1.883  24.647  0.00  0.00    +0.260 C 
ATOM     14  O   UNL     1      -2.027   2.612  24.650  0.00  0.00    -0.272 OA
ATOM     15  N   UNL     1      -3.222   1.846  24.483  0.00  0.00    -0.196 NA
BRANCH  15  16
ATOM     16  C   UNL     1      -3.643   2.538  24.321  0.00  0.00    +0.179 C 
BRANCH  16  23
ATOM     23  C   UNL     1      -3.634   2.857  23.561  0.00  0.00    +0.281 C 
ATOM     24  N   UNL     1      -3.591   3.675  23.458  0.00  0.00    -0.086 NA
ATOM     25  O   UNL     1      -3.667   2.360  22.904  0.00  0.00    -0.270 OA
ENDBRANCH  16  23
BRANCH  16  17
ATOM     17  C   UNL     1      -4.071   2.909  24.920  0.00  0.00    +0.064 C 
BRANCH  17  18
ATOM     18  C   UNL     1      -4.805   2.609  25.148  0.00  0.00    +0.010 A 
ATOM     19  C   UNL     1      -5.248   2.046  24.739  0.00  0.00    +0.003 A 
ATOM     20  C   UNL     1      -5.942   1.908  25.163  0.00  0.00    +0.007 A 
ATOM     21  C   UNL     1      -5.927   2.386  25.836  0.00  0.00    +0.035 A 
ATOM     22  S   UNL     1      -5.225   2.818  25.827  0.00  0.00    -0.091 S 
ENDBRANCH  17  18
ENDBRANCH  16  17
ENDBRANCH  15  16
ENDBRANCH  11  13
BRANCH  26  28
ATOM     28  C   UNL     1      -0.374   1.976  26.042  0.00  0.00    +0.227 C 
BRANCH  28  29
ATOM     29  O   UNL     1      -0.170   2.677  26.428  0.00  0.00    -0.342 OA
ATOM     30  C   UNL     1       0.494   2.700  26.917  0.00  0.00    +0.175 C 
ENDBRANCH  28  29
ENDBRANCH  26  28
TORSDOF 10
ENDMDL
MODEL 2
REMARK VINA RESULT:      -8.0      2.195      3.683
REMARK  Name = 
REMARK  10 active torsions:
REMARK  status: ('A' for Active; 'I' for Inactive)
REMARK    1  A    between atoms: O_2  and  C_3
REMARK    2  A    between atoms: C_3  and  C_4
REMARK    3  A    between atoms: N_6  and  C_7
REMARK    4  A    between atoms: C_11  and  C_13
REMARK    5  A    between atoms: N_15  and  C_16
REMARK    6  A    between atoms: C_16  and  C_17
REMARK    7  A    between atoms: C_16  and  C_23
REMARK    8  A    between atoms: C_17  and  C_18
REMARK    9  A    between atoms: C_26  and  C_28
REMARK   10  A    between atoms: C_28  and  O_29
REMARK                            x       y       z     vdW  Elec       q    Type
REMARK                         _______ _______ _______ _____ _____    ______ ____
ROOT
ATOM      7  C   UNL     1      -0.151  -0.015  24.185  0.00  0.00    +0.099 C 
ATOM      8  C   UNL     1      -0.325  -0.818  24.257  0.00  0.00    +0.043 C 
ATOM      9  C   UNL     1      -1.090  -1.058  24.455  0.00  0.00    +0.096 C 
ATOM     10  N   UNL     1      -1.680  -0.494  24.580  0.00  0.00    -0.271 N 
ATOM     11  C   UNL     1      -1.504   0.309  24.507  0.00  0.00    +0.155 C 
ATOM     12  C   UNL     1      -0.740   0.549  24.310  0.00  0.00    +0.051 C 
ATOM     26  C   UNL     1      -2.443  -0.733  24.777  0.00  0.00    +0.256 C 
ATOM     27  O   UNL     1      -3.033  -0.170  24.902  0.00  0.00    -0.272 OA
ENDROOT
BRANCH   7   6
ATOM      4  C   UNL     1       0.909   0.080  23.230  0.00  0.00    +0.272 C 
ATOM      5  O   UNL     1       0.440  -0.305  22.670  0.00  0.00    -0.271 OA
ATOM      6  N   UNL     1       0.614   0.225  23.987  0.00  0.00    -0.205 NA
BRANCH   4   3
ATOM      3  C   UNL     1       1.673   0.319  23.032  0.00  0.00    +0.229 C 
BRANCH   3   2
ATOM      1  C   UNL     1       2.857   0.138  22.253  0.00  0.00    +0.175 C 
ATOM      2  O   UNL     1       2.060  -0.024  22.389  0.00  0.00    -0.342 OA
ENDBRANCH   3   2
ENDBRANCH   4   3
ENDBRANCH   7   6
BRANCH  11  13
ATOM     13  C   UNL     1      -2.094   0.872  24.632  0.00  0.00    +0.260 C 
ATOM     14  O   UNL     1      -2.754   0.682  25.092  0.00  0.00    -0.272 OA
ATOM     15  N   UNL     1      -2.026   1.622  24.299  0.00  0.00    -0.196 NA
BRANCH  15  16
ATOM     16  C   UNL     1      -2.617   2.185  24.425  0.00  0.00    +0.179 C 
BRANCH  16  23
ATOM     23  C   UNL     1      -3.190   2.316  23.846  0.00  0.00    +0.281 C 
ATOM     24  N   UNL     1      -3.985   2.373  24.061  0.00  0.00    -0.086 NA
ATOM     25  O   UNL     1      -2.970   2.390  23.056  0.00  0.00    -0.270 OA
ENDBRANCH  16  23
BRANCH  16  17
ATOM     17  C   UNL     1      -2.633   2.617  25.128  0.00  0.00    +0.064 C 
BRANCH  17  18
ATOM     18  C   UNL     1      -2.225   3.331  25.183  0.00  0.00    +0.010 A 
ATOM     19  C   UNL     1      -1.406   3.428  25.140  0.00  0.00    +0.003 A 
ATOM     20  C   UNL     1      -1.239   4.231  25.220  0.00  0.00    +0.007 A 
ATOM     21  C   UNL     1      -1.954   4.632  25.313  0.00  0.00    +0.035 A 
ATOM     22  S   UNL     1      -2.563   4.076  25.290  0.00  0.00    -0.091 S 
ENDBRANCH  17  18
ENDBRANCH  16  17
ENDBRANCH  15  16
ENDBRANCH  11  13
BRANCH  26  28
ATOM     28  C   UNL     1      -2.618  -1.537  24.850  0.00  0.00    +0.227 C 
BRANCH  28  29
ATOM     29  O   UNL     1      -3.404  -1.785  24.895  0.00  0.00    -0.342 OA
ATOM     30  C   UNL     1      -3.583  -2.590  24.877  0.00  0.00    +0.175 C 
ENDBRANCH  28  29
ENDBRANCH  26  28
TORSDOF 10
ENDMDL
MODEL 3
REMARK VINA RESULT:      -8.0      1.992      4.251
REMARK  Name = 
REMARK  10 active torsions:
REMARK  status: ('A' for Active; 'I' for Inactive)
REMARK    1  A    between atoms: O_2  and  C_3
REMARK    2  A    between atoms: C_3  and  C_4
REMARK    3  A    between atoms: N_6  and  C_7
REMARK    4  A    between atoms: C_11  and  C_13
REMARK    5  A    between atoms: N_15  and  C_16
REMARK    6  A    between atoms: C_16  and  C_17
REMARK    7  A    between atoms: C_16  and  C_23
REMARK    8  A    between atoms: C_17  and  C_18
REMARK    9  A    between atoms: C_26  and  C_28
REMARK   10  A    between atoms: C_28  and  O_29
REMARK                            x       y       z     vdW  Elec       q    Type
REMARK                         _______ _______ _______ _____ _____    ______ ____
ROOT
ATOM      7  C   UNL     1      -2.663   2.105  24.105  0.00  0.00    +0.099 C 
ATOM      8  C   UNL     1      -1.964   2.269  23.699  0.00  0.00    +0.043 C 
ATOM      9  C   UNL     1      -1.354   1.714  23.687  0.00  0.00    +0.096 C 
ATOM     10  N   UNL     1      -1.443   0.994  24.082  0.00  0.00    -0.271 N 
ATOM     11  C   UNL     1      -2.142   0.831  24.488  0.00  0.00    +0.155 C 
ATOM     12  C   UNL     1      -2.752   1.386  24.500  0.00  0.00    +0.051 C 
ATOM     26  C   UNL     1      -0.833   0.440  24.070  0.00  0.00    +0.256 C 
ATOM     27  O   UNL     1      -0.921  -0.279  24.464  0.00  0.00    -0.272 OA
ENDROOT
BRANCH   7   6
ATOM      4  C   UNL     1      -3.338   3.188  24.748  0.00  0.00    +0.272 C 
ATOM      5  O   UNL     1      -2.793   3.162  25.367  0.00  0.00    -0.271 OA
ATOM      6  N   UNL     1      -3.274   2.660  24.117  0.00  0.00    -0.205 NA
BRANCH   4   3
ATOM      3  C   UNL     1      -3.948   3.744  24.760  0.00  0.00    +0.229 C 
BRANCH   3   2
ATOM      1  C   UNL     1      -5.199   4.062  25.373  0.00  0.00    +0.175 C 
ATOM      2  O   UNL     1      -4.409   3.836  25.439  0.00  0.00    -0.342 OA
ENDBRANCH   3   2
ENDBRANCH   4   3
ENDBRANCH   7   6
BRANCH  11  13
ATOM     13  C   UNL     1      -2.230   0.112  24.882  0.00  0.00    +0.260 C 
ATOM     14  O   UNL     1      -1.608  -0.189  25.335  0.00  0.00    -0.272 OA
ATOM     15  N   UNL     1      -2.938  -0.306  24.824  0.00  0.00    -0.196 NA
BRANCH  15  16
ATOM     16  C   UNL     1      -3.025  -1.026  25.219  0.00  0.00    +0.179 C 
BRANCH  16  23
ATOM     23  C   UNL     1      -3.307  -1.039  25.994  0.00  0.00    +0.281 C 
ATOM     24  N   UNL     1      -2.890  -1.448  26.577  0.00  0.00    -0.086 NA
ATOM     25  O   UNL     1      -4.005  -0.644  26.186  0.00  0.00    -0.270 OA
ENDBRANCH  16  23
BRANCH  16  17
ATOM     17  C   UNL     1      -2.831  -1.732  24.838  0.00  0.00    +0.064 C 
BRANCH  17  18
ATOM     18  C   UNL     1      -3.402  -2.134  24.399  0.00  0.00    +0.010 A 
ATOM     19  C   UNL     1      -3.977  -1.788  23.918  0.00  0.00    +0.003 A 
ATOM     20  C   UNL     1      -4.429  -2.393  23.585  0.00  0.00    +0.007 A 
ATOM     21  C   UNL     1      -4.134  -3.112  23.861  0.00  0.00    +0.035 A 
ATOM     22  S   UNL     1      -3.500  -2.952  24.364  0.00  0.00    -0.091 S 
ENDBRANCH  17  18
ENDBRANCH  16  17
ENDBRANCH  15  16
ENDBRANCH  11  13
BRANCH  26  28
ATOM     28  C   UNL     1      -0.133   0.604  23.663  0.00  0.00    +0.227 C 
BRANCH  28  29
ATOM     29  O   UNL     1       0.396  -0.006  23.490  0.00  0.00    -0.342 OA
ATOM     30  C   UNL     1       1.063   0.146  23.029  0.00  0.00    +0.175 C 
ENDBRANCH  28  29
ENDBRANCH  26  28
TORSDOF 10
ENDMDL
MODEL 4
REMARK VINA RESULT:      -8.0      1.811      4.477
REMARK  Name = 
REMARK  10 active torsions:
REMARK  status: ('A' for Active; 'I' for Inactive)
REMARK    1  A    between atoms: O_2  and  C_3
REMARK    2  A    between atoms: C_3  and  C_4
REMARK    3  A    between atoms: N_6  and  C_7
REMARK    4  A    between atoms: C_11  and  C_13
REMARK    5  A    between atoms: N_15  and  C_16
REMARK    6  A    between atoms: C_16  and  C_17
REMARK    7  A    between atoms: C_16  and  C_23
REMARK    8  A    between atoms: C_17  and  C_18
REMARK    9  A    between atoms: C_26  and  C_28
REMARK   10  A    between atoms: C_28  and  O_29
REMARK                            x       y       z     vdW  Elec       q    Type
REMARK                         _______ _______ _______ _____ _____    ______ ____
ROOT
ATOM      7  C   UNL     1      -4.219   1.028  24.514  0.00  0.00    +0.099 C 
ATOM      8  C   UNL     1      -4.651   0.325  24.478  0.00  0.00    +0.043 C 
ATOM      9  C   UNL     1      -4.262  -0.400  24.535  0.00  0.00    +0.096 C 
ATOM     10  N   UNL     1      -3.442  -0.423  24.628  0.00  0.00    -0.271 N 
ATOM     11  C   UNL     1      -3.012   0.280  24.664  0.00  0.00    +0.155 C 
ATOM     12  C   UNL     1      -3.401   1.006  24.607  0.00  0.00    +0.051 C 
ATOM     26  C   UNL     1      -3.054  -1.147  24.685  0.00  0.00    +0.256 C 
ATOM     27  O   UNL     1      -2.234  -1.171  24.778  0.00  0.00    -0.272 OA
ENDROOT
BRANCH   7   6
ATOM      4  C   UNL     1      -5.066   2.027  25.087  0.00  0.00    +0.272 C 
ATOM      5  O   UNL     1      -5.135   1.576  25.774  0.00  0.00    -0.271 OA
ATOM      6  N   UNL     1      -4.609   1.754  24.457  0.00  0.00    -0.205 NA
BRANCH   4   3
ATOM      3  C   UNL     1      -5.455   2.753  25.030  0.00  0.00    +0.229 C 
BRANCH   3   2
ATOM      1  C   UNL     1      -5.718   4.038  25.596  0.00  0.00    +0.175 C 
ATOM      2  O   UNL     1      -5.504   3.248  25.689  0.00  0.00    -0.342 OA
ENDBRANCH   3   2
ENDBRANCH   4   3
ENDBRANCH   7   6
BRANCH  11  13
ATOM     13  C   UNL     1      -2.193   0.257  24.757  0.00  0.00    +0.260 C 
ATOM     14  O   UNL     1      -1.844  -0.354  25.189  0.00  0.00    -0.272 OA
ATOM     15  N   UNL     1      -1.722   0.843  24.418  0.00  0.00    -0.196 NA
BRANCH  15  16
ATOM     16  C   UNL     1      -0.902   0.819  24.512  0.00  0.00    +0.179 C 
BRANCH  16  23
ATOM     23  C   UNL     1      -0.426   0.538  23.899  0.00  0.00    +0.281 C 
ATOM     24  N   UNL     1       0.178  -0.001  24.061  0.00  0.00    -0.086 NA
ATOM     25  O   UNL     1      -0.552   0.796  23.127  0.00  0.00    -0.270 OA
ENDBRANCH  16  23
BRANCH  16  17
ATOM     17  C   UNL     1      -0.559   1.075  25.217  0.00  0.00    +0.064 C 
BRANCH  17  18
ATOM     18  C   UNL     1      -0.428   1.879  25.343  0.00  0.00    +0.010 A 
ATOM     19  C   UNL     1      -0.424   2.467  24.763  0.00  0.00    +0.003 A 
ATOM     20  C   UNL     1      -0.271   3.189  25.132  0.00  0.00    +0.007 A 
ATOM     21  C   UNL     1      -0.181   3.048  25.940  0.00  0.00    +0.035 A 
ATOM     22  S   UNL     1      -0.278   2.239  26.070  0.00  0.00    -0.091 S 
ENDBRANCH  17  18
ENDBRANCH  16  17
ENDBRANCH  15  16
ENDBRANCH  11  13
BRANCH  26  28
ATOM     28  C   UNL     1      -3.484  -1.851  24.649  0.00  0.00    +0.227 C 
BRANCH  28  29
ATOM     29  O   UNL     1      -3.090  -2.573  24.578  0.00  0.00    -0.342 OA
ATOM     30  C   UNL     1      -3.521  -3.269  24.474  0.00  0.00    +0.175 C 
ENDBRANCH  28  29
ENDBRANCH  26  28
TORSDOF 10
ENDMDL
MODEL 5
REMARK VINA RESULT:      -7.9      1.958      3.664
REMARK  Name = 
REMARK  10 active torsions:
REMARK  status: ('A' for Active; 'I' for Inactive)
REMARK    1  A    between atoms: O_2  and  C_3
REMARK    2  A    between atoms: C_3  and  C_4
REMARK    3  A    between atoms: N_6  and  C_7
REMARK    4  A    between atoms: C_11  and  C_13
REMARK    5  A    between atoms: N_15  and  C_16
REMARK    6  A    between atoms: C_16  and  C_17
REMARK    7  A    between atoms: C_16  and  C_23
REMARK    8  A    between atoms: C_17  and  C_18
REMARK    9  A    between atoms: C_26  and  C_28
REMARK   10  A    between atoms: C_28  and  O_29
REMARK                            x       y       z     vdW  Elec       q    Type
REMARK                         _______ _______ _______ _____ _____    ______ ____
ROOT
ATOM      7  C   UNL     1      -3.360   0.802  24.426  0.00  0.00    +0.099 C 
ATOM      8  C   UNL     1      -3.248  -0.015  24.430  0.00  0.00    +0.043 C 
ATOM      9  C   UNL     1      -2.493  -0.326  24.550  0.00  0.00    +0.096 C 
ATOM     10  N   UNL     1      -1.852   0.180  24.667  0.00  0.00    -0.271 N 
ATOM     11  C   UNL     1      -1.966   0.997  24.664  0.00  0.00    +0.155 C 
ATOM     12  C   UNL     1      -2.720   1.308  24.543  0.00  0.00    +0.051 C 
ATOM     26  C   UNL     1      -1.098  -0.131  24.788  0.00  0.00    +0.256 C 
ATOM     27  O   UNL     1      -0.457   0.374  24.905  0.00  0.00    -0.272 OA
ENDROOT
BRANCH   7   6
ATOM      4  C   UNL     1      -4.692   1.035  24.891  0.00  0.00    +0.272 C 
ATOM      5  O   UNL     1      -4.515   0.645  25.596  0.00  0.00    -0.271 OA
ATOM      6  N   UNL     1      -4.116   1.114  24.306  0.00  0.00    -0.205 NA
BRANCH   4   3
ATOM      3  C   UNL     1      -5.447   1.346  24.771  0.00  0.00    +0.229 C 
BRANCH   3   2
ATOM      1  C   UNL     1      -6.549   2.129  25.233  0.00  0.00    +0.175 C 
ATOM      2  O   UNL     1      -5.817   1.776  25.371  0.00  0.00    -0.342 OA
ENDBRANCH   3   2
ENDBRANCH   4   3
ENDBRANCH   7   6
BRANCH  11  13
ATOM     13  C   UNL     1      -1.324   1.502  24.781  0.00  0.00    +0.260 C 
ATOM     14  O   UNL     1      -0.627   1.388  24.354  0.00  0.00    -0.272 OA
ATOM     15  N   UNL     1      -1.379   2.120  25.323  0.00  0.00    -0.196 NA
BRANCH  15  16
ATOM     16  C   UNL     1      -0.737   2.625  25.440  0.00  0.00    +0.179 C 
BRANCH  16  23
ATOM     23  C   UNL     1      -0.252   2.529  26.101  0.00  0.00    +0.281 C 
ATOM     24  N   UNL     1       0.569   2.513  26.010  0.00  0.00    -0.086 NA
ATOM     25  O   UNL     1      -0.586   2.448  26.850  0.00  0.00    -0.270 OA
ENDBRANCH  16  23
BRANCH  16  17
ATOM     17  C   UNL     1      -0.580   3.226  24.897  0.00  0.00    +0.064 C 
BRANCH  17  18
ATOM     18  C   UNL     1      -0.933   3.965  24.988  0.00  0.00    +0.010 A 
ATOM     19  C   UNL     1      -1.665   4.115  25.340  0.00  0.00    +0.003 A 
ATOM     20  C   UNL     1      -1.801   4.928  25.313  0.00  0.00    +0.007 A 
ATOM     21  C   UNL     1      -1.154   5.282  24.943  0.00  0.00    +0.035 A 
ATOM     22  S   UNL     1      -0.618   4.687  24.743  0.00  0.00    -0.091 S 
ENDBRANCH  17  18
ENDBRANCH  16  17
ENDBRANCH  15  16
ENDBRANCH  11  13
BRANCH  26  28
ATOM     28  C   UNL     1      -0.984  -0.949  24.791  0.00  0.00    +0.227 C 
BRANCH  28  29
ATOM     29  O   UNL     1      -0.277  -1.266  25.076  0.00  0.00    -0.342 OA
ATOM     30  C   UNL     1      -0.211  -2.079  25.200  0.00  0.00    +0.175 C 
ENDBRANCH  28  29
ENDBRANCH  26  28
TORSDOF 10
ENDMDL
MODEL 6
REMARK VINA RESULT:      -7.8      1.693      3.411
REMARK  Name = 
REMARK  10 active torsions:
REMARK  status: ('A' for Active; 'I' for Inactive)
REMARK    1  A    between atoms: O_2  and  C_3
REMARK    2  A    between atoms: C_3  and  C_4
REMARK    3  A    between atoms: N_6  and  C_7
REMARK    4  A    between atoms: C_11  and  C_13
REMARK    5  A    between atoms: N_15  and  C_16
REMARK    6  A    between atoms: C_16  and  C_17
REMARK    7  A    between atoms: C_16  and  C_23
REMARK    8  A    between atoms: C_17  and  C_18
REMARK    9  A    between atoms: C_26  and  C_28
REMARK   10  A    between atoms: C_28  and  O_29
REMARK                            x       y       z     vdW  Elec       q    Type
REMARK                         _______ _______ _______ _____ _____    ______ ____
ROOT
ATOM      7  C   UNL     1      -4.227   0.161  24.356  0.00  0.00    +0.099 C 
ATOM      8  C   UNL     1      -4.918   0.453  24.700  0.00  0.00    +0.043 C 
ATOM      9  C   UNL     1      -4.974   1.253  24.897  0.00  0.00    +0.096 C 
ATOM     10  N   UNL     1      -4.340   1.760  24.749  0.00  0.00    -0.271 N 
ATOM     11  C   UNL     1      -3.650   1.467  24.405  0.00  0.00    +0.155 C 
ATOM     12  C   UNL     1      -3.593   0.667  24.209  0.00  0.00    +0.051 C 
ATOM     26  C   UNL     1      -4.396   2.558  24.945  0.00  0.00    +0.256 C 
ATOM     27  O   UNL     1      -3.762   3.065  24.797  0.00  0.00    -0.272 OA
ENDROOT
BRANCH   7   6
ATOM      4  C   UNL     1      -3.980  -1.193  24.740  0.00  0.00    +0.272 C 
ATOM      5  O   UNL     1      -3.845  -0.949  25.517  0.00  0.00    -0.271 OA
ATOM      6  N   UNL     1      -4.171  -0.639  24.160  0.00  0.00    -0.205 NA
BRANCH   4   3
ATOM      3  C   UNL     1      -3.923  -1.993  24.544  0.00  0.00    +0.229 C 
BRANCH   3   2
ATOM      1  C   UNL     1      -3.265  -3.248  24.724  0.00  0.00    +0.175 C 
ATOM      2  O   UNL     1      -3.465  -2.500  25.007  0.00  0.00    -0.342 OA
ENDBRANCH   3   2
ENDBRANCH   4   3
ENDBRANCH   7   6
BRANCH  11  13
ATOM     13  C   UNL     1      -3.016   1.974  24.257  0.00  0.00    +0.260 C 
ATOM     14  O   UNL     1      -3.145   2.694  23.874  0.00  0.00    -0.272 OA
ATOM     15  N   UNL     1      -2.255   1.762  24.492  0.00  0.00    -0.196 NA
BRANCH  15  16
ATOM     16  C   UNL     1      -1.621   2.270  24.344  0.00  0.00    +0.179 C 
BRANCH  16  23
ATOM     23  C   UNL     1      -1.219   2.229  23.625  0.00  0.00    +0.281 C 
ATOM     24  N   UNL     1      -0.972   1.497  23.333  0.00  0.00    -0.086 NA
ATOM     25  O   UNL     1      -1.065   2.916  23.198  0.00  0.00    -0.270 OA
ENDBRANCH  16  23
BRANCH  16  17
ATOM     17  C   UNL     1      -1.390   2.819  24.915  0.00  0.00    +0.064 C 
BRANCH  17  18
ATOM     18  C   UNL     1      -0.830   2.611  25.483  0.00  0.00    +0.010 A 
ATOM     19  C   UNL     1      -0.800   1.897  25.898  0.00  0.00    +0.003 A 
ATOM     20  C   UNL     1      -0.152   1.924  26.408  0.00  0.00    +0.007 A 
ATOM     21  C   UNL     1       0.218   2.655  26.310  0.00  0.00    +0.035 A 
ATOM     22  S   UNL     1      -0.200   3.079  25.739  0.00  0.00    -0.091 S 
ENDBRANCH  17  18
ENDBRANCH  16  17
ENDBRANCH  15  16
ENDBRANCH  11  13
BRANCH  26  28
ATOM     28  C   UNL     1      -5.087   2.851  25.289  0.00  0.00    +0.227 C 
BRANCH  28  29
ATOM     29  O   UNL     1      -5.116   3.633  25.554  0.00  0.00    -0.342 OA
ATOM     30  C   UNL     1      -5.845   3.995  25.688  0.00  0.00    +0.175 C 
ENDBRANCH  28  29
ENDBRANCH  26  28
TORSDOF 10
ENDMDL
MODEL 7
REMARK VINA RESULT:      -7.7      2.216      4.334
REMARK  Name = 
REMARK  10 active torsions:
REMARK  status: ('A' for Active; 'I' for Inactive)
REMARK    1  A    between atoms: O_2  and  C_3
REMARK    2  A    between atoms: C_3  and  C_4
REMARK    3  A    between atoms: N_6  and  C_7
REMARK    4  A    between atoms: C_11  and  C_13
REMARK    5  A    between atoms: N_15  and  C_16
REMARK    6  A    between atoms: C_16  and  C_17
REMARK    7  A    between atoms: C_16  and  C_23
REMARK    8  A    between atoms: C_17  and  C_18
REMARK    9  A    between atoms: C_26  and  C_28
REMARK   10  A    between atoms: C_28  and  O_29
REMARK                            x       y       z     vdW  Elec       q    Type
REMARK                         _______ _______ _______ _____ _____    ______ ____
ROOT
ATOM      7  C   UNL     1      -0.600   1.972  25.094  0.00  0.00    +0.099 C 
ATOM      8  C   UNL     1       0.033   2.172  24.603  0.00  0.00    +0.043 C 
ATOM      9  C   UNL     1       0.374   1.600  24.117  0.00  0.00    +0.096 C 
ATOM     10  N   UNL     1       0.084   0.827  24.121  0.00  0.00    -0.271 N 
ATOM     11  C   UNL     1      -0.548   0.628  24.612  0.00  0.00    +0.155 C 
ATOM     12  C   UNL     1      -0.890   1.200  25.099  0.00  0.00    +0.051 C 
ATOM     26  C   UNL     1       0.425   0.255  23.636  0.00  0.00    +0.256 C 
ATOM     27  O   UNL     1       0.135  -0.517  23.640  0.00  0.00    -0.272 OA
ENDROOT
BRANCH   7   6
ATOM      4  C   UNL     1      -1.486   3.080  25.267  0.00  0.00    +0.272 C 
ATOM      5  O   UNL     1      -1.689   3.043  24.468  0.00  0.00    -0.271 OA
ATOM      6  N   UNL     1      -0.942   2.544  25.580  0.00  0.00    -0.205 NA
BRANCH   4   3
ATOM      3  C   UNL     1      -1.828   3.652  25.753  0.00  0.00    +0.229 C 
BRANCH   3   2
ATOM      1  C   UNL     1      -3.015   4.329  26.171  0.00  0.00    +0.175 C 
ATOM      2  O   UNL     1      -2.585   3.936  25.587  0.00  0.00    -0.342 OA
ENDBRANCH   3   2
ENDBRANCH   4   3
ENDBRANCH   7   6
BRANCH  11  13
ATOM     13  C   UNL     1      -0.839  -0.144  24.617  0.00  0.00    +0.260 C 
ATOM     14  O   UNL     1      -0.357  -0.767  24.367  0.00  0.00    -0.272 OA
ATOM     15  N   UNL     1      -1.608  -0.295  24.870  0.00  0.00    -0.196 NA
BRANCH  15  16
ATOM     16  C   UNL     1      -1.898  -1.068  24.874  0.00  0.00    +0.179 C 
BRANCH  16  23
ATOM     23  C   UNL     1      -1.756  -1.557  25.522  0.00  0.00    +0.281 C 
ATOM     24  N   UNL     1      -1.471  -2.324  25.405  0.00  0.00    -0.086 NA
ATOM     25  O   UNL     1      -1.898  -1.282  26.286  0.00  0.00    -0.270 OA
ENDBRANCH  16  23
BRANCH  16  17
ATOM     17  C   UNL     1      -2.330  -1.350  24.230  0.00  0.00    +0.064 C 
BRANCH  17  18
ATOM     18  C   UNL     1      -3.142  -1.215  24.187  0.00  0.00    +0.010 A 
ATOM     19  C   UNL     1      -3.509  -0.479  24.128  0.00  0.00    +0.003 A 
ATOM     20  C   UNL     1      -4.325  -0.601  24.100  0.00  0.00    +0.007 A 
ATOM     21  C   UNL     1      -4.461  -1.414  24.142  0.00  0.00    +0.035 A 
ATOM     22  S   UNL     1      -3.731  -1.793  24.196  0.00  0.00    -0.091 S 
ENDBRANCH  17  18
ENDBRANCH  16  17
ENDBRANCH  15  16
ENDBRANCH  11  13
BRANCH  26  28
ATOM     28  C   UNL     1       1.058   0.455  23.144  0.00  0.00    +0.227 C 
BRANCH  28  29
ATOM     29  O   UNL     1       1.455  -0.134  22.723  0.00  0.00    -0.342 OA
ATOM     30  C   UNL     1       2.171   0.038  22.352  0.00  0.00    +0.175 C 
ENDBRANCH  28  29
ENDBRANCH  26  28
TORSDOF 10
ENDMDL
MODEL 8
REMARK VINA RESULT:      -7.6      2.151      3.169
REMARK  Name = 
REMARK  10 active torsions:
REMARK  status: ('A' for Active; 'I' for Inactive)
REMARK    1  A    between atoms: O_2  and  C_3
REMARK    2  A    between atoms: C_3  and  C_4
REMARK    3  A    between atoms: N_6  and  C_7
REMARK    4  A    between atoms: C_11  and  C_13
REMARK    5  A    between atoms: N_15  and  C_16
REMARK    6  A    between atoms: C_16  and  C_17
REMARK    7  A    between atoms: C_16  and  C_23
REMARK    8  A    between atoms: C_17  and  C_18
REMARK    9  A    between atoms: C_26  and  C_28
REMARK   10  A    between atoms: C_28  and  O_29
REMARK                            x       y       z     vdW  Elec       q    Type
REMARK                         _______ _______ _______ _____ _____    ______ ____
ROOT
ATOM      7  C   UNL     1      -0.247   1.192  24.489  0.00  0.00    +0.099 C 
ATOM      8  C   UNL     1       0.051   1.955  24.589  0.00  0.00    +0.043 C 
ATOM      9  C   UNL     1      -0.449   2.564  24.833  0.00  0.00    +0.096 C 
ATOM     10  N   UNL     1      -1.247   2.411  24.976  0.00  0.00    -0.271 N 
ATOM     11  C   UNL     1      -1.544   1.648  24.876  0.00  0.00    +0.155 C 
ATOM     12  C   UNL     1      -1.044   1.039  24.633  0.00  0.00    +0.051 C 
ATOM     26  C   UNL     1      -1.747   3.019  25.220  0.00  0.00    +0.256 C 
ATOM     27  O   UNL     1      -2.545   2.866  25.363  0.00  0.00    -0.272 OA
ENDROOT
BRANCH   7   6
ATOM      4  C   UNL     1       0.416   0.479  23.443  0.00  0.00    +0.272 C 
ATOM      5  O   UNL     1       0.078   0.983  22.884  0.00  0.00    -0.271 OA
ATOM      6  N   UNL     1       0.253   0.582  24.245  0.00  0.00    -0.205 NA
BRANCH   4   3
ATOM      3  C   UNL     1       0.916  -0.131  23.199  0.00  0.00    +0.229 C 
BRANCH   3   2
ATOM      1  C   UNL     1       2.105  -0.341  22.436  0.00  0.00    +0.175 C 
ATOM      2  O   UNL     1       1.330  -0.065  22.488  0.00  0.00    -0.342 OA
ENDBRANCH   3   2
ENDBRANCH   4   3
ENDBRANCH   7   6
BRANCH  11  13
ATOM     13  C   UNL     1      -2.342   1.495  25.020  0.00  0.00    +0.260 C 
ATOM     14  O   UNL     1      -2.737   1.897  25.624  0.00  0.00    -0.272 OA
ATOM     15  N   UNL     1      -2.745   0.942  24.561  0.00  0.00    -0.196 NA
BRANCH  15  16
ATOM     16  C   UNL     1      -3.544   0.789  24.706  0.00  0.00    +0.179 C 
BRANCH  16  23
ATOM     23  C   UNL     1      -4.124   1.202  24.289  0.00  0.00    +0.281 C 
ATOM     24  N   UNL     1      -4.799   1.471  24.681  0.00  0.00    -0.086 NA
ATOM     25  O   UNL     1      -4.029   1.346  23.483  0.00  0.00    -0.270 OA
ENDBRANCH  16  23
BRANCH  16  17
ATOM     17  C   UNL     1      -3.761   0.223  25.266  0.00  0.00    +0.064 C 
BRANCH  17  18
ATOM     18  C   UNL     1      -3.748  -0.577  25.069  0.00  0.00    +0.010 A 
ATOM     19  C   UNL     1      -4.042  -0.912  24.374  0.00  0.00    +0.003 A 
ATOM     20  C   UNL     1      -3.915  -1.726  24.408  0.00  0.00    +0.007 A 
ATOM     21  C   UNL     1      -3.542  -1.895  25.125  0.00  0.00    +0.035 A 
ATOM     22  S   UNL     1      -3.439  -1.186  25.533  0.00  0.00    -0.091 S 
ENDBRANCH  17  18
ENDBRANCH  16  17
ENDBRANCH  15  16
ENDBRANCH  11  13
BRANCH  26  28
ATOM     28  C   UNL     1      -1.449   3.783  25.320  0.00  0.00    +0.227 C 
BRANCH  28  29
ATOM     29  O   UNL     1      -1.964   4.428  25.331  0.00  0.00    -0.342 OA
ATOM     30  C   UNL     1      -1.666   5.194  25.262  0.00  0.00    +0.175 C 
ENDBRANCH  28  29
ENDBRANCH  26  28
TORSDOF 10
ENDMDL
MODEL 9
REMARK VINA RESULT:      -7.6      1.586      3.647
REMARK  Name = 
REMARK  10 active torsions:
REMARK  status: ('A' for Active; 'I' for Inactive)
REMARK    1  A    between atoms: O_2  and  C_3
REMARK    2  A    between atoms: C_3  and  C_4
REMARK    3  A    between atoms: N_6  and  C_7
REMARK    4  A    between atoms: C_11  and  C_13
REMARK    5  A    between atoms: N_15  and  C_16
REMARK    6  A    between atoms: C_16  and  C_17
REMARK    7  A    between atoms: C_16  and  C_23
REMARK    8  A    between atoms: C_17  and  C_18
REMARK    9  A    between atoms: C_26  and  C_28
REMARK   10  A    between atoms: C_28  and  O_29
REMARK                            x       y       z     vdW  Elec       q    Type
REMARK                         _______ _______ _______ _____ _____    ______ ____
ROOT
ATOM      7  C   UNL     1      -0.935   1.850  24.564  0.00  0.00    +0.099 C 
ATOM      8  C   UNL     1      -0.257   1.383  24.621  0.00  0.00    +0.043 C 
ATOM      9  C   UNL     1      -0.325   0.578  24.789  0.00  0.00    +0.096 C 
ATOM     10  N   UNL     1      -1.070   0.240  24.901  0.00  0.00    -0.271 N 
ATOM     11  C   UNL     1      -1.747   0.708  24.844  0.00  0.00    +0.155 C 
ATOM     12  C   UNL     1      -1.679   1.513  24.676  0.00  0.00    +0.051 C 
ATOM     26  C   UNL     1      -1.137  -0.564  25.069  0.00  0.00    +0.256 C 
ATOM     27  O   UNL     1      -1.881  -0.902  25.180  0.00  0.00    -0.272 OA
ENDROOT
BRANCH   7   6
ATOM      4  C   UNL     1      -0.812   3.202  25.012  0.00  0.00    +0.272 C 
ATOM      5  O   UNL     1      -0.823   2.944  25.796  0.00  0.00    -0.271 OA
ATOM      6  N   UNL     1      -0.868   2.656  24.396  0.00  0.00    -0.205 NA
BRANCH   4   3
ATOM      3  C   UNL     1      -0.745   4.007  24.843  0.00  0.00    +0.229 C 
BRANCH   3   2
ATOM      1  C   UNL     1      -1.260   5.327  25.028  0.00  0.00    +0.175 C 
ATOM      2  O   UNL     1      -1.144   4.560  25.308  0.00  0.00    -0.342 OA
ENDBRANCH   3   2
ENDBRANCH   4   3
ENDBRANCH   7   6
BRANCH  11  13
ATOM     13  C   UNL     1      -2.491   0.370  24.956  0.00  0.00    +0.260 C 
ATOM     14  O   UNL     1      -2.600  -0.202  25.541  0.00  0.00    -0.272 OA
ATOM     15  N   UNL     1      -3.125   0.603  24.484  0.00  0.00    -0.196 NA
BRANCH  15  16
ATOM     16  C   UNL     1      -3.869   0.265  24.596  0.00  0.00    +0.179 C 
BRANCH  16  23
ATOM     23  C   UNL     1      -4.125  -0.341  24.098  0.00  0.00    +0.281 C 
ATOM     24  N   UNL     1      -4.488  -1.011  24.418  0.00  0.00    -0.086 NA
ATOM     25  O   UNL     1      -4.020  -0.278  23.284  0.00  0.00    -0.270 OA
ENDBRANCH  16  23
BRANCH  16  17
ATOM     17  C   UNL     1      -4.357   0.532  25.205  0.00  0.00    +0.064 C 
BRANCH  17  18
ATOM     18  C   UNL     1      -4.852   1.180  25.083  0.00  0.00    +0.010 A 
ATOM     19  C   UNL     1      -4.670   1.853  24.640  0.00  0.00    +0.003 A 
ATOM     20  C   UNL     1      -5.322   2.359  24.664  0.00  0.00    +0.007 A 
ATOM     21  C   UNL     1      -5.906   1.998  25.122  0.00  0.00    +0.035 A 
ATOM     22  S   UNL     1      -5.616   1.271  25.380  0.00  0.00    -0.091 S 
ENDBRANCH  17  18
ENDBRANCH  16  17
ENDBRANCH  15  16
ENDBRANCH  11  13
BRANCH  26  28
ATOM     28  C   UNL     1      -0.459  -1.032  25.125  0.00  0.00    +0.227 C 
BRANCH  28  29
ATOM     29  O   UNL     1      -0.525  -1.831  25.324  0.00  0.00    -0.342 OA
ATOM     30  C   UNL     1       0.146  -2.312  25.323  0.00  0.00    +0.175 C 
ENDBRANCH  28  29
ENDBRANCH  26  28
TORSDOF 10
ENDMDL
MODEL 10
REMARK VINA RESULT:      -7.4      1.294      1.536
REMARK  Name = 
REMARK  10 active torsions:
REMARK  status: ('A' for Active; 'I' for Inactive)
REMARK    1  A    between atoms: O_2  and  C_3
REMARK    2  A    between atoms: C_3  and  C_4
REMARK    3  A    between atoms: N_6  and  C_7
REMARK    4  A    between atoms: C_11  and  C_13
REMARK    5  A    between atoms: N_15  and  C_16
REMARK    6  A    between atoms: C_16  and  C_17
REMARK    7  A    between atoms: C_16  and  C_23
REMARK    8  A    between atoms: C_17  and  C_18
REMARK    9  A    between atoms: C_26  and  C_28
REMARK   10  A    between atoms: C_28  and  O_29
REMARK                            x       y       z     vdW  Elec       q    Type
REMARK                         _______ _______ _______ _____ _____    ______ ____
ROOT
ATOM      7  C   UNL     1      -1.977  -0.225  25.203  0.00  0.00    +0.099 C 
ATOM      8  C   UNL     1      -1.187  -0.414  25.056  0.00  0.00    +0.043 C 
ATOM      9  C   UNL     1      -0.667   0.168  24.788  0.00  0.00    +0.096 C 
ATOM     10  N   UNL     1      -0.937   0.939  24.668  0.00  0.00    -0.271 N 
ATOM     11  C   UNL     1      -1.726   1.127  24.815  0.00  0.00    +0.155 C 
ATOM     12  C   UNL     1      -2.246   0.545  25.082  0.00  0.00    +0.051 C 
ATOM     26  C   UNL     1      -0.417   1.520  24.400  0.00  0.00    +0.256 C 
ATOM     27  O   UNL     1      -0.686   2.291  24.280  0.00  0.00    -0.272 OA
ENDROOT
BRANCH   7   6
ATOM      4  C   UNL     1      -2.852  -1.322  24.932  0.00  0.00    +0.272 C 
ATOM      5  O   UNL     1      -2.686  -1.257  24.126  0.00  0.00    -0.271 OA
ATOM      6  N   UNL     1      -2.497  -0.807  25.471  0.00  0.00    -0.205 NA
BRANCH   4   3
ATOM      3  C   UNL     1      -3.372  -1.904  25.199  0.00  0.00    +0.229 C 
BRANCH   3   2
ATOM      1  C   UNL     1      -3.722  -3.241  24.834  0.00  0.00    +0.175 C 
ATOM      2  O   UNL     1      -3.709  -2.434  24.664  0.00  0.00    -0.342 OA
ENDBRANCH   3   2
ENDBRANCH   4   3
ENDBRANCH   7   6
BRANCH  11  13
ATOM     13  C   UNL     1      -1.995   1.897  24.694  0.00  0.00    +0.260 C 
ATOM     14  O   UNL     1      -1.737   2.326  24.037  0.00  0.00    -0.272 OA
ATOM     15  N   UNL     1      -2.520   2.239  25.229  0.00  0.00    -0.196 NA
BRANCH  15  16
ATOM     16  C   UNL     1      -2.789   3.011  25.108  0.00  0.00    +0.179 C 
BRANCH  16  23
ATOM     23  C   UNL     1      -2.424   3.640  25.497  0.00  0.00    +0.281 C 
ATOM     24  N   UNL     1      -2.227   4.324  25.079  0.00  0.00    -0.086 NA
ATOM     25  O   UNL     1      -2.256   3.586  26.302  0.00  0.00    -0.270 OA
ENDBRANCH  16  23
BRANCH  16  17
ATOM     17  C   UNL     1      -3.423   3.152  24.599  0.00  0.00    +0.064 C 
BRANCH  17  18
ATOM     18  C   UNL     1      -4.196   3.051  24.865  0.00  0.00    +0.010 A 
ATOM     19  C   UNL     1      -4.715   2.452  24.636  0.00  0.00    +0.003 A 
ATOM     20  C   UNL     1      -5.428   2.562  25.037  0.00  0.00    +0.007 A 
ATOM     21  C   UNL     1      -5.349   3.230  25.515  0.00  0.00    +0.035 A 
ATOM     22  S   UNL     1      -4.589   3.532  25.409  0.00  0.00    -0.091 S 
ENDBRANCH  17  18
ENDBRANCH  16  17
ENDBRANCH  15  16
ENDBRANCH  11  13
BRANCH  26  28
ATOM     28  C   UNL     1       0.373   1.332  24.253  0.00  0.00    +0.227 C 
BRANCH  28  29
ATOM     29  O   UNL     1       0.872   1.890  23.905  0.00  0.00    -0.342 OA
ATOM     30  C   UNL     1       1.583   1.649  23.563  0.00  0.00    +0.175 C 
ENDBRANCH  28  29
ENDBRANCH  26  28
TORSDOF 10
ENDMDL
