MODEL 1
REMARK VINA RESULT:      -9.1      0.000      0.000
REMARK  Name = 
REMARK  6 active torsions:
REMARK  status: ('A' for Active; 'I' for Inactive)
REMARK    1  A    between atoms: O_2  and  C_3
REMARK    2  A    between atoms: C_6  and  C_9
REMARK    3  A    between atoms: N_14  and  C_15
REMARK    4  A    between atoms: C_19  and  N_23
REMARK    5  A    between atoms: N_23  and  C_24
REMARK    6  A    between atoms: C_24  and  C_25
REMARK                            x       y       z     vdW  Elec       q    Type
REMARK                         _______ _______ _______ _____ _____    ______ ____
ROOT
ATOM     15  C   UNL     1      -0.398   1.334  24.370  0.00  0.00    +0.154 C 
ATOM     16  C   UNL     1       0.078   1.947  24.650  0.00  0.00    +0.166 C 
ATOM     17  O   UNL     1       0.833   1.847  24.334  0.00  0.00    -0.350 OA
ATOM     18  C   UNL     1       0.824   1.174  23.859  0.00  0.00    +0.162 C 
ATOM     19  C   UNL     1       1.284   0.695  23.369  0.00  0.00    +0.132 C 
ATOM     20  C   UNL     1       0.808   0.082  23.089  0.00  0.00    +0.162 C 
ATOM     21  O   UNL     1       0.053   0.182  23.405  0.00  0.00    -0.350 OA
ATOM     22  C   UNL     1       0.063   0.856  23.881  0.00  0.00    +0.166 C 
ENDROOT
BRANCH  15  14
ATOM      9  C   UNL     1      -3.047   2.373  24.646  0.00  0.00    +0.086 A 
ATOM     10  C   UNL     1      -2.776   3.121  24.428  0.00  0.00    +0.040 A 
ATOM     11  C   UNL     1      -1.978   3.236  24.250  0.00  0.00    +0.103 A 
ATOM     12  N   UNL     1      -1.452   2.602  24.290  0.00  0.00    -0.211 NA
ATOM     13  C   UNL     1      -1.723   1.853  24.508  0.00  0.00    +0.237 A 
ATOM     14  N   UNL     1      -1.196   1.220  24.548  0.00  0.00    -0.200 NA
ATOM     31  N   UNL     1      -2.520   1.739  24.686  0.00  0.00    -0.212 NA
BRANCH   9   6
ATOM      3  C   UNL     1      -5.440   2.030  25.179  0.00  0.00    +0.139 A 
ATOM      4  C   UNL     1      -5.045   2.699  25.461  0.00  0.00    +0.037 A 
ATOM      5  C   UNL     1      -4.248   2.813  25.283  0.00  0.00    +0.005 A 
ATOM      6  C   UNL     1      -3.844   2.259  24.824  0.00  0.00    +0.018 A 
ATOM      7  C   UNL     1      -4.238   1.591  24.542  0.00  0.00    +0.005 A 
ATOM      8  C   UNL     1      -5.036   1.477  24.720  0.00  0.00    +0.037 A 
BRANCH   3   2
ATOM      1  C   UNL     1      -6.481   1.869  26.144  0.00  0.00    +0.252 C 
ATOM      2  O   UNL     1      -6.237   1.916  25.357  0.00  0.00    -0.471 OA
ENDBRANCH   3   2
ENDBRANCH   9   6
ENDBRANCH  15  14
BRANCH  19  23
ATOM     23  N   UNL     1       2.082   0.809  23.192  0.00  0.00    -0.208 NA
BRANCH  23  24
ATOM     24  C   UNL     1       2.528   0.189  22.881  0.00  0.00    +0.134 C 
BRANCH  24  25
ATOM     25  C   UNL     1       3.350   0.189  22.965  0.00  0.00    +0.077 A 
ATOM     26  N   UNL     1       3.730  -0.459  23.304  0.00  0.00    -0.247 NA
ATOM     27  C   UNL     1       4.551  -0.460  23.388  0.00  0.00    +0.098 A 
ATOM     28  C   UNL     1       4.991   0.190  23.132  0.00  0.00    +0.021 A 
ATOM     29  C   UNL     1       4.610   0.838  22.793  0.00  0.00    +0.003 A 
ATOM     30  C   UNL     1       3.789   0.838  22.709  0.00  0.00    +0.016 A 
ENDBRANCH  24  25
ENDBRANCH  23  24
ENDBRANCH  19  23
TORSDOF 6
ENDMDL
MODEL 2
REMARK VINA RESULT:      -8.6      1.334      7.218
REMARK  Name = 
REMARK  6 active torsions:
REMARK  status: ('A' for Active; 'I' for Inactive)
REMARK    1  A    between atoms: O_2  and  C_3
REMARK    2  A    between atoms: C_6  and  C_9
REMARK    3  A    between atoms: N_14  and  C_15
REMARK    4  A    between atoms: C_19  and  N_23
REMARK    5  A    between atoms: N_23  and  C_24
REMARK    6  A    between atoms: C_24  and  C_25
REMARK                            x       y       z     vdW  Elec       q    Type
REMARK                         _______ _______ _______ _____ _____    ______ ____
ROOT
ATOM     15  C   UNL     1      -0.500   1.089  24.232  0.00  0.00    +0.154 C 
ATOM     16  C   UNL     1      -0.962   0.405  24.246  0.00  0.00    +0.166 C 
ATOM     17  O   UNL     1      -1.753   0.634  24.291  0.00  0.00    -0.350 OA
ATOM     18  C   UNL     1      -1.781   1.457  24.304  0.00  0.00    +0.162 C 
ATOM     19  C   UNL     1      -2.286   2.109  24.341  0.00  0.00    +0.132 C 
ATOM     20  C   UNL     1      -1.825   2.792  24.327  0.00  0.00    +0.162 C 
ATOM     21  O   UNL     1      -1.033   2.563  24.282  0.00  0.00    -0.350 OA
ATOM     22  C   UNL     1      -1.006   1.739  24.268  0.00  0.00    +0.166 C 
ENDROOT
BRANCH  15  14
ATOM      9  C   UNL     1       1.946   0.243  23.019  0.00  0.00    +0.086 A 
ATOM     10  C   UNL     1       1.522  -0.236  22.498  0.00  0.00    +0.040 A 
ATOM     11  C   UNL     1       0.698  -0.264  22.541  0.00  0.00    +0.103 A 
ATOM     12  N   UNL     1       0.298   0.187  23.104  0.00  0.00    -0.211 NA
ATOM     13  C   UNL     1       0.723   0.666  23.625  0.00  0.00    +0.237 A 
ATOM     14  N   UNL     1       0.324   1.117  24.189  0.00  0.00    -0.200 NA
ATOM     31  N   UNL     1       1.546   0.694  23.582  0.00  0.00    -0.212 NA
BRANCH   9   6
ATOM      3  C   UNL     1       4.416   0.325  22.890  0.00  0.00    +0.139 A 
ATOM      4  C   UNL     1       3.969   0.989  22.687  0.00  0.00    +0.037 A 
ATOM      5  C   UNL     1       3.146   0.961  22.730  0.00  0.00    +0.005 A 
ATOM      6  C   UNL     1       2.769   0.270  22.976  0.00  0.00    +0.018 A 
ATOM      7  C   UNL     1       3.215  -0.393  23.179  0.00  0.00    +0.005 A 
ATOM      8  C   UNL     1       4.038  -0.366  23.136  0.00  0.00    +0.037 A 
BRANCH   3   2
ATOM      1  C   UNL     1       5.694   0.081  23.479  0.00  0.00    +0.252 C 
ATOM      2  O   UNL     1       5.239   0.353  22.847  0.00  0.00    -0.471 OA
ENDBRANCH   3   2
ENDBRANCH   9   6
ENDBRANCH  15  14
BRANCH  19  23
ATOM     23  N   UNL     1      -3.110   2.081  24.384  0.00  0.00    -0.208 NA
BRANCH  23  24
ATOM     24  C   UNL     1      -3.534   2.748  24.619  0.00  0.00    +0.134 C 
BRANCH  24  25
ATOM     25  C   UNL     1      -4.314   2.672  24.877  0.00  0.00    +0.077 A 
ATOM     26  N   UNL     1      -4.607   3.176  25.461  0.00  0.00    -0.247 NA
ATOM     27  C   UNL     1      -5.386   3.101  25.719  0.00  0.00    +0.098 A 
ATOM     28  C   UNL     1      -5.874   2.519  25.393  0.00  0.00    +0.021 A 
ATOM     29  C   UNL     1      -5.580   2.015  24.810  0.00  0.00    +0.003 A 
ATOM     30  C   UNL     1      -4.801   2.091  24.551  0.00  0.00    +0.016 A 
ENDBRANCH  24  25
ENDBRANCH  23  24
ENDBRANCH  19  23
TORSDOF 6
ENDMDL
MODEL 3
REMARK VINA RESULT:      -6.7     16.492     17.460
REMARK  Name = 
REMARK  6 active torsions:
REMARK  status: ('A' for Active; 'I' for Inactive)
REMARK    1  A    between atoms: O_2  and  C_3
REMARK    2  A    between atoms: C_6  and  C_9
REMARK    3  A    between atoms: N_14  and  C_15
REMARK    4  A    between atoms: C_19  and  N_23
REMARK    5  A    between atoms: N_23  and  C_24
REMARK    6  A    between atoms: C_24  and  C_25
REMARK                            x       y       z     vdW  Elec       q    Type
REMARK                         _______ _______ _______ _____ _____    ______ ____
ROOT
ATOM     15  C   UNL     1      -4.679 -10.268  11.746  0.00  0.00    +0.154 C 
ATOM     16  C   UNL     1      -3.907 -10.207  11.463  0.00  0.00    +0.166 C 
ATOM     17  O   UNL     1      -3.393 -10.350  12.093  0.00  0.00    -0.350 OA
ATOM     18  C   UNL     1      -3.847 -10.499  12.764  0.00  0.00    +0.162 C 
ATOM     19  C   UNL     1      -3.812 -10.679  13.568  0.00  0.00    +0.132 C 
ATOM     20  C   UNL     1      -4.584 -10.741  13.851  0.00  0.00    +0.162 C 
ATOM     21  O   UNL     1      -5.097 -10.598  13.222  0.00  0.00    -0.350 OA
ATOM     22  C   UNL     1      -4.642 -10.448  12.550  0.00  0.00    +0.166 C 
ENDROOT
BRANCH  15  14
ATOM      9  C   UNL     1      -6.237  -8.726   9.912  0.00  0.00    +0.086 A 
ATOM     10  C   UNL     1      -5.640  -8.158   9.882  0.00  0.00    +0.040 A 
ATOM     11  C   UNL     1      -4.951  -8.260  10.325  0.00  0.00    +0.103 A 
ATOM     12  N   UNL     1      -4.860  -8.929  10.799  0.00  0.00    -0.211 NA
ATOM     13  C   UNL     1      -5.459  -9.497  10.829  0.00  0.00    +0.237 A 
ATOM     14  N   UNL     1      -5.368 -10.167  11.303  0.00  0.00    -0.200 NA
ATOM     31  N   UNL     1      -6.146  -9.395  10.386  0.00  0.00    -0.212 NA
BRANCH   9   6
ATOM      3  C   UNL     1      -8.302  -8.421   8.582  0.00  0.00    +0.139 A 
ATOM      4  C   UNL     1      -7.563  -8.336   8.223  0.00  0.00    +0.037 A 
ATOM      5  C   UNL     1      -6.875  -8.438   8.666  0.00  0.00    +0.005 A 
ATOM      6  C   UNL     1      -6.925  -8.624   9.469  0.00  0.00    +0.018 A 
ATOM      7  C   UNL     1      -7.663  -8.709   9.827  0.00  0.00    +0.005 A 
ATOM      8  C   UNL     1      -8.351  -8.607   9.384  0.00  0.00    +0.037 A 
BRANCH   3   2
ATOM      1  C   UNL     1      -9.611  -8.856   8.213  0.00  0.00    +0.252 C 
ATOM      2  O   UNL     1      -8.990  -8.319   8.138  0.00  0.00    -0.471 OA
ENDBRANCH   3   2
ENDBRANCH   9   6
ENDBRANCH  15  14
BRANCH  19  23
ATOM     23  N   UNL     1      -3.123 -10.781  14.012  0.00  0.00    -0.208 NA
BRANCH  23  24
ATOM     24  C   UNL     1      -3.159 -10.780  14.836  0.00  0.00    +0.134 C 
BRANCH  24  25
ATOM     25  C   UNL     1      -2.465 -10.739  15.280  0.00  0.00    +0.077 A 
ATOM     26  N   UNL     1      -1.732 -10.750  14.901  0.00  0.00    -0.247 NA
ATOM     27  C   UNL     1      -1.037 -10.709  15.344  0.00  0.00    +0.098 A 
ATOM     28  C   UNL     1      -1.076 -10.656  16.167  0.00  0.00    +0.021 A 
ATOM     29  C   UNL     1      -1.809 -10.645  16.545  0.00  0.00    +0.003 A 
ATOM     30  C   UNL     1      -2.504 -10.686  16.102  0.00  0.00    +0.016 A 
ENDBRANCH  24  25
ENDBRANCH  23  24
ENDBRANCH  19  23
TORSDOF 6
ENDMDL
MODEL 4
REMARK VINA RESULT:      -5.7     18.488     19.249
REMARK  Name = 
REMARK  6 active torsions:
REMARK  status: ('A' for Active; 'I' for Inactive)
REMARK    1  A    between atoms: O_2  and  C_3
REMARK    2  A    between atoms: C_6  and  C_9
REMARK    3  A    between atoms: N_14  and  C_15
REMARK    4  A    between atoms: C_19  and  N_23
REMARK    5  A    between atoms: N_23  and  C_24
REMARK    6  A    between atoms: C_24  and  C_25
REMARK                            x       y       z     vdW  Elec       q    Type
REMARK                         _______ _______ _______ _____ _____    ______ ____
ROOT
ATOM     15  C   UNL     1      16.167  -6.436  28.973  0.00  0.00    +0.154 C 
ATOM     16  C   UNL     1      15.936  -7.124  29.366  0.00  0.00    +0.166 C 
ATOM     17  O   UNL     1      15.783  -7.701  28.798  0.00  0.00    -0.350 OA
ATOM     18  C   UNL     1      15.919  -7.371  28.055  0.00  0.00    +0.162 C 
ATOM     19  C   UNL     1      15.908  -7.523  27.244  0.00  0.00    +0.132 C 
ATOM     20  C   UNL     1      16.138  -6.835  26.851  0.00  0.00    +0.162 C 
ATOM     21  O   UNL     1      16.291  -6.258  27.419  0.00  0.00    -0.350 OA
ATOM     22  C   UNL     1      16.156  -6.589  28.163  0.00  0.00    +0.166 C 
ENDROOT
BRANCH  15  14
ATOM      9  C   UNL     1      15.554  -4.299  30.770  0.00  0.00    +0.086 A 
ATOM     10  C   UNL     1      14.837  -4.662  30.957  0.00  0.00    +0.040 A 
ATOM     11  C   UNL     1      14.631  -5.377  30.601  0.00  0.00    +0.103 A 
ATOM     12  N   UNL     1      15.143  -5.731  30.058  0.00  0.00    -0.211 NA
ATOM     13  C   UNL     1      15.860  -5.367  29.872  0.00  0.00    +0.237 A 
ATOM     14  N   UNL     1      16.372  -5.720  29.329  0.00  0.00    -0.200 NA
ATOM     31  N   UNL     1      16.065  -4.652  30.228  0.00  0.00    -0.212 NA
BRANCH   9   6
ATOM      3  C   UNL     1      16.169  -2.152  31.838  0.00  0.00    +0.139 A 
ATOM      4  C   UNL     1      15.949  -2.797  32.304  0.00  0.00    +0.037 A 
ATOM      5  C   UNL     1      15.744  -3.512  31.948  0.00  0.00    +0.005 A 
ATOM      6  C   UNL     1      15.758  -3.584  31.126  0.00  0.00    +0.018 A 
ATOM      7  C   UNL     1      15.978  -2.940  30.660  0.00  0.00    +0.005 A 
ATOM      8  C   UNL     1      16.183  -2.224  31.016  0.00  0.00    +0.037 A 
BRANCH   3   2
ATOM      1  C   UNL     1      17.072  -1.055  31.979  0.00  0.00    +0.252 C 
ATOM      2  O   UNL     1      16.374  -1.437  32.193  0.00  0.00    -0.471 OA
ENDBRANCH   3   2
ENDBRANCH   9   6
ENDBRANCH  15  14
BRANCH  19  23
ATOM     23  N   UNL     1      15.703  -8.239  26.888  0.00  0.00    -0.208 NA
BRANCH  23  24
ATOM     24  C   UNL     1      15.775  -8.329  26.071  0.00  0.00    +0.134 C 
BRANCH  24  25
ATOM     25  C   UNL     1      15.644  -9.067  25.724  0.00  0.00    +0.077 A 
ATOM     26  N   UNL     1      16.281  -9.567  25.565  0.00  0.00    -0.247 NA
ATOM     27  C   UNL     1      16.151 -10.304  25.218  0.00  0.00    +0.098 A 
ATOM     28  C   UNL     1      15.383 -10.541  25.030  0.00  0.00    +0.021 A 
ATOM     29  C   UNL     1      14.747 -10.041  25.190  0.00  0.00    +0.003 A 
ATOM     30  C   UNL     1      14.877  -9.303  25.537  0.00  0.00    +0.016 A 
ENDBRANCH  24  25
ENDBRANCH  23  24
ENDBRANCH  19  23
TORSDOF 6
ENDMDL
MODEL 5
REMARK VINA RESULT:      -5.4     17.854     19.746
REMARK  Name = 
REMARK  6 active torsions:
REMARK  status: ('A' for Active; 'I' for Inactive)
REMARK    1  A    between atoms: O_2  and  C_3
REMARK    2  A    between atoms: C_6  and  C_9
REMARK    3  A    between atoms: N_14  and  C_15
REMARK    4  A    between atoms: C_19  and  N_23
REMARK    5  A    between atoms: N_23  and  C_24
REMARK    6  A    between atoms: C_24  and  C_25
REMARK                            x       y       z     vdW  Elec       q    Type
REMARK                         _______ _______ _______ _____ _____    ______ ____
ROOT
ATOM     15  C   UNL     1      17.294  -6.295  25.502  0.00  0.00    +0.154 C 
ATOM     16  C   UNL     1      17.315  -6.482  24.699  0.00  0.00    +0.166 C 
ATOM     17  O   UNL     1      17.297  -5.776  24.273  0.00  0.00    -0.350 OA
ATOM     18  C   UNL     1      17.266  -5.153  24.811  0.00  0.00    +0.162 C 
ATOM     19  C   UNL     1      17.236  -4.332  24.882  0.00  0.00    +0.132 C 
ATOM     20  C   UNL     1      17.215  -4.144  25.685  0.00  0.00    +0.162 C 
ATOM     21  O   UNL     1      17.232  -4.850  26.111  0.00  0.00    -0.350 OA
ATOM     22  C   UNL     1      17.264  -5.474  25.571  0.00  0.00    +0.166 C 
ENDROOT
BRANCH  15  14
ATOM      9  C   UNL     1      16.219  -8.612  26.784  0.00  0.00    +0.086 A 
ATOM     10  C   UNL     1      15.666  -8.692  26.177  0.00  0.00    +0.040 A 
ATOM     11  C   UNL     1      15.658  -8.152  25.553  0.00  0.00    +0.103 A 
ATOM     12  N   UNL     1      16.204  -7.533  25.536  0.00  0.00    -0.211 NA
ATOM     13  C   UNL     1      16.757  -7.454  26.144  0.00  0.00    +0.237 A 
ATOM     14  N   UNL     1      17.302  -6.834  26.126  0.00  0.00    -0.200 NA
ATOM     31  N   UNL     1      16.764  -7.993  26.767  0.00  0.00    -0.212 NA
BRANCH   9   6
ATOM      3  C   UNL     1      16.243 -10.232  28.656  0.00  0.00    +0.139 A 
ATOM      4  C   UNL     1      15.883  -9.495  28.751  0.00  0.00    +0.037 A 
ATOM      5  C   UNL     1      15.875  -8.956  28.128  0.00  0.00    +0.005 A 
ATOM      6  C   UNL     1      16.227  -9.152  27.408  0.00  0.00    +0.018 A 
ATOM      7  C   UNL     1      16.587  -9.888  27.312  0.00  0.00    +0.005 A 
ATOM      8  C   UNL     1      16.595 -10.428  27.936  0.00  0.00    +0.037 A 
BRANCH   3   2
ATOM      1  C   UNL     1      16.028 -10.530  30.036  0.00  0.00    +0.252 C 
ATOM      2  O   UNL     1      16.250 -10.771  29.279  0.00  0.00    -0.471 OA
ENDBRANCH   3   2
ENDBRANCH   9   6
ENDBRANCH  15  14
BRANCH  19  23
ATOM     23  N   UNL     1      17.228  -3.792  24.258  0.00  0.00    -0.208 NA
BRANCH  23  24
ATOM     24  C   UNL     1      16.637  -3.218  24.216  0.00  0.00    +0.134 C 
BRANCH  24  25
ATOM     25  C   UNL     1      16.658  -2.646  23.622  0.00  0.00    +0.077 A 
ATOM     26  N   UNL     1      17.383  -2.390  23.322  0.00  0.00    -0.247 NA
ATOM     27  C   UNL     1      17.405  -1.818  22.728  0.00  0.00    +0.098 A 
ATOM     28  C   UNL     1      16.701  -1.501  22.434  0.00  0.00    +0.021 A 
ATOM     29  C   UNL     1      15.978  -1.758  22.734  0.00  0.00    +0.003 A 
ATOM     30  C   UNL     1      15.955  -2.330  23.328  0.00  0.00    +0.016 A 
ENDBRANCH  24  25
ENDBRANCH  23  24
ENDBRANCH  19  23
TORSDOF 6
ENDMDL
MODEL 6
REMARK VINA RESULT:      -5.2     18.822     19.761
REMARK  Name = 
REMARK  6 active torsions:
REMARK  status: ('A' for Active; 'I' for Inactive)
REMARK    1  A    between atoms: O_2  and  C_3
REMARK    2  A    between atoms: C_6  and  C_9
REMARK    3  A    between atoms: N_14  and  C_15
REMARK    4  A    between atoms: C_19  and  N_23
REMARK    5  A    between atoms: N_23  and  C_24
REMARK    6  A    between atoms: C_24  and  C_25
REMARK                            x       y       z     vdW  Elec       q    Type
REMARK                         _______ _______ _______ _____ _____    ______ ____
ROOT
ATOM     15  C   UNL     1      16.953  -4.928  29.630  0.00  0.00    +0.154 C 
ATOM     16  C   UNL     1      16.827  -5.127  30.421  0.00  0.00    +0.166 C 
ATOM     17  O   UNL     1      16.860  -4.433  30.865  0.00  0.00    -0.350 OA
ATOM     18  C   UNL     1      17.006  -3.806  30.351  0.00  0.00    +0.162 C 
ATOM     19  C   UNL     1      17.118  -2.990  30.306  0.00  0.00    +0.132 C 
ATOM     20  C   UNL     1      17.244  -2.791  29.516  0.00  0.00    +0.162 C 
ATOM     21  O   UNL     1      17.211  -3.485  29.071  0.00  0.00    -0.350 OA
ATOM     22  C   UNL     1      17.064  -4.112  29.587  0.00  0.00    +0.166 C 
ENDROOT
BRANCH  15  14
ATOM      9  C   UNL     1      15.708  -7.001  28.106  0.00  0.00    +0.086 A 
ATOM     10  C   UNL     1      15.059  -6.985  28.615  0.00  0.00    +0.040 A 
ATOM     11  C   UNL     1      15.046  -6.459  29.251  0.00  0.00    +0.103 A 
ATOM     12  N   UNL     1      15.682  -5.949  29.378  0.00  0.00    -0.211 NA
ATOM     13  C   UNL     1      16.331  -5.965  28.867  0.00  0.00    +0.237 A 
ATOM     14  N   UNL     1      16.966  -5.454  28.994  0.00  0.00    -0.200 NA
ATOM     31  N   UNL     1      16.343  -6.490  28.232  0.00  0.00    -0.212 NA
BRANCH   9   6
ATOM      3  C   UNL     1      15.746  -8.579  26.199  0.00  0.00    +0.139 A 
ATOM      4  C   UNL     1      15.507  -7.797  26.084  0.00  0.00    +0.037 A 
ATOM      5  C   UNL     1      15.494  -7.271  26.719  0.00  0.00    +0.005 A 
ATOM      6  C   UNL     1      15.721  -7.526  27.470  0.00  0.00    +0.018 A 
ATOM      7  C   UNL     1      15.960  -8.307  27.586  0.00  0.00    +0.005 A 
ATOM      8  C   UNL     1      15.973  -8.833  26.950  0.00  0.00    +0.037 A 
BRANCH   3   2
ATOM      1  C   UNL     1      16.341  -9.687  25.523  0.00  0.00    +0.252 C 
ATOM      2  O   UNL     1      15.759  -9.104  25.564  0.00  0.00    -0.471 OA
ENDBRANCH   3   2
ENDBRANCH   9   6
ENDBRANCH  15  14
BRANCH  19  23
ATOM     23  N   UNL     1      17.105  -2.464  30.942  0.00  0.00    -0.208 NA
BRANCH  23  24
ATOM     24  C   UNL     1      16.962  -1.662  30.812  0.00  0.00    +0.134 C 
BRANCH  24  25
ATOM     25  C   UNL     1      16.992  -1.130  31.442  0.00  0.00    +0.077 A 
ATOM     26  N   UNL     1      16.637  -1.322  32.161  0.00  0.00    -0.247 NA
ATOM     27  C   UNL     1      16.666  -0.790  32.791  0.00  0.00    +0.098 A 
ATOM     28  C   UNL     1      17.051  -0.065  32.701  0.00  0.00    +0.021 A 
ATOM     29  C   UNL     1      17.405   0.126  31.981  0.00  0.00    +0.003 A 
ATOM     30  C   UNL     1      17.376  -0.405  31.351  0.00  0.00    +0.016 A 
ENDBRANCH  24  25
ENDBRANCH  23  24
ENDBRANCH  19  23
TORSDOF 6
ENDMDL
