MODEL 1
REMARK VINA RESULT:      -9.1      0.000      0.000
REMARK  Name = 
REMARK  10 active torsions:
REMARK  status: ('A' for Active; 'I' for Inactive)
REMARK    1  A    between atoms: O_2  and  C_3
REMARK    2  A    between atoms: C_3  and  C_4
REMARK    3  A    between atoms: C_4  and  N_5
REMARK    4  A    between atoms: N_5  and  C_6
REMARK    5  A    between atoms: C_6  and  C_7
REMARK    6  A    between atoms: C_11  and  C_12
REMARK    7  A    between atoms: C_12  and  C_13
REMARK    8  A    between atoms: C_16  and  C_18
REMARK    9  A    between atoms: C_21  and  N_24
REMARK   10  A    between atoms: C_28  and  C_29
REMARK                            x       y       z     vdW  Elec       q    Type
REMARK                         _______ _______ _______ _____ _____    ______ ____
ROOT
ATOM      7  C   UNL     1      -0.026   0.217  23.888  0.00  0.00    +0.039 C 
ATOM      8  C   UNL     1      -0.229  -0.583  23.889  0.00  0.00    -0.033 C 
ATOM      9  C   UNL     1      -0.929  -0.831  24.249  0.00  0.00    -0.048 C 
ATOM     10  C   UNL     1      -1.132  -1.630  24.250  0.00  0.00    +0.026 C 
ATOM     11  C   UNL     1      -1.426  -0.278  24.608  0.00  0.00    +0.027 C 
ATOM     27  C   UNL     1      -1.223   0.521  24.606  0.00  0.00    +0.005 C 
ATOM     28  C   UNL     1      -0.523   0.769  24.247  0.00  0.00    +0.006 C 
ENDROOT
BRANCH  28  29
ATOM     29  C   UNL     1      -0.320   1.568  24.245  0.00  0.00    +0.000 C 
ATOM     30  C   UNL     1       0.108   1.887  24.874  0.00  0.00    +0.000 C 
ATOM     31  C   UNL     1      -0.544   2.049  23.614  0.00  0.00    +0.000 C 
ENDBRANCH  28  29
BRANCH   7   6
ATOM      6  C   UNL     1       0.674   0.464  23.528  0.00  0.00    +0.093 C 
BRANCH   6   5
ATOM      5  N   UNL     1       1.194  -0.093  23.213  0.00  0.00    -0.215 NA
BRANCH   5   4
ATOM      4  C   UNL     1       1.751   0.136  22.648  0.00  0.00    +0.121 C 
BRANCH   4   3
ATOM      3  C   UNL     1       2.555   0.024  22.792  0.00  0.00    +0.161 C 
BRANCH   3   2
ATOM      1  C   UNL     1       3.893   0.504  22.646  0.00  0.00    +0.174 C 
ATOM      2  O   UNL     1       3.114   0.467  22.377  0.00  0.00    -0.350 OA
ENDBRANCH   3   2
ENDBRANCH   4   3
ENDBRANCH   5   4
ENDBRANCH   6   5
ENDBRANCH   7   6
BRANCH  11  12
ATOM     12  C   UNL     1      -2.126  -0.526  24.967  0.00  0.00    +0.091 C 
BRANCH  12  13
ATOM     13  C   UNL     1      -2.836  -0.140  24.799  0.00  0.00    +0.227 A 
ATOM     14  N   UNL     1      -3.393  -0.374  24.237  0.00  0.00    -0.111 NA
ATOM     15  N   UNL     1      -4.014   0.168  24.254  0.00  0.00    -0.107 NA
ATOM     16  C   UNL     1      -3.842   0.736  24.825  0.00  0.00    +0.250 A 
ATOM     17  O   UNL     1      -3.113   0.546  25.162  0.00  0.00    -0.420 OA
BRANCH  16  18
ATOM     18  C   UNL     1      -4.314   1.382  25.026  0.00  0.00    +0.055 A 
ATOM     19  C   UNL     1      -5.062   1.260  25.353  0.00  0.00    +0.006 A 
ATOM     20  C   UNL     1      -5.535   1.905  25.554  0.00  0.00    +0.024 A 
ATOM     21  C   UNL     1      -5.261   2.673  25.428  0.00  0.00    +0.143 A 
ATOM     22  C   UNL     1      -4.513   2.796  25.100  0.00  0.00    +0.024 A 
ATOM     23  C   UNL     1      -4.040   2.149  24.900  0.00  0.00    +0.006 A 
BRANCH  21  24
ATOM     24  N   UNL     1      -5.733   3.318  25.628  0.00  0.00    +0.058 N 
ATOM     25  O   UNL     1      -6.399   3.210  26.104  0.00  0.00    -0.126 OA
ATOM     26  O   UNL     1      -5.541   4.072  25.354  0.00  0.00    -0.126 OA
ENDBRANCH  21  24
ENDBRANCH  16  18
ENDBRANCH  12  13
ENDBRANCH  11  12
TORSDOF 10
ENDMDL
MODEL 2
REMARK VINA RESULT:      -8.7      1.417      2.311
REMARK  Name = 
REMARK  10 active torsions:
REMARK  status: ('A' for Active; 'I' for Inactive)
REMARK    1  A    between atoms: O_2  and  C_3
REMARK    2  A    between atoms: C_3  and  C_4
REMARK    3  A    between atoms: C_4  and  N_5
REMARK    4  A    between atoms: N_5  and  C_6
REMARK    5  A    between atoms: C_6  and  C_7
REMARK    6  A    between atoms: C_11  and  C_12
REMARK    7  A    between atoms: C_12  and  C_13
REMARK    8  A    between atoms: C_16  and  C_18
REMARK    9  A    between atoms: C_21  and  N_24
REMARK   10  A    between atoms: C_28  and  C_29
REMARK                            x       y       z     vdW  Elec       q    Type
REMARK                         _______ _______ _______ _____ _____    ______ ____
ROOT
ATOM      7  C   UNL     1      -0.192   1.149  24.347  0.00  0.00    +0.039 C 
ATOM      8  C   UNL     1       0.075   1.917  24.205  0.00  0.00    -0.033 C 
ATOM      9  C   UNL     1      -0.311   2.559  24.553  0.00  0.00    -0.048 C 
ATOM     10  C   UNL     1      -0.044   3.326  24.411  0.00  0.00    +0.026 C 
ATOM     11  C   UNL     1      -0.963   2.432  25.042  0.00  0.00    +0.027 C 
ATOM     27  C   UNL     1      -1.229   1.664  25.183  0.00  0.00    +0.005 C 
ATOM     28  C   UNL     1      -0.844   1.023  24.836  0.00  0.00    +0.006 C 
ENDROOT
BRANCH  28  29
ATOM     29  C   UNL     1      -1.111   0.255  24.977  0.00  0.00    +0.000 C 
ATOM     30  C   UNL     1      -0.880  -0.143  25.662  0.00  0.00    +0.000 C 
ATOM     31  C   UNL     1      -1.607  -0.116  24.433  0.00  0.00    +0.000 C 
ENDBRANCH  28  29
BRANCH   7   6
ATOM      6  C   UNL     1       0.194   0.508  23.999  0.00  0.00    +0.093 C 
BRANCH   6   5
ATOM      5  N   UNL     1       0.793   0.638  23.447  0.00  0.00    -0.215 NA
BRANCH   5   4
ATOM      4  C   UNL     1       1.223  -0.001  23.148  0.00  0.00    +0.121 C 
BRANCH   4   3
ATOM      3  C   UNL     1       1.800   0.125  22.572  0.00  0.00    +0.161 C 
BRANCH   3   2
ATOM      1  C   UNL     1       3.197   0.215  22.285  0.00  0.00    +0.174 C 
ATOM      2  O   UNL     1       2.574  -0.132  22.700  0.00  0.00    -0.350 OA
ENDBRANCH   3   2
ENDBRANCH   4   3
ENDBRANCH   5   4
ENDBRANCH   6   5
ENDBRANCH   7   6
BRANCH  11  12
ATOM     12  C   UNL     1      -1.348   3.073  25.389  0.00  0.00    +0.091 C 
BRANCH  12  13
ATOM     13  C   UNL     1      -2.139   3.226  25.211  0.00  0.00    +0.227 A 
ATOM     14  N   UNL     1      -2.428   3.894  24.822  0.00  0.00    -0.111 NA
ATOM     15  N   UNL     1      -3.247   3.819  24.761  0.00  0.00    -0.107 NA
ATOM     16  C   UNL     1      -3.465   3.105  25.111  0.00  0.00    +0.250 A 
ATOM     17  O   UNL     1      -2.780   2.739  25.389  0.00  0.00    -0.420 OA
BRANCH  16  18
ATOM     18  C   UNL     1      -4.233   2.809  25.173  0.00  0.00    +0.055 A 
ATOM     19  C   UNL     1      -4.474   2.185  24.688  0.00  0.00    +0.006 A 
ATOM     20  C   UNL     1      -5.240   1.888  24.749  0.00  0.00    +0.024 A 
ATOM     21  C   UNL     1      -5.767   2.214  25.295  0.00  0.00    +0.143 A 
ATOM     22  C   UNL     1      -5.526   2.838  25.780  0.00  0.00    +0.024 A 
ATOM     23  C   UNL     1      -4.758   3.134  25.718  0.00  0.00    +0.006 A 
BRANCH  21  24
ATOM     24  N   UNL     1      -6.534   1.918  25.356  0.00  0.00    +0.058 N 
ATOM     25  O   UNL     1      -6.838   1.709  26.094  0.00  0.00    -0.126 OA
ATOM     26  O   UNL     1      -6.997   1.829  24.679  0.00  0.00    -0.126 OA
ENDBRANCH  21  24
ENDBRANCH  16  18
ENDBRANCH  12  13
ENDBRANCH  11  12
TORSDOF 10
ENDMDL
MODEL 3
REMARK VINA RESULT:      -8.3      2.451      4.090
REMARK  Name = 
REMARK  10 active torsions:
REMARK  status: ('A' for Active; 'I' for Inactive)
REMARK    1  A    between atoms: O_2  and  C_3
REMARK    2  A    between atoms: C_3  and  C_4
REMARK    3  A    between atoms: C_4  and  N_5
REMARK    4  A    between atoms: N_5  and  C_6
REMARK    5  A    between atoms: C_6  and  C_7
REMARK    6  A    between atoms: C_11  and  C_12
REMARK    7  A    between atoms: C_12  and  C_13
REMARK    8  A    between atoms: C_16  and  C_18
REMARK    9  A    between atoms: C_21  and  N_24
REMARK   10  A    between atoms: C_28  and  C_29
REMARK                            x       y       z     vdW  Elec       q    Type
REMARK                         _______ _______ _______ _____ _____    ______ ____
ROOT
ATOM      7  C   UNL     1      -0.653   2.616  25.727  0.00  0.00    +0.039 C 
ATOM      8  C   UNL     1      -1.225   3.105  26.064  0.00  0.00    -0.033 C 
ATOM      9  C   UNL     1      -1.972   3.165  25.717  0.00  0.00    -0.048 C 
ATOM     10  C   UNL     1      -2.545   3.655  26.054  0.00  0.00    +0.026 C 
ATOM     11  C   UNL     1      -2.145   2.736  25.034  0.00  0.00    +0.027 C 
ATOM     27  C   UNL     1      -1.572   2.247  24.698  0.00  0.00    +0.005 C 
ATOM     28  C   UNL     1      -0.826   2.187  25.044  0.00  0.00    +0.006 C 
ENDROOT
BRANCH  28  29
ATOM     29  C   UNL     1      -0.252   1.698  24.708  0.00  0.00    +0.000 C 
ATOM     30  C   UNL     1       0.295   2.009  24.176  0.00  0.00    +0.000 C 
ATOM     31  C   UNL     1      -0.227   0.898  24.905  0.00  0.00    +0.000 C 
ENDBRANCH  28  29
BRANCH   7   6
ATOM      6  C   UNL     1       0.094   2.556  26.074  0.00  0.00    +0.093 C 
BRANCH   6   5
ATOM      5  N   UNL     1       0.182   2.678  26.885  0.00  0.00    -0.215 NA
BRANCH   5   4
ATOM      4  C   UNL     1       0.937   2.693  27.220  0.00  0.00    +0.121 C 
BRANCH   4   3
ATOM      3  C   UNL     1       1.027   2.609  28.036  0.00  0.00    +0.161 C 
BRANCH   3   2
ATOM      1  C   UNL     1       1.868   2.575  29.190  0.00  0.00    +0.174 C 
ATOM      2  O   UNL     1       1.778   2.663  28.375  0.00  0.00    -0.350 OA
ENDBRANCH   3   2
ENDBRANCH   4   3
ENDBRANCH   5   4
ENDBRANCH   6   5
ENDBRANCH   7   6
BRANCH  11  12
ATOM     12  C   UNL     1      -2.891   2.797  24.688  0.00  0.00    +0.091 C 
BRANCH  12  13
ATOM     13  C   UNL     1      -3.398   2.146  24.683  0.00  0.00    +0.227 A 
ATOM     14  N   UNL     1      -4.220   2.172  24.761  0.00  0.00    -0.111 NA
ATOM     15  N   UNL     1      -4.503   1.397  24.726  0.00  0.00    -0.107 NA
ATOM     16  C   UNL     1      -3.857   0.894  24.627  0.00  0.00    +0.250 A 
ATOM     17  O   UNL     1      -3.175   1.357  24.601  0.00  0.00    -0.420 OA
BRANCH  16  18
ATOM     18  C   UNL     1      -3.888   0.072  24.565  0.00  0.00    +0.055 A 
ATOM     19  C   UNL     1      -3.821  -0.395  25.243  0.00  0.00    +0.006 A 
ATOM     20  C   UNL     1      -3.851  -1.217  25.182  0.00  0.00    +0.024 A 
ATOM     21  C   UNL     1      -3.949  -1.573  24.444  0.00  0.00    +0.143 A 
ATOM     22  C   UNL     1      -4.016  -1.106  23.766  0.00  0.00    +0.024 A 
ATOM     23  C   UNL     1      -3.986  -0.283  23.828  0.00  0.00    +0.006 A 
BRANCH  21  24
ATOM     24  N   UNL     1      -3.980  -2.395  24.383  0.00  0.00    +0.058 N 
ATOM     25  O   UNL     1      -4.427  -2.748  23.787  0.00  0.00    -0.126 OA
ATOM     26  O   UNL     1      -3.562  -2.864  24.918  0.00  0.00    -0.126 OA
ENDBRANCH  21  24
ENDBRANCH  16  18
ENDBRANCH  12  13
ENDBRANCH  11  12
TORSDOF 10
ENDMDL
MODEL 4
REMARK VINA RESULT:      -8.2      2.390      4.338
REMARK  Name = 
REMARK  10 active torsions:
REMARK  status: ('A' for Active; 'I' for Inactive)
REMARK    1  A    between atoms: O_2  and  C_3
REMARK    2  A    between atoms: C_3  and  C_4
REMARK    3  A    between atoms: C_4  and  N_5
REMARK    4  A    between atoms: N_5  and  C_6
REMARK    5  A    between atoms: C_6  and  C_7
REMARK    6  A    between atoms: C_11  and  C_12
REMARK    7  A    between atoms: C_12  and  C_13
REMARK    8  A    between atoms: C_16  and  C_18
REMARK    9  A    between atoms: C_21  and  N_24
REMARK   10  A    between atoms: C_28  and  C_29
REMARK                            x       y       z     vdW  Elec       q    Type
REMARK                         _______ _______ _______ _____ _____    ______ ____
ROOT
ATOM      7  C   UNL     1      -2.680   3.743  24.784  0.00  0.00    +0.039 C 
ATOM      8  C   UNL     1      -2.870   3.488  24.023  0.00  0.00    -0.033 C 
ATOM      9  C   UNL     1      -3.568   3.067  23.891  0.00  0.00    -0.048 C 
ATOM     10  C   UNL     1      -3.757   2.812  23.130  0.00  0.00    +0.026 C 
ATOM     11  C   UNL     1      -4.075   2.901  24.520  0.00  0.00    +0.027 C 
ATOM     27  C   UNL     1      -3.884   3.157  25.281  0.00  0.00    +0.005 C 
ATOM     28  C   UNL     1      -3.187   3.577  25.413  0.00  0.00    +0.006 C 
ENDROOT
BRANCH  28  29
ATOM     29  C   UNL     1      -2.997   3.833  26.174  0.00  0.00    +0.000 C 
ATOM     30  C   UNL     1      -2.555   3.348  26.674  0.00  0.00    +0.000 C 
ATOM     31  C   UNL     1      -3.248   4.574  26.435  0.00  0.00    +0.000 C 
ENDBRANCH  28  29
BRANCH   7   6
ATOM      6  C   UNL     1      -1.983   4.164  24.916  0.00  0.00    +0.093 C 
BRANCH   6   5
ATOM      5  N   UNL     1      -1.344   4.075  24.401  0.00  0.00    -0.215 NA
BRANCH   5   4
ATOM      4  C   UNL     1      -0.586   3.950  24.704  0.00  0.00    +0.121 C 
BRANCH   4   3
ATOM      3  C   UNL     1      -0.047   3.485  24.286  0.00  0.00    +0.161 C 
BRANCH   3   2
ATOM      1  C   UNL     1       0.573   2.198  24.305  0.00  0.00    +0.174 C 
ATOM      2  O   UNL     1       0.394   2.910  24.681  0.00  0.00    -0.350 OA
ENDBRANCH   3   2
ENDBRANCH   4   3
ENDBRANCH   5   4
ENDBRANCH   6   5
ENDBRANCH   7   6
BRANCH  11  12
ATOM     12  C   UNL     1      -4.771   2.480  24.388  0.00  0.00    +0.091 C 
BRANCH  12  13
ATOM     13  C   UNL     1      -4.841   1.703  24.655  0.00  0.00    +0.227 A 
ATOM     14  N   UNL     1      -5.434   1.413  25.152  0.00  0.00    -0.111 NA
ATOM     15  N   UNL     1      -5.290   0.610  25.276  0.00  0.00    -0.107 NA
ATOM     16  C   UNL     1      -4.611   0.404  24.857  0.00  0.00    +0.250 A 
ATOM     17  O   UNL     1      -4.333   1.080  24.474  0.00  0.00    -0.420 OA
BRANCH  16  18
ATOM     18  C   UNL     1      -4.267  -0.346  24.827  0.00  0.00    +0.055 A 
ATOM     19  C   UNL     1      -3.812  -0.617  25.460  0.00  0.00    +0.006 A 
ATOM     20  C   UNL     1      -3.469  -1.366  25.430  0.00  0.00    +0.024 A 
ATOM     21  C   UNL     1      -3.581  -1.845  24.768  0.00  0.00    +0.143 A 
ATOM     22  C   UNL     1      -4.036  -1.575  24.135  0.00  0.00    +0.024 A 
ATOM     23  C   UNL     1      -4.380  -0.824  24.165  0.00  0.00    +0.006 A 
BRANCH  21  24
ATOM     24  N   UNL     1      -3.237  -2.594  24.738  0.00  0.00    +0.058 N 
ATOM     25  O   UNL     1      -3.690  -3.263  24.906  0.00  0.00    -0.126 OA
ATOM     26  O   UNL     1      -2.440  -2.676  24.540  0.00  0.00    -0.126 OA
ENDBRANCH  21  24
ENDBRANCH  16  18
ENDBRANCH  12  13
ENDBRANCH  11  12
TORSDOF 10
ENDMDL
MODEL 5
REMARK VINA RESULT:      -8.2      1.935      3.350
REMARK  Name = 
REMARK  10 active torsions:
REMARK  status: ('A' for Active; 'I' for Inactive)
REMARK    1  A    between atoms: O_2  and  C_3
REMARK    2  A    between atoms: C_3  and  C_4
REMARK    3  A    between atoms: C_4  and  N_5
REMARK    4  A    between atoms: N_5  and  C_6
REMARK    5  A    between atoms: C_6  and  C_7
REMARK    6  A    between atoms: C_11  and  C_12
REMARK    7  A    between atoms: C_12  and  C_13
REMARK    8  A    between atoms: C_16  and  C_18
REMARK    9  A    between atoms: C_21  and  N_24
REMARK   10  A    between atoms: C_28  and  C_29
REMARK                            x       y       z     vdW  Elec       q    Type
REMARK                         _______ _______ _______ _____ _____    ______ ____
ROOT
ATOM      7  C   UNL     1      -0.574   2.160  24.381  0.00  0.00    +0.039 C 
ATOM      8  C   UNL     1      -0.971   2.198  23.659  0.00  0.00    -0.033 C 
ATOM      9  C   UNL     1      -1.796   2.219  23.643  0.00  0.00    -0.048 C 
ATOM     10  C   UNL     1      -2.193   2.258  22.921  0.00  0.00    +0.026 C 
ATOM     11  C   UNL     1      -2.223   2.203  24.349  0.00  0.00    +0.027 C 
ATOM     27  C   UNL     1      -1.825   2.165  25.070  0.00  0.00    +0.005 C 
ATOM     28  C   UNL     1      -1.001   2.143  25.087  0.00  0.00    +0.006 C 
ENDROOT
BRANCH  28  29
ATOM     29  C   UNL     1      -0.603   2.105  25.809  0.00  0.00    +0.000 C 
ATOM     30  C   UNL     1      -0.350   2.797  26.178  0.00  0.00    +0.000 C 
ATOM     31  C   UNL     1      -0.458   1.373  26.161  0.00  0.00    +0.000 C 
ENDBRANCH  28  29
BRANCH   7   6
ATOM      6  C   UNL     1       0.251   2.138  24.398  0.00  0.00    +0.093 C 
BRANCH   6   5
ATOM      5  N   UNL     1       0.666   1.790  23.775  0.00  0.00    -0.215 NA
BRANCH   5   4
ATOM      4  C   UNL     1       1.476   1.646  23.850  0.00  0.00    +0.121 C 
BRANCH   4   3
ATOM      3  C   UNL     1       1.845   1.103  23.350  0.00  0.00    +0.161 C 
BRANCH   3   2
ATOM      1  C   UNL     1       3.040   0.587  22.761  0.00  0.00    +0.174 C 
ATOM      2  O   UNL     1       2.649   1.180  23.179  0.00  0.00    -0.350 OA
ENDBRANCH   3   2
ENDBRANCH   4   3
ENDBRANCH   5   4
ENDBRANCH   6   5
ENDBRANCH   7   6
BRANCH  11  12
ATOM     12  C   UNL     1      -3.047   2.224  24.332  0.00  0.00    +0.091 C 
BRANCH  12  13
ATOM     13  C   UNL     1      -3.482   1.550  24.525  0.00  0.00    +0.227 A 
ATOM     14  N   UNL     1      -4.214   1.539  24.907  0.00  0.00    -0.111 NA
ATOM     15  N   UNL     1      -4.446   0.751  24.988  0.00  0.00    -0.107 NA
ATOM     16  C   UNL     1      -3.859   0.277  24.656  0.00  0.00    +0.250 A 
ATOM     17  O   UNL     1      -3.263   0.771  24.370  0.00  0.00    -0.420 OA
BRANCH  16  18
ATOM     18  C   UNL     1      -3.865  -0.548  24.617  0.00  0.00    +0.055 A 
ATOM     19  C   UNL     1      -3.554  -0.992  25.240  0.00  0.00    +0.006 A 
ATOM     20  C   UNL     1      -3.560  -1.815  25.201  0.00  0.00    +0.024 A 
ATOM     21  C   UNL     1      -3.877  -2.196  24.541  0.00  0.00    +0.143 A 
ATOM     22  C   UNL     1      -4.189  -1.752  23.919  0.00  0.00    +0.024 A 
ATOM     23  C   UNL     1      -4.182  -0.927  23.958  0.00  0.00    +0.006 A 
BRANCH  21  24
ATOM     24  N   UNL     1      -3.883  -3.019  24.503  0.00  0.00    +0.058 N 
ATOM     25  O   UNL     1      -3.555  -3.463  25.115  0.00  0.00    -0.126 OA
ATOM     26  O   UNL     1      -4.218  -3.400  23.851  0.00  0.00    -0.126 OA
ENDBRANCH  21  24
ENDBRANCH  16  18
ENDBRANCH  12  13
ENDBRANCH  11  12
TORSDOF 10
ENDMDL
MODEL 6
REMARK VINA RESULT:      -8.0      2.068      5.932
REMARK  Name = 
REMARK  10 active torsions:
REMARK  status: ('A' for Active; 'I' for Inactive)
REMARK    1  A    between atoms: O_2  and  C_3
REMARK    2  A    between atoms: C_3  and  C_4
REMARK    3  A    between atoms: C_4  and  N_5
REMARK    4  A    between atoms: N_5  and  C_6
REMARK    5  A    between atoms: C_6  and  C_7
REMARK    6  A    between atoms: C_11  and  C_12
REMARK    7  A    between atoms: C_12  and  C_13
REMARK    8  A    between atoms: C_16  and  C_18
REMARK    9  A    between atoms: C_21  and  N_24
REMARK   10  A    between atoms: C_28  and  C_29
REMARK                            x       y       z     vdW  Elec       q    Type
REMARK                         _______ _______ _______ _____ _____    ______ ____
ROOT
ATOM      7  C   UNL     1      -3.500   3.426  24.838  0.00  0.00    +0.039 C 
ATOM      8  C   UNL     1      -3.069   3.665  25.499  0.00  0.00    -0.033 C 
ATOM      9  C   UNL     1      -2.246   3.601  25.501  0.00  0.00    -0.048 C 
ATOM     10  C   UNL     1      -1.815   3.840  26.162  0.00  0.00    +0.026 C 
ATOM     11  C   UNL     1      -1.855   3.298  24.841  0.00  0.00    +0.027 C 
ATOM     27  C   UNL     1      -2.286   3.059  24.179  0.00  0.00    +0.005 C 
ATOM     28  C   UNL     1      -3.108   3.122  24.178  0.00  0.00    +0.006 C 
ENDROOT
BRANCH  28  29
ATOM     29  C   UNL     1      -3.540   2.883  23.517  0.00  0.00    +0.000 C 
ATOM     30  C   UNL     1      -3.733   2.089  23.415  0.00  0.00    +0.000 C 
ATOM     31  C   UNL     1      -3.779   3.441  22.957  0.00  0.00    +0.000 C 
ENDBRANCH  28  29
BRANCH   7   6
ATOM      6  C   UNL     1      -4.323   3.490  24.837  0.00  0.00    +0.093 C 
BRANCH   6   5
ATOM      5  N   UNL     1      -4.738   3.469  25.549  0.00  0.00    -0.215 NA
BRANCH   5   4
ATOM      4  C   UNL     1      -5.538   3.264  25.553  0.00  0.00    +0.121 C 
BRANCH   4   3
ATOM      3  C   UNL     1      -5.843   2.811  26.171  0.00  0.00    +0.161 C 
BRANCH   3   2
ATOM      1  C   UNL     1      -6.574   1.670  26.624  0.00  0.00    +0.174 C 
ATOM      2  O   UNL     1      -6.251   2.112  26.008  0.00  0.00    -0.350 OA
ENDBRANCH   3   2
ENDBRANCH   4   3
ENDBRANCH   5   4
ENDBRANCH   6   5
ENDBRANCH   7   6
BRANCH  11  12
ATOM     12  C   UNL     1      -1.033   3.234  24.842  0.00  0.00    +0.091 C 
BRANCH  12  13
ATOM     13  C   UNL     1      -0.674   2.504  24.698  0.00  0.00    +0.227 A 
ATOM     14  N   UNL     1       0.043   2.386  24.308  0.00  0.00    -0.111 NA
ATOM     15  N   UNL     1       0.191   1.575  24.286  0.00  0.00    -0.107 NA
ATOM     16  C   UNL     1      -0.435   1.192  24.662  0.00  0.00    +0.250 A 
ATOM     17  O   UNL     1      -0.970   1.767  24.917  0.00  0.00    -0.420 OA
BRANCH  16  18
ATOM     18  C   UNL     1      -0.514   0.377  24.767  0.00  0.00    +0.055 A 
ATOM     19  C   UNL     1      -0.262  -0.140  24.175  0.00  0.00    +0.006 A 
ATOM     20  C   UNL     1      -0.340  -0.954  24.278  0.00  0.00    +0.024 A 
ATOM     21  C   UNL     1      -0.670  -1.252  24.974  0.00  0.00    +0.143 A 
ATOM     22  C   UNL     1      -0.921  -0.735  25.566  0.00  0.00    +0.024 A 
ATOM     23  C   UNL     1      -0.843   0.080  25.461  0.00  0.00    +0.006 A 
BRANCH  21  24
ATOM     24  N   UNL     1      -0.748  -2.067  25.077  0.00  0.00    +0.058 N 
ATOM     25  O   UNL     1      -0.152  -2.494  25.455  0.00  0.00    -0.126 OA
ATOM     26  O   UNL     1      -1.422  -2.455  24.802  0.00  0.00    -0.126 OA
ENDBRANCH  21  24
ENDBRANCH  16  18
ENDBRANCH  12  13
ENDBRANCH  11  12
TORSDOF 10
ENDMDL
MODEL 7
REMARK VINA RESULT:      -8.0      2.822      5.059
REMARK  Name = 
REMARK  10 active torsions:
REMARK  status: ('A' for Active; 'I' for Inactive)
REMARK    1  A    between atoms: O_2  and  C_3
REMARK    2  A    between atoms: C_3  and  C_4
REMARK    3  A    between atoms: C_4  and  N_5
REMARK    4  A    between atoms: N_5  and  C_6
REMARK    5  A    between atoms: C_6  and  C_7
REMARK    6  A    between atoms: C_11  and  C_12
REMARK    7  A    between atoms: C_12  and  C_13
REMARK    8  A    between atoms: C_16  and  C_18
REMARK    9  A    between atoms: C_21  and  N_24
REMARK   10  A    between atoms: C_28  and  C_29
REMARK                            x       y       z     vdW  Elec       q    Type
REMARK                         _______ _______ _______ _____ _____    ______ ____
ROOT
ATOM      7  C   UNL     1      -3.883   3.080  24.541  0.00  0.00    +0.039 C 
ATOM      8  C   UNL     1      -4.324   2.932  25.223  0.00  0.00    -0.033 C 
ATOM      9  C   UNL     1      -4.721   2.213  25.309  0.00  0.00    -0.048 C 
ATOM     10  C   UNL     1      -5.162   2.066  25.990  0.00  0.00    +0.026 C 
ATOM     11  C   UNL     1      -4.676   1.643  24.714  0.00  0.00    +0.027 C 
ATOM     27  C   UNL     1      -4.235   1.792  24.033  0.00  0.00    +0.005 C 
ATOM     28  C   UNL     1      -3.838   2.510  23.946  0.00  0.00    +0.006 C 
ENDROOT
BRANCH  28  29
ATOM     29  C   UNL     1      -3.397   2.659  23.265  0.00  0.00    +0.000 C 
ATOM     30  C   UNL     1      -2.637   2.349  23.190  0.00  0.00    +0.000 C 
ATOM     31  C   UNL     1      -3.717   3.119  22.660  0.00  0.00    +0.000 C 
ENDBRANCH  28  29
BRANCH   7   6
ATOM      6  C   UNL     1      -3.486   3.799  24.455  0.00  0.00    +0.093 C 
BRANCH   6   5
ATOM      5  N   UNL     1      -3.110   4.142  25.104  0.00  0.00    -0.215 NA
BRANCH   5   4
ATOM      4  C   UNL     1      -2.669   4.833  25.007  0.00  0.00    +0.121 C 
BRANCH   4   3
ATOM      3  C   UNL     1      -1.939   4.912  25.384  0.00  0.00    +0.161 C 
BRANCH   3   2
ATOM      1  C   UNL     1      -0.591   5.109  24.951  0.00  0.00    +0.174 C 
ATOM      2  O   UNL     1      -1.357   5.397  25.056  0.00  0.00    -0.350 OA
ENDBRANCH   3   2
ENDBRANCH   4   3
ENDBRANCH   5   4
ENDBRANCH   6   5
ENDBRANCH   7   6
BRANCH  11  12
ATOM     12  C   UNL     1      -5.073   0.926  24.800  0.00  0.00    +0.091 C 
BRANCH  12  13
ATOM     13  C   UNL     1      -4.672   0.215  24.677  0.00  0.00    +0.227 A 
ATOM     14  N   UNL     1      -4.967  -0.444  24.276  0.00  0.00    -0.111 NA
ATOM     15  N   UNL     1      -4.385  -1.028  24.284  0.00  0.00    -0.107 NA
ATOM     16  C   UNL     1      -3.731  -0.730  24.687  0.00  0.00    +0.250 A 
ATOM     17  O   UNL     1      -3.908   0.038  24.930  0.00  0.00    -0.420 OA
BRANCH  16  18
ATOM     18  C   UNL     1      -3.022  -1.130  24.825  0.00  0.00    +0.055 A 
ATOM     19  C   UNL     1      -2.469  -0.819  25.353  0.00  0.00    +0.006 A 
ATOM     20  C   UNL     1      -1.760  -1.218  25.491  0.00  0.00    +0.024 A 
ATOM     21  C   UNL     1      -1.604  -1.928  25.101  0.00  0.00    +0.143 A 
ATOM     22  C   UNL     1      -2.157  -2.240  24.573  0.00  0.00    +0.024 A 
ATOM     23  C   UNL     1      -2.866  -1.840  24.436  0.00  0.00    +0.006 A 
BRANCH  21  24
ATOM     24  N   UNL     1      -0.896  -2.327  25.239  0.00  0.00    +0.058 N 
ATOM     25  O   UNL     1      -0.234  -1.913  25.506  0.00  0.00    -0.126 OA
ATOM     26  O   UNL     1      -0.848  -3.141  25.110  0.00  0.00    -0.126 OA
ENDBRANCH  21  24
ENDBRANCH  16  18
ENDBRANCH  12  13
ENDBRANCH  11  12
TORSDOF 10
ENDMDL
MODEL 8
REMARK VINA RESULT:      -7.9      2.287      3.175
REMARK  Name = 
REMARK  10 active torsions:
REMARK  status: ('A' for Active; 'I' for Inactive)
REMARK    1  A    between atoms: O_2  and  C_3
REMARK    2  A    between atoms: C_3  and  C_4
REMARK    3  A    between atoms: C_4  and  N_5
REMARK    4  A    between atoms: N_5  and  C_6
REMARK    5  A    between atoms: C_6  and  C_7
REMARK    6  A    between atoms: C_11  and  C_12
REMARK    7  A    between atoms: C_12  and  C_13
REMARK    8  A    between atoms: C_16  and  C_18
REMARK    9  A    between atoms: C_21  and  N_24
REMARK   10  A    between atoms: C_28  and  C_29
REMARK                            x       y       z     vdW  Elec       q    Type
REMARK                         _______ _______ _______ _____ _____    ______ ____
ROOT
ATOM      7  C   UNL     1      -0.176   2.541  25.634  0.00  0.00    +0.039 C 
ATOM      8  C   UNL     1      -0.073   1.733  25.499  0.00  0.00    -0.033 C 
ATOM      9  C   UNL     1      -0.452   1.371  24.861  0.00  0.00    -0.048 C 
ATOM     10  C   UNL     1      -0.349   0.564  24.725  0.00  0.00    +0.026 C 
ATOM     11  C   UNL     1      -0.933   1.816  24.359  0.00  0.00    +0.027 C 
ATOM     27  C   UNL     1      -1.035   2.623  24.496  0.00  0.00    +0.005 C 
ATOM     28  C   UNL     1      -0.657   2.986  25.133  0.00  0.00    +0.006 C 
ENDROOT
BRANCH  28  29
ATOM     29  C   UNL     1      -0.759   3.793  25.269  0.00  0.00    +0.000 C 
ATOM     30  C   UNL     1      -1.353   4.054  25.778  0.00  0.00    +0.000 C 
ATOM     31  C   UNL     1      -0.266   4.339  24.897  0.00  0.00    +0.000 C 
ENDBRANCH  28  29
BRANCH   7   6
ATOM      6  C   UNL     1       0.202   2.903  26.272  0.00  0.00    +0.093 C 
BRANCH   6   5
ATOM      5  N   UNL     1       0.535   2.442  26.870  0.00  0.00    -0.215 NA
BRANCH   5   4
ATOM      4  C   UNL     1       0.989   2.797  27.461  0.00  0.00    +0.121 C 
BRANCH   4   3
ATOM      3  C   UNL     1       1.083   2.422  28.189  0.00  0.00    +0.161 C 
BRANCH   3   2
ATOM      1  C   UNL     1       1.676   2.427  29.490  0.00  0.00    +0.174 C 
ATOM      2  O   UNL     1       1.691   2.656  28.697  0.00  0.00    -0.350 OA
ENDBRANCH   3   2
ENDBRANCH   4   3
ENDBRANCH   5   4
ENDBRANCH   6   5
ENDBRANCH   7   6
BRANCH  11  12
ATOM     12  C   UNL     1      -1.310   1.454  23.722  0.00  0.00    +0.091 C 
BRANCH  12  13
ATOM     13  C   UNL     1      -2.121   1.556  23.610  0.00  0.00    +0.227 A 
ATOM     14  N   UNL     1      -2.498   1.690  22.888  0.00  0.00    -0.111 NA
ATOM     15  N   UNL     1      -3.307   1.759  23.031  0.00  0.00    -0.107 NA
ATOM     16  C   UNL     1      -3.431   1.668  23.841  0.00  0.00    +0.250 A 
ATOM     17  O   UNL     1      -2.698   1.542  24.199  0.00  0.00    -0.420 OA
BRANCH  16  18
ATOM     18  C   UNL     1      -4.160   1.697  24.227  0.00  0.00    +0.055 A 
ATOM     19  C   UNL     1      -4.488   1.007  24.539  0.00  0.00    +0.006 A 
ATOM     20  C   UNL     1      -5.217   1.034  24.925  0.00  0.00    +0.024 A 
ATOM     21  C   UNL     1      -5.617   1.752  24.999  0.00  0.00    +0.143 A 
ATOM     22  C   UNL     1      -5.289   2.442  24.687  0.00  0.00    +0.024 A 
ATOM     23  C   UNL     1      -4.560   2.414  24.301  0.00  0.00    +0.006 A 
BRANCH  21  24
ATOM     24  N   UNL     1      -6.345   1.780  25.385  0.00  0.00    +0.058 N 
ATOM     25  O   UNL     1      -7.044   1.704  24.954  0.00  0.00    -0.126 OA
ATOM     26  O   UNL     1      -6.375   1.885  26.203  0.00  0.00    -0.126 OA
ENDBRANCH  21  24
ENDBRANCH  16  18
ENDBRANCH  12  13
ENDBRANCH  11  12
TORSDOF 10
ENDMDL
MODEL 9
REMARK VINA RESULT:      -7.9      1.236      6.047
REMARK  Name = 
REMARK  10 active torsions:
REMARK  status: ('A' for Active; 'I' for Inactive)
REMARK    1  A    between atoms: O_2  and  C_3
REMARK    2  A    between atoms: C_3  and  C_4
REMARK    3  A    between atoms: C_4  and  N_5
REMARK    4  A    between atoms: N_5  and  C_6
REMARK    5  A    between atoms: C_6  and  C_7
REMARK    6  A    between atoms: C_11  and  C_12
REMARK    7  A    between atoms: C_12  and  C_13
REMARK    8  A    between atoms: C_16  and  C_18
REMARK    9  A    between atoms: C_21  and  N_24
REMARK   10  A    between atoms: C_28  and  C_29
REMARK                            x       y       z     vdW  Elec       q    Type
REMARK                         _______ _______ _______ _____ _____    ______ ____
ROOT
ATOM      7  C   UNL     1      -4.074   1.344  24.604  0.00  0.00    +0.039 C 
ATOM      8  C   UNL     1      -4.262   0.660  25.025  0.00  0.00    -0.033 C 
ATOM      9  C   UNL     1      -3.755   0.009  24.999  0.00  0.00    -0.048 C 
ATOM     10  C   UNL     1      -3.943  -0.675  25.420  0.00  0.00    +0.026 C 
ATOM     11  C   UNL     1      -3.062   0.042  24.553  0.00  0.00    +0.027 C 
ATOM     27  C   UNL     1      -2.876   0.727  24.132  0.00  0.00    +0.005 C 
ATOM     28  C   UNL     1      -3.381   1.378  24.157  0.00  0.00    +0.006 C 
ENDROOT
BRANCH  28  29
ATOM     29  C   UNL     1      -3.194   2.063  23.737  0.00  0.00    +0.000 C 
ATOM     30  C   UNL     1      -3.455   2.154  22.960  0.00  0.00    +0.000 C 
ATOM     31  C   UNL     1      -2.747   2.656  24.094  0.00  0.00    +0.000 C 
ENDBRANCH  28  29
BRANCH   7   6
ATOM      6  C   UNL     1      -4.581   1.996  24.629  0.00  0.00    +0.093 C 
BRANCH   6   5
ATOM      5  N   UNL     1      -5.086   2.100  25.272  0.00  0.00    -0.215 NA
BRANCH   5   4
ATOM      4  C   UNL     1      -5.675   2.678  25.245  0.00  0.00    +0.121 C 
BRANCH   4   3
ATOM      3  C   UNL     1      -5.690   3.276  25.813  0.00  0.00    +0.161 C 
BRANCH   3   2
ATOM      1  C   UNL     1      -5.902   4.682  25.666  0.00  0.00    +0.174 C 
ATOM      2  O   UNL     1      -6.204   3.916  25.723  0.00  0.00    -0.350 OA
ENDBRANCH   3   2
ENDBRANCH   4   3
ENDBRANCH   5   4
ENDBRANCH   6   5
ENDBRANCH   7   6
BRANCH  11  12
ATOM     12  C   UNL     1      -2.557  -0.609  24.528  0.00  0.00    +0.091 C 
BRANCH  12  13
ATOM     13  C   UNL     1      -1.740  -0.500  24.577  0.00  0.00    +0.227 A 
ATOM     14  N   UNL     1      -1.291  -0.517  25.269  0.00  0.00    -0.111 NA
ATOM     15  N   UNL     1      -0.503  -0.383  25.064  0.00  0.00    -0.107 NA
ATOM     16  C   UNL     1      -0.466  -0.284  24.246  0.00  0.00    +0.250 A 
ATOM     17  O   UNL     1      -1.231  -0.356  23.946  0.00  0.00    -0.420 OA
BRANCH  16  18
ATOM     18  C   UNL     1       0.216  -0.138  23.805  0.00  0.00    +0.055 A 
ATOM     19  C   UNL     1       0.519  -0.724  23.309  0.00  0.00    +0.006 A 
ATOM     20  C   UNL     1       1.201  -0.578  22.868  0.00  0.00    +0.024 A 
ATOM     21  C   UNL     1       1.580   0.153  22.923  0.00  0.00    +0.143 A 
ATOM     22  C   UNL     1       1.277   0.738  23.420  0.00  0.00    +0.024 A 
ATOM     23  C   UNL     1       0.595   0.592  23.861  0.00  0.00    +0.006 A 
BRANCH  21  24
ATOM     24  N   UNL     1       2.262   0.298  22.482  0.00  0.00    +0.058 N 
ATOM     25  O   UNL     1       2.328   0.003  21.715  0.00  0.00    -0.126 OA
ATOM     26  O   UNL     1       2.878   0.739  22.809  0.00  0.00    -0.126 OA
ENDBRANCH  21  24
ENDBRANCH  16  18
ENDBRANCH  12  13
ENDBRANCH  11  12
TORSDOF 10
ENDMDL
MODEL 10
REMARK VINA RESULT:      -7.7      2.090      5.231
REMARK  Name = 
REMARK  10 active torsions:
REMARK  status: ('A' for Active; 'I' for Inactive)
REMARK    1  A    between atoms: O_2  and  C_3
REMARK    2  A    between atoms: C_3  and  C_4
REMARK    3  A    between atoms: C_4  and  N_5
REMARK    4  A    between atoms: N_5  and  C_6
REMARK    5  A    between atoms: C_6  and  C_7
REMARK    6  A    between atoms: C_11  and  C_12
REMARK    7  A    between atoms: C_12  and  C_13
REMARK    8  A    between atoms: C_16  and  C_18
REMARK    9  A    between atoms: C_21  and  N_24
REMARK   10  A    between atoms: C_28  and  C_29
REMARK                            x       y       z     vdW  Elec       q    Type
REMARK                         _______ _______ _______ _____ _____    ______ ____
ROOT
ATOM      7  C   UNL     1      -2.338   2.851  24.465  0.00  0.00    +0.039 C 
ATOM      8  C   UNL     1      -1.863   2.871  25.138  0.00  0.00    -0.033 C 
ATOM      9  C   UNL     1      -1.227   2.349  25.209  0.00  0.00    -0.048 C 
ATOM     10  C   UNL     1      -0.751   2.369  25.883  0.00  0.00    +0.026 C 
ATOM     11  C   UNL     1      -1.067   1.809  24.606  0.00  0.00    +0.027 C 
ATOM     27  C   UNL     1      -1.543   1.790  23.933  0.00  0.00    +0.005 C 
ATOM     28  C   UNL     1      -2.179   2.311  23.862  0.00  0.00    +0.006 C 
ENDROOT
BRANCH  28  29
ATOM     29  C   UNL     1      -2.655   2.292  23.188  0.00  0.00    +0.000 C 
ATOM     30  C   UNL     1      -3.338   1.830  23.178  0.00  0.00    +0.000 C 
ATOM     31  C   UNL     1      -2.448   2.736  22.525  0.00  0.00    +0.000 C 
ENDBRANCH  28  29
BRANCH   7   6
ATOM      6  C   UNL     1      -2.975   3.372  24.394  0.00  0.00    +0.093 C 
BRANCH   6   5
ATOM      5  N   UNL     1      -3.337   3.674  25.071  0.00  0.00    -0.215 NA
BRANCH   5   4
ATOM      4  C   UNL     1      -4.097   3.993  25.024  0.00  0.00    +0.121 C 
BRANCH   4   3
ATOM      3  C   UNL     1      -4.632   3.876  25.641  0.00  0.00    +0.161 C 
BRANCH   3   2
ATOM      1  C   UNL     1      -5.881   3.191  25.753  0.00  0.00    +0.174 C 
ATOM      2  O   UNL     1      -5.441   3.835  25.483  0.00  0.00    -0.350 OA
ENDBRANCH   3   2
ENDBRANCH   4   3
ENDBRANCH   5   4
ENDBRANCH   6   5
ENDBRANCH   7   6
BRANCH  11  12
ATOM     12  C   UNL     1      -0.432   1.288  24.677  0.00  0.00    +0.091 C 
BRANCH  12  13
ATOM     13  C   UNL     1      -0.556   0.475  24.621  0.00  0.00    +0.227 A 
ATOM     14  N   UNL     1       0.020  -0.093  24.453  0.00  0.00    -0.111 NA
ATOM     15  N   UNL     1      -0.345  -0.832  24.450  0.00  0.00    -0.107 NA
ATOM     16  C   UNL     1      -1.145  -0.723  24.616  0.00  0.00    +0.250 A 
ATOM     17  O   UNL     1      -1.275   0.085  24.721  0.00  0.00    -0.420 OA
BRANCH  16  18
ATOM     18  C   UNL     1      -1.716  -1.316  24.667  0.00  0.00    +0.055 A 
ATOM     19  C   UNL     1      -1.607  -2.029  24.266  0.00  0.00    +0.006 A 
ATOM     20  C   UNL     1      -2.177  -2.623  24.317  0.00  0.00    +0.024 A 
ATOM     21  C   UNL     1      -2.857  -2.504  24.769  0.00  0.00    +0.143 A 
ATOM     22  C   UNL     1      -2.967  -1.791  25.170  0.00  0.00    +0.024 A 
ATOM     23  C   UNL     1      -2.396  -1.197  25.118  0.00  0.00    +0.006 A 
BRANCH  21  24
ATOM     24  N   UNL     1      -3.427  -3.097  24.819  0.00  0.00    +0.058 N 
ATOM     25  O   UNL     1      -3.928  -3.245  24.180  0.00  0.00    -0.126 OA
ATOM     26  O   UNL     1      -3.498  -3.544  25.510  0.00  0.00    -0.126 OA
ENDBRANCH  21  24
ENDBRANCH  16  18
ENDBRANCH  12  13
ENDBRANCH  11  12
TORSDOF 10
ENDMDL
