MODEL 1
REMARK VINA RESULT:     -13.7      0.000      0.000
REMARK  Name = 
REMARK  5 active torsions:
REMARK  status: ('A' for Active; 'I' for Inactive)
REMARK    1  A    between atoms: C_4  and  C_5
REMARK    2  A    between atoms: C_5  and  N_6
REMARK    3  A    between atoms: C_15  and  N_16
REMARK    4  A    between atoms: N_19  and  C_20
REMARK    5  A    between atoms: C_22  and  C_26
REMARK                            x       y       z     vdW  Elec       q    Type
REMARK                         _______ _______ _______ _____ _____    ______ ____
ROOT
ATOM      6  N   UNL     1      -3.383   3.444  25.448  0.00  0.00    -0.269 NA
ATOM      7  C   UNL     1      -3.641   4.089  25.912  0.00  0.00    +0.074 C 
ATOM      8  C   UNL     1      -4.613   3.914  25.913  0.00  0.00    +0.039 C 
ATOM      9  C   UNL     1      -5.422   3.910  26.010  0.00  0.00    +0.011 C 
ATOM     10  C   UNL     1      -4.936   3.519  25.688  0.00  0.00    +0.054 C 
ATOM     11  C   UNL     1      -3.999   3.702  25.696  0.00  0.00    +0.078 C 
ATOM     12  C   UNL     1      -4.844   2.765  25.170  0.00  0.00    +0.041 A 
ATOM     13  C   UNL     1      -5.295   2.167  24.824  0.00  0.00    +0.014 A 
ATOM     14  C   UNL     1      -4.926   1.577  24.382  0.00  0.00    +0.023 A 
ATOM     15  C   UNL     1      -4.106   1.583  24.287  0.00  0.00    +0.131 A 
ATOM     28  C   UNL     1      -3.656   2.181  24.633  0.00  0.00    +0.276 A 
ATOM     29  O   UNL     1      -2.836   2.188  24.538  0.00  0.00    -0.266 OA
ATOM     30  N   UNL     1      -4.025   2.772  25.075  0.00  0.00    -0.298 N 
ATOM     31  C   UNL     1      -4.507   3.127  25.373  0.00  0.00    +0.110 C 
ENDROOT
BRANCH  15  16
ATOM     16  N   UNL     1      -3.738   0.992  23.845  0.00  0.00    -0.156 NA
ATOM     17  C   UNL     1      -3.758   0.210  24.106  0.00  0.00    +0.348 C 
ATOM     18  O   UNL     1      -4.147   0.019  24.808  0.00  0.00    -0.248 OA
ATOM     19  N   UNL     1      -3.390  -0.382  23.664  0.00  0.00    -0.161 NA
BRANCH  19  20
ATOM     20  C   UNL     1      -3.411  -1.165  23.925  0.00  0.00    +0.076 A 
ATOM     21  C   UNL     1      -2.737  -1.507  24.256  0.00  0.00    +0.027 A 
ATOM     22  C   UNL     1      -2.757  -2.288  24.517  0.00  0.00    +0.070 A 
ATOM     23  C   UNL     1      -3.451  -2.730  24.447  0.00  0.00    +0.010 A 
ATOM     24  C   UNL     1      -4.125  -2.387  24.116  0.00  0.00    +0.002 A 
ATOM     25  C   UNL     1      -4.105  -1.605  23.855  0.00  0.00    +0.017 A 
BRANCH  22  26
ATOM     26  C   UNL     1      -2.083  -2.631  24.848  0.00  0.00    +0.100 C 
ATOM     27  N   UNL     1      -1.409  -2.974  25.179  0.00  0.00    -0.191 NA
ENDBRANCH  22  26
ENDBRANCH  19  20
ENDBRANCH  15  16
BRANCH   6   5
ATOM      5  C   UNL     1      -2.863   2.942  25.048  0.00  0.00    +0.101 C 
BRANCH   5   4
ATOM      1  C   UNL     1      -0.475   4.252  24.042  0.00  0.00    +0.130 C 
ATOM      2  N   UNL     1      -0.978   3.766  24.479  0.00  0.00    -0.324 N 
ATOM      3  C   UNL     1      -1.798   3.717  24.395  0.00  0.00    +0.073 A 
ATOM      4  C   UNL     1      -2.077   3.164  24.941  0.00  0.00    +0.012 A 
ATOM     32  C   UNL     1      -1.428   2.872  25.362  0.00  0.00    +0.015 A 
ATOM     33  C   UNL     1      -0.750   3.245  25.076  0.00  0.00    +0.060 A 
ATOM     34  C   UNL     1      -0.013   3.060  25.396  0.00  0.00    +0.017 A 
ATOM     35  C   UNL     1       0.046   2.504  26.002  0.00  0.00    +0.001 A 
ATOM     36  C   UNL     1      -0.632   2.131  26.288  0.00  0.00    +0.000 A 
ATOM     37  C   UNL     1      -1.370   2.316  25.968  0.00  0.00    +0.001 A 
ENDBRANCH   5   4
ENDBRANCH   6   5
TORSDOF 5
ENDMDL
MODEL 2
REMARK VINA RESULT:     -13.1      1.452      4.455
REMARK  Name = 
REMARK  5 active torsions:
REMARK  status: ('A' for Active; 'I' for Inactive)
REMARK    1  A    between atoms: C_4  and  C_5
REMARK    2  A    between atoms: C_5  and  N_6
REMARK    3  A    between atoms: C_15  and  N_16
REMARK    4  A    between atoms: N_19  and  C_20
REMARK    5  A    between atoms: C_22  and  C_26
REMARK                            x       y       z     vdW  Elec       q    Type
REMARK                         _______ _______ _______ _____ _____    ______ ____
ROOT
ATOM      6  N   UNL     1      -1.621  -1.199  24.598  0.00  0.00    -0.269 NA
ATOM      7  C   UNL     1      -1.272  -1.921  24.832  0.00  0.00    +0.074 C 
ATOM      8  C   UNL     1      -2.079  -2.491  24.870  0.00  0.00    +0.039 C 
ATOM      9  C   UNL     1      -2.635  -3.081  24.947  0.00  0.00    +0.011 C 
ATOM     10  C   UNL     1      -2.621  -2.401  24.774  0.00  0.00    +0.054 C 
ATOM     11  C   UNL     1      -1.832  -1.864  24.741  0.00  0.00    +0.078 C 
ATOM     12  C   UNL     1      -3.172  -1.711  24.521  0.00  0.00    +0.041 A 
ATOM     13  C   UNL     1      -3.967  -1.548  24.372  0.00  0.00    +0.014 A 
ATOM     14  C   UNL     1      -4.196  -0.788  24.145  0.00  0.00    +0.023 A 
ATOM     15  C   UNL     1      -3.631  -0.192  24.068  0.00  0.00    +0.131 A 
ATOM     28  C   UNL     1      -2.836  -0.356  24.217  0.00  0.00    +0.276 A 
ATOM     29  O   UNL     1      -2.271   0.240  24.139  0.00  0.00    -0.266 OA
ATOM     30  N   UNL     1      -2.607  -1.115  24.444  0.00  0.00    -0.298 N 
ATOM     31  C   UNL     1      -2.647  -1.763  24.606  0.00  0.00    +0.110 C 
ENDROOT
BRANCH  15  16
ATOM     16  N   UNL     1      -3.861   0.566  23.841  0.00  0.00    -0.156 NA
ATOM     17  C   UNL     1      -4.179   1.085  24.399  0.00  0.00    +0.348 C 
ATOM     18  O   UNL     1      -4.266   0.844  25.182  0.00  0.00    -0.248 OA
ATOM     19  N   UNL     1      -4.409   1.844  24.173  0.00  0.00    -0.161 NA
BRANCH  19  20
ATOM     20  C   UNL     1      -4.727   2.362  24.730  0.00  0.00    +0.076 A 
ATOM     21  C   UNL     1      -4.236   2.892  25.128  0.00  0.00    +0.027 A 
ATOM     22  C   UNL     1      -4.554   3.410  25.686  0.00  0.00    +0.070 A 
ATOM     23  C   UNL     1      -5.363   3.398  25.846  0.00  0.00    +0.010 A 
ATOM     24  C   UNL     1      -5.854   2.868  25.448  0.00  0.00    +0.002 A 
ATOM     25  C   UNL     1      -5.536   2.350  24.890  0.00  0.00    +0.017 A 
BRANCH  22  26
ATOM     26  C   UNL     1      -4.063   3.940  26.084  0.00  0.00    +0.100 C 
ATOM     27  N   UNL     1      -3.571   4.470  26.482  0.00  0.00    -0.191 NA
ENDBRANCH  22  26
ENDBRANCH  19  20
ENDBRANCH  15  16
BRANCH   6   5
ATOM      5  C   UNL     1      -1.675  -0.404  24.386  0.00  0.00    +0.101 C 
BRANCH   5   4
ATOM      1  C   UNL     1       0.771   0.554  23.147  0.00  0.00    +0.130 C 
ATOM      2  N   UNL     1       0.135   0.470  23.666  0.00  0.00    -0.324 N 
ATOM      3  C   UNL     1      -0.474  -0.083  23.600  0.00  0.00    +0.073 A 
ATOM      4  C   UNL     1      -0.990   0.030  24.234  0.00  0.00    +0.012 A 
ATOM     32  C   UNL     1      -0.699   0.654  24.691  0.00  0.00    +0.015 A 
ATOM     33  C   UNL     1      -0.005   0.925  24.339  0.00  0.00    +0.060 A 
ATOM     34  C   UNL     1       0.412   1.552  24.678  0.00  0.00    +0.017 A 
ATOM     35  C   UNL     1       0.133   1.906  25.368  0.00  0.00    +0.001 A 
ATOM     36  C   UNL     1      -0.562   1.635  25.720  0.00  0.00    +0.000 A 
ATOM     37  C   UNL     1      -0.978   1.008  25.382  0.00  0.00    +0.001 A 
ENDBRANCH   5   4
ENDBRANCH   6   5
TORSDOF 5
ENDMDL
MODEL 3
REMARK VINA RESULT:     -12.6      1.273      4.485
REMARK  Name = 
REMARK  5 active torsions:
REMARK  status: ('A' for Active; 'I' for Inactive)
REMARK    1  A    between atoms: C_4  and  C_5
REMARK    2  A    between atoms: C_5  and  N_6
REMARK    3  A    between atoms: C_15  and  N_16
REMARK    4  A    between atoms: N_19  and  C_20
REMARK    5  A    between atoms: C_22  and  C_26
REMARK                            x       y       z     vdW  Elec       q    Type
REMARK                         _______ _______ _______ _____ _____    ______ ____
ROOT
ATOM      6  N   UNL     1      -5.129   0.666  25.026  0.00  0.00    -0.269 NA
ATOM      7  C   UNL     1      -5.912   0.574  25.303  0.00  0.00    +0.074 C 
ATOM      8  C   UNL     1      -6.239   1.499  25.184  0.00  0.00    +0.039 C 
ATOM      9  C   UNL     1      -6.654   2.199  25.149  0.00  0.00    +0.011 C 
ATOM     10  C   UNL     1      -6.008   1.970  24.995  0.00  0.00    +0.054 C 
ATOM     11  C   UNL     1      -5.708   1.072  25.115  0.00  0.00    +0.078 C 
ATOM     12  C   UNL     1      -5.201   2.258  24.663  0.00  0.00    +0.041 A 
ATOM     13  C   UNL     1      -4.832   2.938  24.378  0.00  0.00    +0.014 A 
ATOM     14  C   UNL     1      -4.046   2.908  24.130  0.00  0.00    +0.023 A 
ATOM     15  C   UNL     1      -3.629   2.197  24.167  0.00  0.00    +0.131 A 
ATOM     28  C   UNL     1      -3.998   1.516  24.452  0.00  0.00    +0.276 A 
ATOM     29  O   UNL     1      -3.581   0.805  24.489  0.00  0.00    -0.266 OA
ATOM     30  N   UNL     1      -4.784   1.547  24.700  0.00  0.00    -0.298 N 
ATOM     31  C   UNL     1      -5.392   1.791  24.838  0.00  0.00    +0.110 C 
ENDROOT
BRANCH  15  16
ATOM     16  N   UNL     1      -2.843   2.167  23.919  0.00  0.00    -0.156 NA
ATOM     17  C   UNL     1      -2.265   2.588  24.330  0.00  0.00    +0.348 C 
ATOM     18  O   UNL     1      -2.473   3.040  24.988  0.00  0.00    -0.248 OA
ATOM     19  N   UNL     1      -1.479   2.559  24.082  0.00  0.00    -0.161 NA
BRANCH  19  20
ATOM     20  C   UNL     1      -0.901   2.981  24.493  0.00  0.00    +0.076 A 
ATOM     21  C   UNL     1      -0.555   2.657  25.168  0.00  0.00    +0.027 A 
ATOM     22  C   UNL     1       0.023   3.078  25.579  0.00  0.00    +0.070 A 
ATOM     23  C   UNL     1       0.256   3.825  25.315  0.00  0.00    +0.010 A 
ATOM     24  C   UNL     1      -0.090   4.149  24.640  0.00  0.00    +0.002 A 
ATOM     25  C   UNL     1      -0.668   3.727  24.229  0.00  0.00    +0.017 A 
BRANCH  22  26
ATOM     26  C   UNL     1       0.369   2.754  26.254  0.00  0.00    +0.100 C 
ATOM     27  N   UNL     1       0.715   2.429  26.930  0.00  0.00    -0.191 NA
ENDBRANCH  22  26
ENDBRANCH  19  20
ENDBRANCH  15  16
BRANCH   6   5
ATOM      5  C   UNL     1      -4.356   0.461  24.825  0.00  0.00    +0.101 C 
BRANCH   5   4
ATOM      1  C   UNL     1      -3.067  -1.550  26.476  0.00  0.00    +0.130 C 
ATOM      2  N   UNL     1      -3.444  -1.178  25.843  0.00  0.00    -0.324 N 
ATOM      3  C   UNL     1      -3.685  -0.389  25.818  0.00  0.00    +0.073 A 
ATOM      4  C   UNL     1      -4.037  -0.253  25.085  0.00  0.00    +0.012 A 
ATOM     32  C   UNL     1      -4.014  -0.959  24.656  0.00  0.00    +0.015 A 
ATOM     33  C   UNL     1      -3.648  -1.530  25.126  0.00  0.00    +0.060 A 
ATOM     34  C   UNL     1      -3.546  -2.297  24.839  0.00  0.00    +0.017 A 
ATOM     35  C   UNL     1      -3.812  -2.492  24.082  0.00  0.00    +0.001 A 
ATOM     36  C   UNL     1      -4.178  -1.921  23.613  0.00  0.00    +0.000 A 
ATOM     37  C   UNL     1      -4.279  -1.154  23.900  0.00  0.00    +0.001 A 
ENDBRANCH   5   4
ENDBRANCH   6   5
TORSDOF 5
ENDMDL
MODEL 4
REMARK VINA RESULT:     -12.4      2.803      4.612
REMARK  Name = 
REMARK  5 active torsions:
REMARK  status: ('A' for Active; 'I' for Inactive)
REMARK    1  A    between atoms: C_4  and  C_5
REMARK    2  A    between atoms: C_5  and  N_6
REMARK    3  A    between atoms: C_15  and  N_16
REMARK    4  A    between atoms: N_19  and  C_20
REMARK    5  A    between atoms: C_22  and  C_26
REMARK                            x       y       z     vdW  Elec       q    Type
REMARK                         _______ _______ _______ _____ _____    ______ ____
ROOT
ATOM      6  N   UNL     1      -3.269   0.054  24.913  0.00  0.00    -0.269 NA
ATOM      7  C   UNL     1      -3.967  -0.362  25.109  0.00  0.00    +0.074 C 
ATOM      8  C   UNL     1      -3.587  -1.263  25.256  0.00  0.00    +0.039 C 
ATOM      9  C   UNL     1      -3.434  -2.048  25.411  0.00  0.00    +0.011 C 
ATOM     10  C   UNL     1      -3.072  -1.475  25.229  0.00  0.00    +0.054 C 
ATOM     11  C   UNL     1      -3.454  -0.611  25.090  0.00  0.00    +0.078 C 
ATOM     12  C   UNL     1      -2.218  -1.192  25.040  0.00  0.00    +0.041 A 
ATOM     13  C   UNL     1      -1.445  -1.476  24.991  0.00  0.00    +0.014 A 
ATOM     14  C   UNL     1      -0.831  -0.966  24.786  0.00  0.00    +0.023 A 
ATOM     15  C   UNL     1      -0.988  -0.171  24.630  0.00  0.00    +0.131 A 
ATOM     28  C   UNL     1      -1.761   0.113  24.679  0.00  0.00    +0.276 A 
ATOM     29  O   UNL     1      -1.919   0.908  24.523  0.00  0.00    -0.266 OA
ATOM     30  N   UNL     1      -2.376  -0.397  24.884  0.00  0.00    -0.298 N 
ATOM     31  C   UNL     1      -2.698  -0.958  25.058  0.00  0.00    +0.110 C 
ENDROOT
BRANCH  15  16
ATOM     16  N   UNL     1      -0.373   0.338  24.425  0.00  0.00    -0.156 NA
ATOM     17  C   UNL     1       0.190   0.102  23.871  0.00  0.00    +0.348 C 
ATOM     18  O   UNL     1       0.139  -0.644  23.523  0.00  0.00    -0.248 OA
ATOM     19  N   UNL     1       0.806   0.611  23.666  0.00  0.00    -0.161 NA
BRANCH  19  20
ATOM     20  C   UNL     1       1.370   0.374  23.112  0.00  0.00    +0.076 A 
ATOM     21  C   UNL     1       2.167   0.550  23.233  0.00  0.00    +0.027 A 
ATOM     22  C   UNL     1       2.730   0.313  22.680  0.00  0.00    +0.070 A 
ATOM     23  C   UNL     1       2.498  -0.099  22.004  0.00  0.00    +0.010 A 
ATOM     24  C   UNL     1       1.701  -0.275  21.883  0.00  0.00    +0.002 A 
ATOM     25  C   UNL     1       1.137  -0.038  22.437  0.00  0.00    +0.017 A 
BRANCH  22  26
ATOM     26  C   UNL     1       3.527   0.489  22.801  0.00  0.00    +0.100 C 
ATOM     27  N   UNL     1       4.325   0.665  22.923  0.00  0.00    -0.191 NA
ENDBRANCH  22  26
ENDBRANCH  19  20
ENDBRANCH  15  16
BRANCH   6   5
ATOM      5  C   UNL     1      -2.785   0.687  24.700  0.00  0.00    +0.101 C 
BRANCH   5   4
ATOM      1  C   UNL     1      -3.778   3.256  25.622  0.00  0.00    +0.130 C 
ATOM      2  N   UNL     1      -3.541   2.636  25.131  0.00  0.00    -0.324 N 
ATOM      3  C   UNL     1      -3.253   1.904  25.380  0.00  0.00    +0.073 A 
ATOM      4  C   UNL     1      -3.085   1.456  24.708  0.00  0.00    +0.012 A 
ATOM     32  C   UNL     1      -3.268   1.912  24.044  0.00  0.00    +0.015 A 
ATOM     33  C   UNL     1      -3.550   2.641  24.307  0.00  0.00    +0.060 A 
ATOM     34  C   UNL     1      -3.779   3.216  23.761  0.00  0.00    +0.017 A 
ATOM     35  C   UNL     1      -3.725   3.060  22.952  0.00  0.00    +0.001 A 
ATOM     36  C   UNL     1      -3.444   2.331  22.690  0.00  0.00    +0.000 A 
ATOM     37  C   UNL     1      -3.215   1.756  23.236  0.00  0.00    +0.001 A 
ENDBRANCH   5   4
ENDBRANCH   6   5
TORSDOF 5
ENDMDL
MODEL 5
REMARK VINA RESULT:     -12.4      1.292      3.444
REMARK  Name = 
REMARK  5 active torsions:
REMARK  status: ('A' for Active; 'I' for Inactive)
REMARK    1  A    between atoms: C_4  and  C_5
REMARK    2  A    between atoms: C_5  and  N_6
REMARK    3  A    between atoms: C_15  and  N_16
REMARK    4  A    between atoms: N_19  and  C_20
REMARK    5  A    between atoms: C_22  and  C_26
REMARK                            x       y       z     vdW  Elec       q    Type
REMARK                         _______ _______ _______ _____ _____    ______ ____
ROOT
ATOM      6  N   UNL     1      -2.164   3.915  25.106  0.00  0.00    -0.269 NA
ATOM      7  C   UNL     1      -2.075   4.690  24.807  0.00  0.00    +0.074 C 
ATOM      8  C   UNL     1      -1.089   4.740  24.765  0.00  0.00    +0.039 C 
ATOM      9  C   UNL     1      -0.305   4.937  24.671  0.00  0.00    +0.011 C 
ATOM     10  C   UNL     1      -0.678   4.385  24.891  0.00  0.00    +0.054 C 
ATOM     11  C   UNL     1      -1.632   4.353  24.926  0.00  0.00    +0.078 C 
ATOM     12  C   UNL     1      -0.578   3.531  25.216  0.00  0.00    +0.041 A 
ATOM     13  C   UNL     1       0.008   2.984  25.411  0.00  0.00    +0.014 A 
ATOM     14  C   UNL     1      -0.202   2.241  25.700  0.00  0.00    +0.023 A 
ATOM     15  C   UNL     1      -0.998   2.044  25.795  0.00  0.00    +0.131 A 
ATOM     28  C   UNL     1      -1.584   2.591  25.599  0.00  0.00    +0.276 A 
ATOM     29  O   UNL     1      -2.380   2.394  25.693  0.00  0.00    -0.266 OA
ATOM     30  N   UNL     1      -1.374   3.334  25.310  0.00  0.00    -0.298 N 
ATOM     31  C   UNL     1      -0.995   3.847  25.105  0.00  0.00    +0.110 C 
ENDROOT
BRANCH  15  16
ATOM     16  N   UNL     1      -1.207   1.301  26.084  0.00  0.00    -0.156 NA
ATOM     17  C   UNL     1      -1.144   0.637  25.598  0.00  0.00    +0.348 C 
ATOM     18  O   UNL     1      -0.874   0.717  24.823  0.00  0.00    -0.248 OA
ATOM     19  N   UNL     1      -1.353  -0.107  25.887  0.00  0.00    -0.161 NA
BRANCH  19  20
ATOM     20  C   UNL     1      -1.291  -0.771  25.401  0.00  0.00    +0.076 A 
ATOM     21  C   UNL     1      -1.970  -1.179  25.171  0.00  0.00    +0.027 A 
ATOM     22  C   UNL     1      -1.908  -1.842  24.685  0.00  0.00    +0.070 A 
ATOM     23  C   UNL     1      -1.167  -2.099  24.428  0.00  0.00    +0.010 A 
ATOM     24  C   UNL     1      -0.488  -1.690  24.658  0.00  0.00    +0.002 A 
ATOM     25  C   UNL     1      -0.550  -1.026  25.144  0.00  0.00    +0.017 A 
BRANCH  22  26
ATOM     26  C   UNL     1      -2.587  -2.251  24.455  0.00  0.00    +0.100 C 
ATOM     27  N   UNL     1      -3.267  -2.659  24.225  0.00  0.00    -0.191 NA
ENDBRANCH  22  26
ENDBRANCH  19  20
ENDBRANCH  15  16
BRANCH   6   5
ATOM      5  C   UNL     1      -2.542   3.233  25.376  0.00  0.00    +0.101 C 
BRANCH   5   4
ATOM      1  C   UNL     1      -5.197   3.767  26.426  0.00  0.00    +0.130 C 
ATOM      2  N   UNL     1      -4.580   3.473  25.962  0.00  0.00    -0.324 N 
ATOM      3  C   UNL     1      -3.777   3.635  26.064  0.00  0.00    +0.073 A 
ATOM      4  C   UNL     1      -3.360   3.228  25.480  0.00  0.00    +0.012 A 
ATOM     32  C   UNL     1      -3.906   2.815  25.017  0.00  0.00    +0.015 A 
ATOM     33  C   UNL     1      -4.659   2.967  25.316  0.00  0.00    +0.060 A 
ATOM     34  C   UNL     1      -5.320   2.625  24.960  0.00  0.00    +0.017 A 
ATOM     35  C   UNL     1      -5.227   2.131  24.306  0.00  0.00    +0.001 A 
ATOM     36  C   UNL     1      -4.473   1.979  24.007  0.00  0.00    +0.000 A 
ATOM     37  C   UNL     1      -3.812   2.321  24.363  0.00  0.00    +0.001 A 
ENDBRANCH   5   4
ENDBRANCH   6   5
TORSDOF 5
ENDMDL
MODEL 6
REMARK VINA RESULT:     -12.0      2.769      4.718
REMARK  Name = 
REMARK  5 active torsions:
REMARK  status: ('A' for Active; 'I' for Inactive)
REMARK    1  A    between atoms: C_4  and  C_5
REMARK    2  A    between atoms: C_5  and  N_6
REMARK    3  A    between atoms: C_15  and  N_16
REMARK    4  A    between atoms: N_19  and  C_20
REMARK    5  A    between atoms: C_22  and  C_26
REMARK                            x       y       z     vdW  Elec       q    Type
REMARK                         _______ _______ _______ _____ _____    ______ ____
ROOT
ATOM      6  N   UNL     1      -3.397   0.900  24.411  0.00  0.00    -0.269 NA
ATOM      7  C   UNL     1      -4.118   1.320  24.377  0.00  0.00    +0.074 C 
ATOM      8  C   UNL     1      -3.779   2.212  24.121  0.00  0.00    +0.039 C 
ATOM      9  C   UNL     1      -3.664   2.991  23.915  0.00  0.00    +0.011 C 
ATOM     10  C   UNL     1      -3.271   2.419  24.019  0.00  0.00    +0.054 C 
ATOM     11  C   UNL     1      -3.615   1.563  24.267  0.00  0.00    +0.078 C 
ATOM     12  C   UNL     1      -2.399   2.130  24.005  0.00  0.00    +0.041 A 
ATOM     13  C   UNL     1      -1.635   2.407  23.861  0.00  0.00    +0.014 A 
ATOM     14  C   UNL     1      -0.992   1.894  23.926  0.00  0.00    +0.023 A 
ATOM     15  C   UNL     1      -1.113   1.105  24.135  0.00  0.00    +0.131 A 
ATOM     28  C   UNL     1      -1.877   0.829  24.279  0.00  0.00    +0.276 A 
ATOM     29  O   UNL     1      -1.997   0.040  24.488  0.00  0.00    -0.266 OA
ATOM     30  N   UNL     1      -2.520   1.341  24.214  0.00  0.00    -0.298 N 
ATOM     31  C   UNL     1      -2.871   1.901  24.109  0.00  0.00    +0.110 C 
ENDROOT
BRANCH  15  16
ATOM     16  N   UNL     1      -0.470   0.593  24.199  0.00  0.00    -0.156 NA
ATOM     17  C   UNL     1       0.104   0.575  23.606  0.00  0.00    +0.348 C 
ATOM     18  O   UNL     1       0.033   1.069  22.949  0.00  0.00    -0.248 OA
ATOM     19  N   UNL     1       0.747   0.063  23.670  0.00  0.00    -0.161 NA
BRANCH  19  20
ATOM     20  C   UNL     1       1.321   0.045  23.076  0.00  0.00    +0.076 A 
ATOM     21  C   UNL     1       2.069   0.363  23.216  0.00  0.00    +0.027 A 
ATOM     22  C   UNL     1       2.642   0.345  22.623  0.00  0.00    +0.070 A 
ATOM     23  C   UNL     1       2.467   0.009  21.890  0.00  0.00    +0.010 A 
ATOM     24  C   UNL     1       1.719  -0.309  21.751  0.00  0.00    +0.002 A 
ATOM     25  C   UNL     1       1.146  -0.291  22.344  0.00  0.00    +0.017 A 
BRANCH  22  26
ATOM     26  C   UNL     1       3.390   0.664  22.763  0.00  0.00    +0.100 C 
ATOM     27  N   UNL     1       4.139   0.982  22.903  0.00  0.00    -0.191 NA
ENDBRANCH  22  26
ENDBRANCH  19  20
ENDBRANCH  15  16
BRANCH   6   5
ATOM      5  C   UNL     1      -2.879   0.266  24.518  0.00  0.00    +0.101 C 
BRANCH   5   4
ATOM      1  C   UNL     1      -3.532  -1.656  26.595  0.00  0.00    +0.130 C 
ATOM      2  N   UNL     1      -3.438  -1.300  25.856  0.00  0.00    -0.324 N 
ATOM      3  C   UNL     1      -3.131  -0.547  25.717  0.00  0.00    +0.073 A 
ATOM      4  C   UNL     1      -3.138  -0.416  24.902  0.00  0.00    +0.012 A 
ATOM     32  C   UNL     1      -3.449  -1.090  24.539  0.00  0.00    +0.015 A 
ATOM     33  C   UNL     1      -3.634  -1.635  25.129  0.00  0.00    +0.060 A 
ATOM     34  C   UNL     1      -3.958  -2.367  24.928  0.00  0.00    +0.017 A 
ATOM     35  C   UNL     1      -4.096  -2.552  24.135  0.00  0.00    +0.001 A 
ATOM     36  C   UNL     1      -3.911  -2.007  23.545  0.00  0.00    +0.000 A 
ATOM     37  C   UNL     1      -3.587  -1.275  23.747  0.00  0.00    +0.001 A 
ENDBRANCH   5   4
ENDBRANCH   6   5
TORSDOF 5
ENDMDL
MODEL 7
REMARK VINA RESULT:     -11.9      1.361      4.935
REMARK  Name = 
REMARK  5 active torsions:
REMARK  status: ('A' for Active; 'I' for Inactive)
REMARK    1  A    between atoms: C_4  and  C_5
REMARK    2  A    between atoms: C_5  and  N_6
REMARK    3  A    between atoms: C_15  and  N_16
REMARK    4  A    between atoms: N_19  and  C_20
REMARK    5  A    between atoms: C_22  and  C_26
REMARK                            x       y       z     vdW  Elec       q    Type
REMARK                         _______ _______ _______ _____ _____    ______ ____
ROOT
ATOM      6  N   UNL     1      -4.257  -0.617  24.483  0.00  0.00    -0.269 NA
ATOM      7  C   UNL     1      -4.786  -1.121  24.077  0.00  0.00    +0.074 C 
ATOM      8  C   UNL     1      -4.205  -1.913  23.963  0.00  0.00    +0.039 C 
ATOM      9  C   UNL     1      -3.863  -2.632  23.792  0.00  0.00    +0.011 C 
ATOM     10  C   UNL     1      -3.680  -2.033  24.109  0.00  0.00    +0.054 C 
ATOM     11  C   UNL     1      -4.254  -1.275  24.210  0.00  0.00    +0.078 C 
ATOM     12  C   UNL     1      -2.975  -1.630  24.538  0.00  0.00    +0.041 A 
ATOM     13  C   UNL     1      -2.196  -1.777  24.766  0.00  0.00    +0.014 A 
ATOM     14  C   UNL     1      -1.767  -1.197  25.167  0.00  0.00    +0.023 A 
ATOM     15  C   UNL     1      -2.118  -0.470  25.339  0.00  0.00    +0.131 A 
ATOM     28  C   UNL     1      -2.897  -0.323  25.111  0.00  0.00    +0.276 A 
ATOM     29  O   UNL     1      -3.247   0.404  25.283  0.00  0.00    -0.266 OA
ATOM     30  N   UNL     1      -3.325  -0.903  24.710  0.00  0.00    -0.298 N 
ATOM     31  C   UNL     1      -3.474  -1.484  24.413  0.00  0.00    +0.110 C 
ENDROOT
BRANCH  15  16
ATOM     16  N   UNL     1      -1.689   0.110  25.739  0.00  0.00    -0.156 NA
ATOM     17  C   UNL     1      -1.271   0.681  25.314  0.00  0.00    +0.348 C 
ATOM     18  O   UNL     1      -1.284   0.672  24.489  0.00  0.00    -0.248 OA
ATOM     19  N   UNL     1      -0.842   1.261  25.713  0.00  0.00    -0.161 NA
BRANCH  19  20
ATOM     20  C   UNL     1      -0.425   1.832  25.288  0.00  0.00    +0.076 A 
ATOM     21  C   UNL     1      -0.679   2.616  25.291  0.00  0.00    +0.027 A 
ATOM     22  C   UNL     1      -0.263   3.187  24.867  0.00  0.00    +0.070 A 
ATOM     23  C   UNL     1       0.410   2.974  24.438  0.00  0.00    +0.010 A 
ATOM     24  C   UNL     1       0.665   2.189  24.436  0.00  0.00    +0.002 A 
ATOM     25  C   UNL     1       0.248   1.618  24.861  0.00  0.00    +0.017 A 
BRANCH  22  26
ATOM     26  C   UNL     1      -0.517   3.971  24.869  0.00  0.00    +0.100 C 
ATOM     27  N   UNL     1      -0.773   4.757  24.872  0.00  0.00    -0.191 NA
ENDBRANCH  22  26
ENDBRANCH  19  20
ENDBRANCH  15  16
BRANCH   6   5
ATOM      5  C   UNL     1      -3.980   0.059  24.867  0.00  0.00    +0.101 C 
BRANCH   5   4
ATOM      1  C   UNL     1      -6.110   1.609  26.091  0.00  0.00    +0.130 C 
ATOM      2  N   UNL     1      -5.478   1.386  25.608  0.00  0.00    -0.324 N 
ATOM      3  C   UNL     1      -5.095   0.655  25.616  0.00  0.00    +0.073 A 
ATOM      4  C   UNL     1      -4.500   0.674  25.045  0.00  0.00    +0.012 A 
ATOM     32  C   UNL     1      -4.516   1.416  24.684  0.00  0.00    +0.015 A 
ATOM     33  C   UNL     1      -5.120   1.856  25.032  0.00  0.00    +0.060 A 
ATOM     34  C   UNL     1      -5.267   2.627  24.779  0.00  0.00    +0.017 A 
ATOM     35  C   UNL     1      -4.808   2.959  24.179  0.00  0.00    +0.001 A 
ATOM     36  C   UNL     1      -4.204   2.519  23.831  0.00  0.00    +0.000 A 
ATOM     37  C   UNL     1      -4.057   1.747  24.083  0.00  0.00    +0.001 A 
ENDBRANCH   5   4
ENDBRANCH   6   5
TORSDOF 5
ENDMDL
