MODEL 1
REMARK VINA RESULT:      -8.8      0.000      0.000
REMARK  Name = 
REMARK  7 active torsions:
REMARK  status: ('A' for Active; 'I' for Inactive)
REMARK    1  A    between atoms: O_2  and  C_3
REMARK    2  A    between atoms: C_6  and  C_7
REMARK    3  A    between atoms: C_7  and  N_8
REMARK    4  A    between atoms: N_8  and  C_9
REMARK    5  A    between atoms: C_12  and  C_13
REMARK    6  A    between atoms: C_13  and  N_14
REMARK    7  A    between atoms: N_17  and  C_18
REMARK                            x       y       z     vdW  Elec       q    Type
REMARK                         _______ _______ _______ _____ _____    ______ ____
ROOT
ATOM      9  C   UNL     1      -4.326   1.237  24.645  0.00  0.00    +0.135 C 
ATOM     10  C   UNL     1      -4.761   1.570  25.262  0.00  0.00    +0.162 C 
ATOM     11  O   UNL     1      -4.558   2.368  25.317  0.00  0.00    -0.350 OA
ATOM     12  C   UNL     1      -3.996   2.528  24.734  0.00  0.00    +0.169 C 
ATOM     21  C   UNL     1      -3.853   1.829  24.319  0.00  0.00    +0.199 C 
ATOM     22  O   UNL     1      -3.328   1.739  23.689  0.00  0.00    -0.219 OA
ENDROOT
BRANCH   9   8
ATOM      8  N   UNL     1      -4.358   0.451  24.398  0.00  0.00    -0.209 NA
BRANCH   8   7
ATOM      7  C   UNL     1      -4.447  -0.152  24.953  0.00  0.00    +0.115 C 
BRANCH   7   6
ATOM      3  C   UNL     1      -3.609  -2.428  24.453  0.00  0.00    +0.139 A 
ATOM      4  C   UNL     1      -4.126  -2.054  23.930  0.00  0.00    +0.037 A 
ATOM      5  C   UNL     1      -4.405  -1.296  24.097  0.00  0.00    +0.000 A 
ATOM      6  C   UNL     1      -4.168  -0.911  24.786  0.00  0.00    -0.005 A 
ATOM     23  C   UNL     1      -3.651  -1.284  25.310  0.00  0.00    +0.000 A 
ATOM     24  C   UNL     1      -3.371  -2.043  25.144  0.00  0.00    +0.037 A 
BRANCH   3   2
ATOM      1  C   UNL     1      -2.530  -3.305  24.126  0.00  0.00    +0.252 C 
ATOM      2  O   UNL     1      -3.330  -3.186  24.288  0.00  0.00    -0.471 OA
ENDBRANCH   3   2
ENDBRANCH   7   6
ENDBRANCH   8   7
ENDBRANCH   9   8
BRANCH  12  13
ATOM     13  C   UNL     1      -3.640   3.258  24.592  0.00  0.00    +0.149 C 
BRANCH  13  14
ATOM     14  N   UNL     1      -3.077   3.553  25.118  0.00  0.00    -0.185 NA
ATOM     15  C   UNL     1      -2.566   4.154  24.882  0.00  0.00    +0.339 C 
ATOM     16  O   UNL     1      -2.616   4.462  24.118  0.00  0.00    -0.249 OA
ATOM     17  N   UNL     1      -2.003   4.450  25.408  0.00  0.00    -0.189 NA
BRANCH  17  18
ATOM     18  C   UNL     1      -1.491   5.051  25.171  0.00  0.00    +0.097 C 
ATOM     19  C   UNL     1      -0.714   4.873  24.957  0.00  0.00    +0.023 C 
ATOM     20  C   UNL     1      -1.756   5.832  25.148  0.00  0.00    +0.023 C 
ENDBRANCH  17  18
ENDBRANCH  13  14
ENDBRANCH  12  13
TORSDOF 7
ENDMDL
MODEL 2
REMARK VINA RESULT:      -8.1      2.066      2.372
REMARK  Name = 
REMARK  7 active torsions:
REMARK  status: ('A' for Active; 'I' for Inactive)
REMARK    1  A    between atoms: O_2  and  C_3
REMARK    2  A    between atoms: C_6  and  C_7
REMARK    3  A    between atoms: C_7  and  N_8
REMARK    4  A    between atoms: N_8  and  C_9
REMARK    5  A    between atoms: C_12  and  C_13
REMARK    6  A    between atoms: C_13  and  N_14
REMARK    7  A    between atoms: N_17  and  C_18
REMARK                            x       y       z     vdW  Elec       q    Type
REMARK                         _______ _______ _______ _____ _____    ______ ____
ROOT
ATOM      9  C   UNL     1      -1.040   0.276  25.047  0.00  0.00    +0.135 C 
ATOM     10  C   UNL     1      -0.791   0.483  25.806  0.00  0.00    +0.162 C 
ATOM     11  O   UNL     1      -0.580   1.280  25.798  0.00  0.00    -0.350 OA
ATOM     12  C   UNL     1      -0.698   1.567  25.033  0.00  0.00    +0.169 C 
ATOM     21  C   UNL     1      -0.982   0.946  24.570  0.00  0.00    +0.199 C 
ATOM     22  O   UNL     1      -1.174   0.989  23.769  0.00  0.00    -0.219 OA
ENDROOT
BRANCH   9   8
ATOM      8  N   UNL     1      -1.300  -0.469  24.808  0.00  0.00    -0.209 NA
BRANCH   8   7
ATOM      7  C   UNL     1      -1.675  -0.968  25.347  0.00  0.00    +0.115 C 
BRANCH   7   6
ATOM      3  C   UNL     1      -3.346  -2.615  24.557  0.00  0.00    +0.139 A 
ATOM      4  C   UNL     1      -3.584  -1.975  25.020  0.00  0.00    +0.037 A 
ATOM      5  C   UNL     1      -3.027  -1.427  25.283  0.00  0.00    +0.000 A 
ATOM      6  C   UNL     1      -2.232  -1.517  25.084  0.00  0.00    -0.005 A 
ATOM     23  C   UNL     1      -1.993  -2.156  24.621  0.00  0.00    +0.000 A 
ATOM     24  C   UNL     1      -2.550  -2.706  24.357  0.00  0.00    +0.037 A 
BRANCH   3   2
ATOM      1  C   UNL     1      -4.418  -2.969  23.681  0.00  0.00    +0.252 C 
ATOM      2  O   UNL     1      -3.901  -3.164  24.293  0.00  0.00    -0.471 OA
ENDBRANCH   3   2
ENDBRANCH   7   6
ENDBRANCH   8   7
ENDBRANCH   9   8
BRANCH  12  13
ATOM     13  C   UNL     1      -0.556   2.338  24.778  0.00  0.00    +0.149 C 
BRANCH  13  14
ATOM     14  N   UNL     1      -0.764   2.977  25.257  0.00  0.00    -0.185 NA
ATOM     15  C   UNL     1      -0.874   3.723  24.925  0.00  0.00    +0.339 C 
ATOM     16  O   UNL     1      -0.777   3.832  24.113  0.00  0.00    -0.249 OA
ATOM     17  N   UNL     1      -1.082   4.362  25.404  0.00  0.00    -0.189 NA
BRANCH  17  18
ATOM     18  C   UNL     1      -1.193   5.108  25.072  0.00  0.00    +0.097 C 
ATOM     19  C   UNL     1      -0.561   5.499  24.713  0.00  0.00    +0.023 C 
ATOM     20  C   UNL     1      -1.936   5.465  25.099  0.00  0.00    +0.023 C 
ENDBRANCH  17  18
ENDBRANCH  13  14
ENDBRANCH  12  13
TORSDOF 7
ENDMDL
MODEL 3
REMARK VINA RESULT:      -8.1      1.071      5.723
REMARK  Name = 
REMARK  7 active torsions:
REMARK  status: ('A' for Active; 'I' for Inactive)
REMARK    1  A    between atoms: O_2  and  C_3
REMARK    2  A    between atoms: C_6  and  C_7
REMARK    3  A    between atoms: C_7  and  N_8
REMARK    4  A    between atoms: N_8  and  C_9
REMARK    5  A    between atoms: C_12  and  C_13
REMARK    6  A    between atoms: C_13  and  N_14
REMARK    7  A    between atoms: N_17  and  C_18
REMARK                            x       y       z     vdW  Elec       q    Type
REMARK                         _______ _______ _______ _____ _____    ______ ____
ROOT
ATOM      9  C   UNL     1      -4.127   2.029  24.800  0.00  0.00    +0.135 C 
ATOM     10  C   UNL     1      -4.707   1.807  25.343  0.00  0.00    +0.162 C 
ATOM     11  O   UNL     1      -4.875   1.008  25.226  0.00  0.00    -0.350 OA
ATOM     12  C   UNL     1      -4.398   0.735  24.610  0.00  0.00    +0.169 C 
ATOM     21  C   UNL     1      -3.936   1.367  24.346  0.00  0.00    +0.199 C 
ATOM     22  O   UNL     1      -3.381   1.339  23.737  0.00  0.00    -0.219 OA
ENDROOT
BRANCH   9   8
ATOM      8  N   UNL     1      -3.797   2.780  24.723  0.00  0.00    -0.209 NA
BRANCH   8   7
ATOM      7  C   UNL     1      -3.566   3.200  25.394  0.00  0.00    +0.115 C 
BRANCH   7   6
ATOM      3  C   UNL     1      -1.709   4.832  25.257  0.00  0.00    +0.139 A 
ATOM      4  C   UNL     1      -1.616   4.136  25.689  0.00  0.00    +0.037 A 
ATOM      5  C   UNL     1      -2.234   3.593  25.735  0.00  0.00    +0.000 A 
ATOM      6  C   UNL     1      -2.947   3.744  25.349  0.00  0.00    -0.005 A 
ATOM     23  C   UNL     1      -3.041   4.440  24.916  0.00  0.00    +0.000 A 
ATOM     24  C   UNL     1      -2.422   4.985  24.870  0.00  0.00    +0.037 A 
BRANCH   3   2
ATOM      1  C   UNL     1      -0.524   5.308  24.616  0.00  0.00    +0.252 C 
ATOM      2  O   UNL     1      -1.092   5.376  25.211  0.00  0.00    -0.471 OA
ENDBRANCH   3   2
ENDBRANCH   7   6
ENDBRANCH   8   7
ENDBRANCH   9   8
BRANCH  12  13
ATOM     13  C   UNL     1      -4.386  -0.033  24.310  0.00  0.00    +0.149 C 
BRANCH  13  14
ATOM     14  N   UNL     1      -4.121  -0.656  24.781  0.00  0.00    -0.185 NA
ATOM     15  C   UNL     1      -3.898  -1.370  24.435  0.00  0.00    +0.339 C 
ATOM     16  O   UNL     1      -3.940  -1.462  23.616  0.00  0.00    -0.249 OA
ATOM     17  N   UNL     1      -3.634  -1.994  24.906  0.00  0.00    -0.189 NA
BRANCH  17  18
ATOM     18  C   UNL     1      -3.411  -2.707  24.559  0.00  0.00    +0.097 C 
ATOM     19  C   UNL     1      -2.612  -2.900  24.486  0.00  0.00    +0.023 C 
ATOM     20  C   UNL     1      -3.987  -3.230  24.286  0.00  0.00    +0.023 C 
ENDBRANCH  17  18
ENDBRANCH  13  14
ENDBRANCH  12  13
TORSDOF 7
ENDMDL
MODEL 4
REMARK VINA RESULT:      -8.0      4.041      5.195
REMARK  Name = 
REMARK  7 active torsions:
REMARK  status: ('A' for Active; 'I' for Inactive)
REMARK    1  A    between atoms: O_2  and  C_3
REMARK    2  A    between atoms: C_6  and  C_7
REMARK    3  A    between atoms: C_7  and  N_8
REMARK    4  A    between atoms: N_8  and  C_9
REMARK    5  A    between atoms: C_12  and  C_13
REMARK    6  A    between atoms: C_13  and  N_14
REMARK    7  A    between atoms: N_17  and  C_18
REMARK                            x       y       z     vdW  Elec       q    Type
REMARK                         _______ _______ _______ _____ _____    ______ ____
ROOT
ATOM      9  C   UNL     1      -0.864   1.365  24.173  0.00  0.00    +0.135 C 
ATOM     10  C   UNL     1      -0.372   1.970  24.442  0.00  0.00    +0.162 C 
ATOM     11  O   UNL     1       0.402   1.789  24.223  0.00  0.00    -0.350 OA
ATOM     12  C   UNL     1       0.389   1.070  23.817  0.00  0.00    +0.169 C 
ATOM     21  C   UNL     1      -0.393   0.809  23.787  0.00  0.00    +0.199 C 
ATOM     22  O   UNL     1      -0.657   0.112  23.432  0.00  0.00    -0.219 OA
ENDROOT
BRANCH   9   8
ATOM      8  N   UNL     1      -1.681   1.323  24.273  0.00  0.00    -0.209 NA
BRANCH   8   7
ATOM      7  C   UNL     1      -2.089   1.958  24.605  0.00  0.00    +0.115 C 
BRANCH   7   6
ATOM      3  C   UNL     1      -4.563   2.014  24.532  0.00  0.00    +0.139 A 
ATOM      4  C   UNL     1      -4.127   2.629  24.199  0.00  0.00    +0.037 A 
ATOM      5  C   UNL     1      -3.303   2.610  24.224  0.00  0.00    +0.000 A 
ATOM      6  C   UNL     1      -2.914   1.976  24.581  0.00  0.00    -0.005 A 
ATOM     23  C   UNL     1      -3.350   1.360  24.914  0.00  0.00    +0.000 A 
ATOM     24  C   UNL     1      -4.175   1.379  24.890  0.00  0.00    +0.037 A 
BRANCH   3   2
ATOM      1  C   UNL     1      -5.819   2.126  25.205  0.00  0.00    +0.252 C 
ATOM      2  O   UNL     1      -5.387   2.031  24.509  0.00  0.00    -0.471 OA
ENDBRANCH   3   2
ENDBRANCH   7   6
ENDBRANCH   8   7
ENDBRANCH   9   8
BRANCH  12  13
ATOM     13  C   UNL     1       1.043   0.683  23.498  0.00  0.00    +0.149 C 
BRANCH  13  14
ATOM     14  N   UNL     1       1.779   1.055  23.487  0.00  0.00    -0.185 NA
ATOM     15  C   UNL     1       2.421   0.690  23.119  0.00  0.00    +0.339 C 
ATOM     16  O   UNL     1       2.327  -0.048  22.763  0.00  0.00    -0.249 OA
ATOM     17  N   UNL     1       3.157   1.063  23.108  0.00  0.00    -0.189 NA
BRANCH  17  18
ATOM     18  C   UNL     1       3.799   0.698  22.741  0.00  0.00    +0.097 C 
ATOM     19  C   UNL     1       3.782   0.551  21.929  0.00  0.00    +0.023 C 
ATOM     20  C   UNL     1       4.459   0.480  23.185  0.00  0.00    +0.023 C 
ENDBRANCH  17  18
ENDBRANCH  13  14
ENDBRANCH  12  13
TORSDOF 7
ENDMDL
MODEL 5
REMARK VINA RESULT:      -7.9      2.116      6.244
REMARK  Name = 
REMARK  7 active torsions:
REMARK  status: ('A' for Active; 'I' for Inactive)
REMARK    1  A    between atoms: O_2  and  C_3
REMARK    2  A    between atoms: C_6  and  C_7
REMARK    3  A    between atoms: C_7  and  N_8
REMARK    4  A    between atoms: N_8  and  C_9
REMARK    5  A    between atoms: C_12  and  C_13
REMARK    6  A    between atoms: C_13  and  N_14
REMARK    7  A    between atoms: N_17  and  C_18
REMARK                            x       y       z     vdW  Elec       q    Type
REMARK                         _______ _______ _______ _____ _____    ______ ____
ROOT
ATOM      9  C   UNL     1      -0.927   1.225  25.181  0.00  0.00    +0.135 C 
ATOM     10  C   UNL     1      -0.790   0.832  25.893  0.00  0.00    +0.162 C 
ATOM     11  O   UNL     1      -1.026   0.047  25.802  0.00  0.00    -0.350 OA
ATOM     12  C   UNL     1      -1.309  -0.045  25.032  0.00  0.00    +0.169 C 
ATOM     21  C   UNL     1      -1.248   0.683  24.649  0.00  0.00    +0.199 C 
ATOM     22  O   UNL     1      -1.469   0.840  23.870  0.00  0.00    -0.219 OA
ENDROOT
BRANCH   9   8
ATOM      8  N   UNL     1      -0.770   2.020  25.029  0.00  0.00    -0.209 NA
BRANCH   8   7
ATOM      7  C   UNL     1      -0.836   2.577  25.633  0.00  0.00    +0.115 C 
BRANCH   7   6
ATOM      3  C   UNL     1      -1.225   4.960  25.085  0.00  0.00    +0.139 A 
ATOM      4  C   UNL     1      -1.803   4.529  25.486  0.00  0.00    +0.037 A 
ATOM      5  C   UNL     1      -1.673   3.735  25.669  0.00  0.00    +0.000 A 
ATOM      6  C   UNL     1      -0.966   3.372  25.451  0.00  0.00    -0.005 A 
ATOM     23  C   UNL     1      -0.387   3.802  25.050  0.00  0.00    +0.000 A 
ATOM     24  C   UNL     1      -0.517   4.597  24.867  0.00  0.00    +0.037 A 
BRANCH   3   2
ATOM      1  C   UNL     1      -2.091   6.095  25.041  0.00  0.00    +0.252 C 
ATOM      2  O   UNL     1      -1.354   5.754  24.903  0.00  0.00    -0.471 OA
ENDBRANCH   3   2
ENDBRANCH   7   6
ENDBRANCH   8   7
ENDBRANCH   9   8
BRANCH  12  13
ATOM     13  C   UNL     1      -1.602  -0.743  24.704  0.00  0.00    +0.149 C 
BRANCH  13  14
ATOM     14  N   UNL     1      -2.348  -1.020  24.920  0.00  0.00    -0.185 NA
ATOM     15  C   UNL     1      -2.643  -1.714  24.588  0.00  0.00    +0.339 C 
ATOM     16  O   UNL     1      -2.192  -2.133  24.039  0.00  0.00    -0.249 OA
ATOM     17  N   UNL     1      -3.390  -1.991  24.804  0.00  0.00    -0.189 NA
BRANCH  17  18
ATOM     18  C   UNL     1      -3.685  -2.685  24.472  0.00  0.00    +0.097 C 
ATOM     19  C   UNL     1      -4.213  -2.649  23.838  0.00  0.00    +0.023 C 
ATOM     20  C   UNL     1      -3.453  -3.417  24.772  0.00  0.00    +0.023 C 
ENDBRANCH  17  18
ENDBRANCH  13  14
ENDBRANCH  12  13
TORSDOF 7
ENDMDL
MODEL 6
REMARK VINA RESULT:      -7.8      3.738      4.838
REMARK  Name = 
REMARK  7 active torsions:
REMARK  status: ('A' for Active; 'I' for Inactive)
REMARK    1  A    between atoms: O_2  and  C_3
REMARK    2  A    between atoms: C_6  and  C_7
REMARK    3  A    between atoms: C_7  and  N_8
REMARK    4  A    between atoms: N_8  and  C_9
REMARK    5  A    between atoms: C_12  and  C_13
REMARK    6  A    between atoms: C_13  and  N_14
REMARK    7  A    between atoms: N_17  and  C_18
REMARK                            x       y       z     vdW  Elec       q    Type
REMARK                         _______ _______ _______ _____ _____    ______ ____
ROOT
ATOM      9  C   UNL     1      -1.127   0.903  23.897  0.00  0.00    +0.135 C 
ATOM     10  C   UNL     1      -1.420   0.333  24.416  0.00  0.00    +0.162 C 
ATOM     11  O   UNL     1      -2.209   0.513  24.574  0.00  0.00    -0.350 OA
ATOM     12  C   UNL     1      -2.404   1.196  24.152  0.00  0.00    +0.169 C 
ATOM     21  C   UNL     1      -1.735   1.436  23.734  0.00  0.00    +0.199 C 
ATOM     22  O   UNL     1      -1.684   2.094  23.239  0.00  0.00    -0.219 OA
ENDROOT
BRANCH   9   8
ATOM      8  N   UNL     1      -0.361   0.935  23.594  0.00  0.00    -0.209 NA
BRANCH   8   7
ATOM      7  C   UNL     1       0.138   0.281  23.662  0.00  0.00    +0.115 C 
BRANCH   7   6
ATOM      3  C   UNL     1       2.382   0.319  22.618  0.00  0.00    +0.139 A 
ATOM      4  C   UNL     1       1.818  -0.227  22.364  0.00  0.00    +0.037 A 
ATOM      5  C   UNL     1       1.070  -0.239  22.712  0.00  0.00    +0.000 A 
ATOM      6  C   UNL     1       0.886   0.294  23.314  0.00  0.00    -0.005 A 
ATOM     23  C   UNL     1       1.449   0.840  23.568  0.00  0.00    +0.000 A 
ATOM     24  C   UNL     1       2.198   0.852  23.220  0.00  0.00    +0.037 A 
BRANCH   3   2
ATOM      1  C   UNL     1       3.777   0.618  22.693  0.00  0.00    +0.252 C 
ATOM      2  O   UNL     1       3.129   0.332  22.270  0.00  0.00    -0.471 OA
ENDBRANCH   3   2
ENDBRANCH   7   6
ENDBRANCH   8   7
ENDBRANCH   9   8
BRANCH  12  13
ATOM     13  C   UNL     1      -3.139   1.570  24.150  0.00  0.00    +0.149 C 
BRANCH  13  14
ATOM     14  N   UNL     1      -3.686   1.410  24.746  0.00  0.00    -0.185 NA
ATOM     15  C   UNL     1      -4.393   1.833  24.782  0.00  0.00    +0.339 C 
ATOM     16  O   UNL     1      -4.553   2.417  24.221  0.00  0.00    -0.249 OA
ATOM     17  N   UNL     1      -4.941   1.673  25.378  0.00  0.00    -0.189 NA
BRANCH  17  18
ATOM     18  C   UNL     1      -5.647   2.096  25.414  0.00  0.00    +0.097 C 
ATOM     19  C   UNL     1      -6.316   1.818  25.017  0.00  0.00    +0.023 C 
ATOM     20  C   UNL     1      -5.687   2.797  25.847  0.00  0.00    +0.023 C 
ENDBRANCH  17  18
ENDBRANCH  13  14
ENDBRANCH  12  13
TORSDOF 7
ENDMDL
MODEL 7
REMARK VINA RESULT:      -5.2     17.582     19.261
REMARK  Name = 
REMARK  7 active torsions:
REMARK  status: ('A' for Active; 'I' for Inactive)
REMARK    1  A    between atoms: O_2  and  C_3
REMARK    2  A    between atoms: C_6  and  C_7
REMARK    3  A    between atoms: C_7  and  N_8
REMARK    4  A    between atoms: N_8  and  C_9
REMARK    5  A    between atoms: C_12  and  C_13
REMARK    6  A    between atoms: C_13  and  N_14
REMARK    7  A    between atoms: N_17  and  C_18
REMARK                            x       y       z     vdW  Elec       q    Type
REMARK                         _______ _______ _______ _____ _____    ______ ____
ROOT
ATOM      9  C   UNL     1      13.099   7.208  20.279  0.00  0.00    +0.135 C 
ATOM     10  C   UNL     1      12.733   6.527  19.989  0.00  0.00    +0.162 C 
ATOM     11  O   UNL     1      12.173   6.757  19.429  0.00  0.00    -0.350 OA
ATOM     12  C   UNL     1      12.192   7.580  19.373  0.00  0.00    +0.169 C 
ATOM     21  C   UNL     1      12.765   7.858  19.898  0.00  0.00    +0.199 C 
ATOM     22  O   UNL     1      12.967   8.649  20.020  0.00  0.00    -0.219 OA
ENDROOT
BRANCH   9   8
ATOM      8  N   UNL     1      13.694   7.233  20.849  0.00  0.00    -0.209 NA
BRANCH   8   7
ATOM      7  C   UNL     1      14.379   6.784  20.751  0.00  0.00    +0.115 C 
BRANCH   7   6
ATOM      3  C   UNL     1      16.583   7.742  21.345  0.00  0.00    +0.139 A 
ATOM      4  C   UNL     1      15.991   7.686  21.915  0.00  0.00    +0.037 A 
ATOM      5  C   UNL     1      15.257   7.367  21.718  0.00  0.00    +0.000 A 
ATOM      6  C   UNL     1      15.114   7.104  20.949  0.00  0.00    -0.005 A 
ATOM     23  C   UNL     1      15.706   7.160  20.377  0.00  0.00    +0.000 A 
ATOM     24  C   UNL     1      16.441   7.479  20.575  0.00  0.00    +0.037 A 
BRANCH   3   2
ATOM      1  C   UNL     1      17.393   8.870  21.682  0.00  0.00    +0.252 C 
ATOM      2  O   UNL     1      17.318   8.061  21.542  0.00  0.00    -0.471 OA
ENDBRANCH   3   2
ENDBRANCH   7   6
ENDBRANCH   8   7
ENDBRANCH   9   8
BRANCH  12  13
ATOM     13  C   UNL     1      11.722   8.043  18.878  0.00  0.00    +0.149 C 
BRANCH  13  14
ATOM     14  N   UNL     1      11.714   7.902  18.065  0.00  0.00    -0.185 NA
ATOM     15  C   UNL     1      11.218   8.341  17.575  0.00  0.00    +0.339 C 
ATOM     16  O   UNL     1      10.729   8.922  17.897  0.00  0.00    -0.249 OA
ATOM     17  N   UNL     1      11.210   8.200  16.762  0.00  0.00    -0.189 NA
BRANCH  17  18
ATOM     18  C   UNL     1      10.714   8.639  16.271  0.00  0.00    +0.097 C 
ATOM     19  C   UNL     1       9.897   8.625  16.390  0.00  0.00    +0.023 C 
ATOM     20  C   UNL     1      11.034   9.094  15.661  0.00  0.00    +0.023 C 
ENDBRANCH  17  18
ENDBRANCH  13  14
ENDBRANCH  12  13
TORSDOF 7
ENDMDL
MODEL 8
REMARK VINA RESULT:      -4.9     17.894     19.530
REMARK  Name = 
REMARK  7 active torsions:
REMARK  status: ('A' for Active; 'I' for Inactive)
REMARK    1  A    between atoms: O_2  and  C_3
REMARK    2  A    between atoms: C_6  and  C_7
REMARK    3  A    between atoms: C_7  and  N_8
REMARK    4  A    between atoms: N_8  and  C_9
REMARK    5  A    between atoms: C_12  and  C_13
REMARK    6  A    between atoms: C_13  and  N_14
REMARK    7  A    between atoms: N_17  and  C_18
REMARK                            x       y       z     vdW  Elec       q    Type
REMARK                         _______ _______ _______ _____ _____    ______ ____
ROOT
ATOM      9  C   UNL     1      13.020   8.341  19.378  0.00  0.00    +0.135 C 
ATOM     10  C   UNL     1      13.565   8.957  19.450  0.00  0.00    +0.162 C 
ATOM     11  O   UNL     1      14.174   8.703  19.945  0.00  0.00    -0.350 OA
ATOM     12  C   UNL     1      14.006   7.930  20.179  0.00  0.00    +0.169 C 
ATOM     21  C   UNL     1      13.293   7.707  19.829  0.00  0.00    +0.199 C 
ATOM     22  O   UNL     1      12.919   6.976  19.915  0.00  0.00    -0.219 OA
ENDROOT
BRANCH   9   8
ATOM      8  N   UNL     1      12.325   8.358  18.934  0.00  0.00    -0.209 NA
BRANCH   8   7
ATOM      7  C   UNL     1      12.144   9.019  18.476  0.00  0.00    +0.115 C 
BRANCH   7   6
ATOM      3  C   UNL     1      10.930   8.749  16.335  0.00  0.00    +0.139 A 
ATOM      4  C   UNL     1      10.548   8.591  17.049  0.00  0.00    +0.037 A 
ATOM      5  C   UNL     1      10.952   8.681  17.762  0.00  0.00    +0.000 A 
ATOM      6  C   UNL     1      11.739   8.929  17.762  0.00  0.00    -0.005 A 
ATOM     23  C   UNL     1      12.122   9.087  17.049  0.00  0.00    +0.000 A 
ATOM     24  C   UNL     1      11.717   8.997  16.335  0.00  0.00    +0.037 A 
BRANCH   3   2
ATOM      1  C   UNL     1      10.756   9.093  14.960  0.00  0.00    +0.252 C 
ATOM      2  O   UNL     1      10.526   8.660  15.622  0.00  0.00    -0.471 OA
ENDBRANCH   3   2
ENDBRANCH   7   6
ENDBRANCH   8   7
ENDBRANCH   9   8
BRANCH  12  13
ATOM     13  C   UNL     1      14.469   7.463  20.676  0.00  0.00    +0.149 C 
BRANCH  13  14
ATOM     14  N   UNL     1      15.283   7.589  20.721  0.00  0.00    -0.185 NA
ATOM     15  C   UNL     1      15.795   6.950  20.824  0.00  0.00    +0.339 C 
ATOM     16  O   UNL     1      15.492   6.185  20.883  0.00  0.00    -0.249 OA
ATOM     17  N   UNL     1      16.609   7.076  20.869  0.00  0.00    -0.189 NA
BRANCH  17  18
ATOM     18  C   UNL     1      17.120   6.438  20.972  0.00  0.00    +0.097 C 
ATOM     19  C   UNL     1      17.405   6.026  20.317  0.00  0.00    +0.023 C 
ATOM     20  C   UNL     1      17.348   6.211  21.732  0.00  0.00    +0.023 C 
ENDBRANCH  17  18
ENDBRANCH  13  14
ENDBRANCH  12  13
TORSDOF 7
ENDMDL
