MODEL 1
REMARK VINA RESULT:     -11.0      0.000      0.000
REMARK  Name = 
REMARK  6 active torsions:
REMARK  status: ('A' for Active; 'I' for Inactive)
REMARK    1  A    between atoms: O_2  and  C_3
REMARK    2  A    between atoms: C_6  and  C_9
REMARK    3  A    between atoms: C_12  and  C_14
REMARK    4  A    between atoms: N_19  and  C_20
REMARK    5  A    between atoms: C_20  and  C_21
REMARK    6  A    between atoms: C_24  and  C_25
REMARK                            x       y       z     vdW  Elec       q    Type
REMARK                         _______ _______ _______ _____ _____    ______ ____
ROOT
ATOM     14  C   UNL     1      -4.138   2.146  24.779  0.00  0.00    +0.144 C 
ATOM     15  C   UNL     1      -4.932   2.335  24.901  0.00  0.00    +0.073 C 
ATOM     16  C   UNL     1      -5.138   3.063  25.229  0.00  0.00    +0.077 A 
ATOM     17  C   UNL     1      -4.549   3.603  25.436  0.00  0.00    +0.090 A 
ATOM     18  C   UNL     1      -3.755   3.415  25.314  0.00  0.00    +0.121 C 
ATOM     19  N   UNL     1      -3.550   2.686  24.985  0.00  0.00    -0.254 NA
ATOM     28  N   UNL     1      -4.916   4.273  25.746  0.00  0.00    -0.226 NA
ATOM     29  C   UNL     1      -5.730   4.148  25.732  0.00  0.00    +0.198 A 
ATOM     30  N   UNL     1      -5.867   3.400  25.413  0.00  0.00    -0.227 NA
ENDROOT
BRANCH  14  12
ATOM      9  C   UNL     1      -3.727   0.108  24.295  0.00  0.00    +0.203 A 
ATOM     10  N   UNL     1      -3.506   0.486  23.596  0.00  0.00    -0.056 NA
ATOM     11  O   UNL     1      -3.633   1.295  23.693  0.00  0.00    -0.336 OA
ATOM     12  C   UNL     1      -3.933   1.418  24.451  0.00  0.00    +0.251 A 
ATOM     13  N   UNL     1      -3.991   0.684  24.825  0.00  0.00    -0.190 NA
BRANCH   9   6
ATOM      3  C   UNL     1      -3.617  -2.325  24.735  0.00  0.00    +0.139 A 
ATOM      4  C   UNL     1      -3.221  -1.798  25.231  0.00  0.00    +0.037 A 
ATOM      5  C   UNL     1      -3.258  -0.987  25.085  0.00  0.00    +0.006 A 
ATOM      6  C   UNL     1      -3.691  -0.703  24.441  0.00  0.00    +0.039 A 
ATOM      7  C   UNL     1      -4.086  -1.230  23.946  0.00  0.00    +0.006 A 
ATOM      8  C   UNL     1      -4.050  -2.042  24.092  0.00  0.00    +0.037 A 
BRANCH   3   2
ATOM      1  C   UNL     1      -3.212  -3.637  24.340  0.00  0.00    +0.252 C 
ATOM      2  O   UNL     1      -3.581  -3.136  24.882  0.00  0.00    -0.471 OA
ENDBRANCH   3   2
ENDBRANCH   9   6
ENDBRANCH  14  12
BRANCH  19  20
ATOM     20  C   UNL     1      -2.756   2.499  24.864  0.00  0.00    +0.138 C 
BRANCH  20  21
ATOM     21  C   UNL     1      -2.167   3.034  25.081  0.00  0.00    +0.139 A 
ATOM     22  C   UNL     1      -1.735   3.021  25.783  0.00  0.00    +0.037 A 
ATOM     23  C   UNL     1      -1.208   3.655  25.769  0.00  0.00    +0.038 A 
ATOM     24  C   UNL     1      -1.314   4.060  25.058  0.00  0.00    +0.156 A 
ATOM     27  O   UNL     1      -1.907   3.677  24.632  0.00  0.00    -0.458 OA
BRANCH  24  25
ATOM     25  C   UNL     1      -0.900   4.732  24.816  0.00  0.00    +0.246 C 
ATOM     26  O   UNL     1      -1.127   5.478  25.087  0.00  0.00    -0.212 OA
ENDBRANCH  24  25
ENDBRANCH  20  21
ENDBRANCH  19  20
TORSDOF 6
ENDMDL
MODEL 2
REMARK VINA RESULT:     -10.3      2.093      4.865
REMARK  Name = 
REMARK  6 active torsions:
REMARK  status: ('A' for Active; 'I' for Inactive)
REMARK    1  A    between atoms: O_2  and  C_3
REMARK    2  A    between atoms: C_6  and  C_9
REMARK    3  A    between atoms: C_12  and  C_14
REMARK    4  A    between atoms: N_19  and  C_20
REMARK    5  A    between atoms: C_20  and  C_21
REMARK    6  A    between atoms: C_24  and  C_25
REMARK                            x       y       z     vdW  Elec       q    Type
REMARK                         _______ _______ _______ _____ _____    ______ ____
ROOT
ATOM     14  C   UNL     1      -3.615  -0.463  24.247  0.00  0.00    +0.144 C 
ATOM     15  C   UNL     1      -4.173  -1.022  24.013  0.00  0.00    +0.073 C 
ATOM     16  C   UNL     1      -4.003  -1.827  24.075  0.00  0.00    +0.077 A 
ATOM     17  C   UNL     1      -3.273  -2.072  24.371  0.00  0.00    +0.090 A 
ATOM     18  C   UNL     1      -2.713  -1.512  24.606  0.00  0.00    +0.121 C 
ATOM     19  N   UNL     1      -2.885  -0.708  24.543  0.00  0.00    -0.254 NA
ATOM     28  N   UNL     1      -3.261  -2.897  24.369  0.00  0.00    -0.226 NA
ATOM     29  C   UNL     1      -3.983  -3.162  24.071  0.00  0.00    +0.198 A 
ATOM     30  N   UNL     1      -4.441  -2.501  23.890  0.00  0.00    -0.227 NA
ENDROOT
BRANCH  14  12
ATOM      9  C   UNL     1      -4.248   1.566  24.449  0.00  0.00    +0.203 A 
ATOM     10  N   UNL     1      -3.848   1.595  23.728  0.00  0.00    -0.056 NA
ATOM     11  O   UNL     1      -3.562   0.838  23.565  0.00  0.00    -0.336 OA
ATOM     12  C   UNL     1      -3.785   0.341  24.185  0.00  0.00    +0.251 A 
ATOM     13  N   UNL     1      -4.209   0.791  24.732  0.00  0.00    -0.190 NA
BRANCH   9   6
ATOM      3  C   UNL     1      -5.366   3.468  25.570  0.00  0.00    +0.139 A 
ATOM      4  C   UNL     1      -4.603   3.557  25.269  0.00  0.00    +0.037 A 
ATOM      5  C   UNL     1      -4.231   2.923  24.895  0.00  0.00    +0.006 A 
ATOM      6  C   UNL     1      -4.621   2.200  24.823  0.00  0.00    +0.039 A 
ATOM      7  C   UNL     1      -5.383   2.111  25.123  0.00  0.00    +0.006 A 
ATOM      8  C   UNL     1      -5.757   2.745  25.498  0.00  0.00    +0.037 A 
BRANCH   3   2
ATOM      1  C   UNL     1      -5.944   4.774  25.510  0.00  0.00    +0.252 C 
ATOM      2  O   UNL     1      -5.739   4.102  25.943  0.00  0.00    -0.471 OA
ENDBRANCH   3   2
ENDBRANCH   9   6
ENDBRANCH  14  12
BRANCH  19  20
ATOM     20  C   UNL     1      -2.325  -0.149  24.777  0.00  0.00    +0.138 C 
BRANCH  20  21
ATOM     21  C   UNL     1      -1.521  -0.325  24.731  0.00  0.00    +0.139 A 
ATOM     22  C   UNL     1      -1.048  -0.597  25.349  0.00  0.00    +0.037 A 
ATOM     23  C   UNL     1      -0.283  -0.701  25.059  0.00  0.00    +0.038 A 
ATOM     24  C   UNL     1      -0.283  -0.493  24.261  0.00  0.00    +0.156 A 
ATOM     27  O   UNL     1      -1.048  -0.261  24.058  0.00  0.00    -0.458 OA
BRANCH  24  25
ATOM     25  C   UNL     1       0.368  -0.513  23.754  0.00  0.00    +0.246 C 
ATOM     26  O   UNL     1       0.511   0.116  23.239  0.00  0.00    -0.212 OA
ENDBRANCH  24  25
ENDBRANCH  20  21
ENDBRANCH  19  20
TORSDOF 6
ENDMDL
MODEL 3
REMARK VINA RESULT:     -10.1      1.876      5.414
REMARK  Name = 
REMARK  6 active torsions:
REMARK  status: ('A' for Active; 'I' for Inactive)
REMARK    1  A    between atoms: O_2  and  C_3
REMARK    2  A    between atoms: C_6  and  C_9
REMARK    3  A    between atoms: C_12  and  C_14
REMARK    4  A    between atoms: N_19  and  C_20
REMARK    5  A    between atoms: C_20  and  C_21
REMARK    6  A    between atoms: C_24  and  C_25
REMARK                            x       y       z     vdW  Elec       q    Type
REMARK                         _______ _______ _______ _____ _____    ______ ____
ROOT
ATOM     14  C   UNL     1      -2.110   0.741  24.138  0.00  0.00    +0.144 C 
ATOM     15  C   UNL     1      -1.372   0.960  23.844  0.00  0.00    +0.073 C 
ATOM     16  C   UNL     1      -0.726   0.453  23.929  0.00  0.00    +0.077 A 
ATOM     17  C   UNL     1      -0.820  -0.274  24.308  0.00  0.00    +0.090 A 
ATOM     18  C   UNL     1      -1.560  -0.493  24.603  0.00  0.00    +0.121 C 
ATOM     19  N   UNL     1      -2.204   0.014  24.517  0.00  0.00    -0.254 NA
ATOM     28  N   UNL     1      -0.090  -0.656  24.311  0.00  0.00    -0.226 NA
ATOM     29  C   UNL     1       0.456  -0.166  23.934  0.00  0.00    +0.198 A 
ATOM     30  N   UNL     1       0.062   0.519  23.698  0.00  0.00    -0.227 NA
ENDROOT
BRANCH  14  12
ATOM      9  C   UNL     1      -3.729   2.120  24.322  0.00  0.00    +0.203 A 
ATOM     10  N   UNL     1      -3.768   1.935  23.520  0.00  0.00    -0.056 NA
ATOM     11  O   UNL     1      -3.166   1.396  23.353  0.00  0.00    -0.336 OA
ATOM     12  C   UNL     1      -2.755   1.247  24.052  0.00  0.00    +0.251 A 
ATOM     13  N   UNL     1      -3.103   1.695  24.652  0.00  0.00    -0.190 NA
BRANCH   9   6
ATOM      3  C   UNL     1      -5.226   3.676  25.533  0.00  0.00    +0.139 A 
ATOM      4  C   UNL     1      -5.487   2.916  25.343  0.00  0.00    +0.037 A 
ATOM      5  C   UNL     1      -4.988   2.398  24.940  0.00  0.00    +0.006 A 
ATOM      6  C   UNL     1      -4.228   2.639  24.726  0.00  0.00    +0.039 A 
ATOM      7  C   UNL     1      -3.968   3.398  24.915  0.00  0.00    +0.006 A 
ATOM      8  C   UNL     1      -4.467   3.917  25.319  0.00  0.00    +0.037 A 
BRANCH   3   2
ATOM      1  C   UNL     1      -6.071   4.828  25.537  0.00  0.00    +0.252 C 
ATOM      2  O   UNL     1      -5.725   4.194  25.936  0.00  0.00    -0.471 OA
ENDBRANCH   3   2
ENDBRANCH   9   6
ENDBRANCH  14  12
BRANCH  19  20
ATOM     20  C   UNL     1      -2.943  -0.206  24.811  0.00  0.00    +0.138 C 
BRANCH  20  21
ATOM     21  C   UNL     1      -3.136  -1.004  24.888  0.00  0.00    +0.139 A 
ATOM     22  C   UNL     1      -3.160  -1.432  25.592  0.00  0.00    +0.037 A 
ATOM     23  C   UNL     1      -3.378  -2.207  25.413  0.00  0.00    +0.038 A 
ATOM     24  C   UNL     1      -3.488  -2.258  24.597  0.00  0.00    +0.156 A 
ATOM     27  O   UNL     1      -3.339  -1.515  24.272  0.00  0.00    -0.458 OA
BRANCH  24  25
ATOM     25  C   UNL     1      -3.710  -2.935  24.179  0.00  0.00    +0.246 C 
ATOM     26  O   UNL     1      -4.402  -2.934  23.730  0.00  0.00    -0.212 OA
ENDBRANCH  24  25
ENDBRANCH  20  21
ENDBRANCH  19  20
TORSDOF 6
ENDMDL
MODEL 4
REMARK VINA RESULT:      -9.7      1.417      2.856
REMARK  Name = 
REMARK  6 active torsions:
REMARK  status: ('A' for Active; 'I' for Inactive)
REMARK    1  A    between atoms: O_2  and  C_3
REMARK    2  A    between atoms: C_6  and  C_9
REMARK    3  A    between atoms: C_12  and  C_14
REMARK    4  A    between atoms: N_19  and  C_20
REMARK    5  A    between atoms: C_20  and  C_21
REMARK    6  A    between atoms: C_24  and  C_25
REMARK                            x       y       z     vdW  Elec       q    Type
REMARK                         _______ _______ _______ _____ _____    ______ ____
ROOT
ATOM     14  C   UNL     1      -2.482   2.414  24.402  0.00  0.00    +0.144 C 
ATOM     15  C   UNL     1      -1.703   2.623  24.574  0.00  0.00    +0.073 C 
ATOM     16  C   UNL     1      -1.530   3.382  24.847  0.00  0.00    +0.077 A 
ATOM     17  C   UNL     1      -2.137   3.932  24.948  0.00  0.00    +0.090 A 
ATOM     18  C   UNL     1      -2.917   3.723  24.775  0.00  0.00    +0.121 C 
ATOM     19  N   UNL     1      -3.088   2.964  24.503  0.00  0.00    -0.254 NA
ATOM     28  N   UNL     1      -1.802   4.634  25.223  0.00  0.00    -0.226 NA
ATOM     29  C   UNL     1      -0.989   4.518  25.293  0.00  0.00    +0.198 A 
ATOM     30  N   UNL     1      -0.821   3.744  25.061  0.00  0.00    -0.227 NA
ENDROOT
BRANCH  14  12
ATOM      9  C   UNL     1      -2.926   0.348  24.097  0.00  0.00    +0.203 A 
ATOM     10  N   UNL     1      -2.914   0.625  23.321  0.00  0.00    -0.056 NA
ATOM     11  O   UNL     1      -2.746   1.432  23.341  0.00  0.00    -0.336 OA
ATOM     12  C   UNL     1      -2.654   1.655  24.129  0.00  0.00    +0.251 A 
ATOM     13  N   UNL     1      -2.765   0.985  24.598  0.00  0.00    -0.190 NA
BRANCH   9   6
ATOM      3  C   UNL     1      -3.368  -1.982  24.806  0.00  0.00    +0.139 A 
ATOM      4  C   UNL     1      -3.951  -1.554  24.409  0.00  0.00    +0.037 A 
ATOM      5  C   UNL     1      -3.803  -0.778  24.173  0.00  0.00    +0.006 A 
ATOM      6  C   UNL     1      -3.072  -0.429  24.334  0.00  0.00    +0.039 A 
ATOM      7  C   UNL     1      -2.490  -0.856  24.730  0.00  0.00    +0.006 A 
ATOM      8  C   UNL     1      -2.637  -1.634  24.967  0.00  0.00    +0.037 A 
BRANCH   3   2
ATOM      1  C   UNL     1      -3.513  -3.367  24.484  0.00  0.00    +0.252 C 
ATOM      2  O   UNL     1      -3.515  -2.758  25.042  0.00  0.00    -0.471 OA
ENDBRANCH   3   2
ENDBRANCH   9   6
ENDBRANCH  14  12
BRANCH  19  20
ATOM     20  C   UNL     1      -3.868   2.755  24.330  0.00  0.00    +0.138 C 
BRANCH  20  21
ATOM     21  C   UNL     1      -4.479   2.995  24.829  0.00  0.00    +0.139 A 
ATOM     22  C   UNL     1      -4.855   3.728  24.818  0.00  0.00    +0.037 A 
ATOM     23  C   UNL     1      -5.430   3.730  25.408  0.00  0.00    +0.038 A 
ATOM     24  C   UNL     1      -5.410   2.996  25.786  0.00  0.00    +0.156 A 
ATOM     27  O   UNL     1      -4.823   2.542  25.428  0.00  0.00    -0.458 OA
BRANCH  24  25
ATOM     25  C   UNL     1      -5.894   2.759  26.411  0.00  0.00    +0.246 C 
ATOM     26  O   UNL     1      -6.223   2.002  26.414  0.00  0.00    -0.212 OA
ENDBRANCH  24  25
ENDBRANCH  20  21
ENDBRANCH  19  20
TORSDOF 6
ENDMDL
MODEL 5
REMARK VINA RESULT:      -9.7      1.991      4.432
REMARK  Name = 
REMARK  6 active torsions:
REMARK  status: ('A' for Active; 'I' for Inactive)
REMARK    1  A    between atoms: O_2  and  C_3
REMARK    2  A    between atoms: C_6  and  C_9
REMARK    3  A    between atoms: C_12  and  C_14
REMARK    4  A    between atoms: N_19  and  C_20
REMARK    5  A    between atoms: C_20  and  C_21
REMARK    6  A    between atoms: C_24  and  C_25
REMARK                            x       y       z     vdW  Elec       q    Type
REMARK                         _______ _______ _______ _____ _____    ______ ____
ROOT
ATOM     14  C   UNL     1      -2.391   0.087  24.434  0.00  0.00    +0.144 C 
ATOM     15  C   UNL     1      -2.573  -0.705  24.572  0.00  0.00    +0.073 C 
ATOM     16  C   UNL     1      -1.972  -1.245  24.738  0.00  0.00    +0.077 A 
ATOM     17  C   UNL     1      -1.187  -0.992  24.767  0.00  0.00    +0.090 A 
ATOM     18  C   UNL     1      -1.004  -0.199  24.629  0.00  0.00    +0.121 C 
ATOM     19  N   UNL     1      -1.606   0.340  24.463  0.00  0.00    -0.254 NA
ATOM     28  N   UNL     1      -0.715  -1.644  24.942  0.00  0.00    -0.226 NA
ATOM     29  C   UNL     1      -1.207  -2.301  25.022  0.00  0.00    +0.198 A 
ATOM     30  N   UNL     1      -1.983  -2.054  24.896  0.00  0.00    -0.227 NA
ENDROOT
BRANCH  14  12
ATOM      9  C   UNL     1      -3.964   1.529  24.415  0.00  0.00    +0.203 A 
ATOM     10  N   UNL     1      -3.873   1.383  23.609  0.00  0.00    -0.056 NA
ATOM     11  O   UNL     1      -3.272   0.824  23.519  0.00  0.00    -0.336 OA
ATOM     12  C   UNL     1      -2.992   0.626  24.268  0.00  0.00    +0.251 A 
ATOM     13  N   UNL     1      -3.420   1.062  24.824  0.00  0.00    -0.190 NA
BRANCH   9   6
ATOM      3  C   UNL     1      -5.587   3.096  25.436  0.00  0.00    +0.139 A 
ATOM      4  C   UNL     1      -5.772   2.294  25.369  0.00  0.00    +0.037 A 
ATOM      5  C   UNL     1      -5.232   1.773  25.029  0.00  0.00    +0.006 A 
ATOM      6  C   UNL     1      -4.505   2.052  24.756  0.00  0.00    +0.039 A 
ATOM      7  C   UNL     1      -4.319   2.852  24.823  0.00  0.00    +0.006 A 
ATOM      8  C   UNL     1      -4.860   3.375  25.163  0.00  0.00    +0.037 A 
BRANCH   3   2
ATOM      1  C   UNL     1      -6.022   4.432  25.696  0.00  0.00    +0.252 C 
ATOM      2  O   UNL     1      -6.127   3.617  25.777  0.00  0.00    -0.471 OA
ENDBRANCH   3   2
ENDBRANCH   9   6
ENDBRANCH  14  12
BRANCH  19  20
ATOM     20  C   UNL     1      -1.423   1.132  24.325  0.00  0.00    +0.138 C 
BRANCH  20  21
ATOM     21  C   UNL     1      -0.809   1.493  24.742  0.00  0.00    +0.139 A 
ATOM     22  C   UNL     1      -0.066   1.686  24.442  0.00  0.00    +0.037 A 
ATOM     23  C   UNL     1       0.371   2.036  25.047  0.00  0.00    +0.038 A 
ATOM     24  C   UNL     1      -0.102   2.059  25.723  0.00  0.00    +0.156 A 
ATOM     27  O   UNL     1      -0.832   1.724  25.535  0.00  0.00    -0.458 OA
BRANCH  24  25
ATOM     25  C   UNL     1       0.116   2.364  26.458  0.00  0.00    +0.246 C 
ATOM     26  O   UNL     1       0.850   2.731  26.550  0.00  0.00    -0.212 OA
ENDBRANCH  24  25
ENDBRANCH  20  21
ENDBRANCH  19  20
TORSDOF 6
ENDMDL
MODEL 6
REMARK VINA RESULT:      -9.5      2.829      4.698
REMARK  Name = 
REMARK  6 active torsions:
REMARK  status: ('A' for Active; 'I' for Inactive)
REMARK    1  A    between atoms: O_2  and  C_3
REMARK    2  A    between atoms: C_6  and  C_9
REMARK    3  A    between atoms: C_12  and  C_14
REMARK    4  A    between atoms: N_19  and  C_20
REMARK    5  A    between atoms: C_20  and  C_21
REMARK    6  A    between atoms: C_24  and  C_25
REMARK                            x       y       z     vdW  Elec       q    Type
REMARK                         _______ _______ _______ _____ _____    ______ ____
ROOT
ATOM     14  C   UNL     1      -2.440   1.184  24.716  0.00  0.00    +0.144 C 
ATOM     15  C   UNL     1      -2.794   1.887  24.471  0.00  0.00    +0.073 C 
ATOM     16  C   UNL     1      -3.616   1.960  24.476  0.00  0.00    +0.077 A 
ATOM     17  C   UNL     1      -4.084   1.328  24.726  0.00  0.00    +0.090 A 
ATOM     18  C   UNL     1      -3.730   0.624  24.972  0.00  0.00    +0.121 C 
ATOM     19  N   UNL     1      -2.908   0.552  24.967  0.00  0.00    -0.254 NA
ATOM     28  N   UNL     1      -4.873   1.559  24.672  0.00  0.00    -0.226 NA
ATOM     29  C   UNL     1      -4.894   2.333  24.388  0.00  0.00    +0.198 A 
ATOM     30  N   UNL     1      -4.116   2.580  24.267  0.00  0.00    -0.227 NA
ENDROOT
BRANCH  14  12
ATOM      9  C   UNL     1      -0.367   0.877  24.310  0.00  0.00    +0.203 A 
ATOM     10  N   UNL     1      -0.340   1.124  25.096  0.00  0.00    -0.056 NA
ATOM     11  O   UNL     1      -1.114   1.269  25.343  0.00  0.00    -0.336 OA
ATOM     12  C   UNL     1      -1.619   1.112  24.711  0.00  0.00    +0.251 A 
ATOM     13  N   UNL     1      -1.157   0.869  24.071  0.00  0.00    -0.190 NA
BRANCH   9   6
ATOM      3  C   UNL     1       1.579   0.262  22.909  0.00  0.00    +0.139 A 
ATOM      4  C   UNL     1       0.937  -0.252  22.972  0.00  0.00    +0.037 A 
ATOM      5  C   UNL     1       0.289  -0.048  23.438  0.00  0.00    +0.006 A 
ATOM      6  C   UNL     1       0.282   0.672  23.843  0.00  0.00    +0.039 A 
ATOM      7  C   UNL     1       0.924   1.186  23.780  0.00  0.00    +0.006 A 
ATOM      8  C   UNL     1       1.573   0.982  23.313  0.00  0.00    +0.037 A 
BRANCH   3   2
ATOM      1  C   UNL     1       2.962   0.409  22.578  0.00  0.00    +0.252 C 
ATOM      2  O   UNL     1       2.227   0.057  22.442  0.00  0.00    -0.471 OA
ENDBRANCH   3   2
ENDBRANCH   9   6
ENDBRANCH  14  12
BRANCH  19  20
ATOM     20  C   UNL     1      -2.555  -0.151  25.212  0.00  0.00    +0.138 C 
BRANCH  20  21
ATOM     21  C   UNL     1      -2.966  -0.864  25.150  0.00  0.00    +0.139 A 
ATOM     22  C   UNL     1      -3.342  -1.262  25.767  0.00  0.00    +0.037 A 
ATOM     23  C   UNL     1      -3.682  -1.947  25.458  0.00  0.00    +0.038 A 
ATOM     24  C   UNL     1      -3.516  -1.972  24.650  0.00  0.00    +0.156 A 
ATOM     27  O   UNL     1      -3.074  -1.303  24.460  0.00  0.00    -0.458 OA
BRANCH  24  25
ATOM     25  C   UNL     1      -3.752  -2.564  24.125  0.00  0.00    +0.246 C 
ATOM     26  O   UNL     1      -4.471  -2.497  23.724  0.00  0.00    -0.212 OA
ENDBRANCH  24  25
ENDBRANCH  20  21
ENDBRANCH  19  20
TORSDOF 6
ENDMDL
MODEL 7
REMARK VINA RESULT:      -9.3      1.414      4.557
REMARK  Name = 
REMARK  6 active torsions:
REMARK  status: ('A' for Active; 'I' for Inactive)
REMARK    1  A    between atoms: O_2  and  C_3
REMARK    2  A    between atoms: C_6  and  C_9
REMARK    3  A    between atoms: C_12  and  C_14
REMARK    4  A    between atoms: N_19  and  C_20
REMARK    5  A    between atoms: C_20  and  C_21
REMARK    6  A    between atoms: C_24  and  C_25
REMARK                            x       y       z     vdW  Elec       q    Type
REMARK                         _______ _______ _______ _____ _____    ______ ____
ROOT
ATOM     14  C   UNL     1      -3.947   1.911  24.704  0.00  0.00    +0.144 C 
ATOM     15  C   UNL     1      -4.500   2.446  24.999  0.00  0.00    +0.073 C 
ATOM     16  C   UNL     1      -5.292   2.226  25.069  0.00  0.00    +0.077 A 
ATOM     17  C   UNL     1      -5.531   1.469  24.843  0.00  0.00    +0.090 A 
ATOM     18  C   UNL     1      -4.978   0.933  24.547  0.00  0.00    +0.121 C 
ATOM     19  N   UNL     1      -4.186   1.154  24.478  0.00  0.00    -0.254 NA
ATOM     28  N   UNL     1      -6.343   1.408  24.974  0.00  0.00    -0.226 NA
ATOM     29  C   UNL     1      -6.606   2.127  25.281  0.00  0.00    +0.198 A 
ATOM     30  N   UNL     1      -5.957   2.632  25.339  0.00  0.00    -0.227 NA
ENDROOT
BRANCH  14  12
ATOM      9  C   UNL     1      -1.878   2.386  24.925  0.00  0.00    +0.203 A 
ATOM     10  N   UNL     1      -1.996   2.555  24.127  0.00  0.00    -0.056 NA
ATOM     11  O   UNL     1      -2.785   2.397  23.947  0.00  0.00    -0.336 OA
ATOM     12  C   UNL     1      -3.156   2.131  24.634  0.00  0.00    +0.251 A 
ATOM     13  N   UNL     1      -2.595   2.124  25.240  0.00  0.00    -0.190 NA
BRANCH   9   6
ATOM      3  C   UNL     1       0.251   2.622  26.166  0.00  0.00    +0.139 A 
ATOM      4  C   UNL     1       0.114   1.952  25.703  0.00  0.00    +0.037 A 
ATOM      5  C   UNL     1      -0.595   1.874  25.290  0.00  0.00    +0.006 A 
ATOM      6  C   UNL     1      -1.168   2.466  25.339  0.00  0.00    +0.039 A 
ATOM      7  C   UNL     1      -1.032   3.135  25.801  0.00  0.00    +0.006 A 
ATOM      8  C   UNL     1      -0.323   3.214  26.214  0.00  0.00    +0.037 A 
BRANCH   3   2
ATOM      1  C   UNL     1       0.968   2.635  27.401  0.00  0.00    +0.252 C 
ATOM      2  O   UNL     1       0.960   2.701  26.579  0.00  0.00    -0.471 OA
ENDBRANCH   3   2
ENDBRANCH   9   6
ENDBRANCH  14  12
BRANCH  19  20
ATOM     20  C   UNL     1      -3.634   0.618  24.182  0.00  0.00    +0.138 C 
BRANCH  20  21
ATOM     21  C   UNL     1      -3.743  -0.192  24.295  0.00  0.00    +0.139 A 
ATOM     22  C   UNL     1      -4.111  -0.710  23.768  0.00  0.00    +0.037 A 
ATOM     23  C   UNL     1      -4.099  -1.464  24.101  0.00  0.00    +0.038 A 
ATOM     24  C   UNL     1      -3.724  -1.413  24.834  0.00  0.00    +0.156 A 
ATOM     27  O   UNL     1      -3.504  -0.627  24.954  0.00  0.00    -0.458 OA
BRANCH  24  25
ATOM     25  C   UNL     1      -3.591  -2.039  25.356  0.00  0.00    +0.246 C 
ATOM     26  O   UNL     1      -3.535  -2.810  25.069  0.00  0.00    -0.212 OA
ENDBRANCH  24  25
ENDBRANCH  20  21
ENDBRANCH  19  20
TORSDOF 6
ENDMDL
