MODEL 1
REMARK VINA RESULT:      -9.6      0.000      0.000
REMARK  Name = 
REMARK  7 active torsions:
REMARK  status: ('A' for Active; 'I' for Inactive)
REMARK    1  A    between atoms: C_2  and  C_4
REMARK    2  A    between atoms: C_4  and  S_5
REMARK    3  A    between atoms: S_5  and  C_6
REMARK    4  A    between atoms: C_6  and  C_7
REMARK    5  A    between atoms: N_9  and  C_10
REMARK    6  A    between atoms: C_14  and  N_18
REMARK    7  A    between atoms: C_21  and  C_25
REMARK                            x       y       z     vdW  Elec       q    Type
REMARK                         _______ _______ _______ _____ _____    ______ ____
ROOT
ATOM     10  C   UNL     1       0.913   0.846  23.555  0.00  0.00    +0.154 C 
ATOM     11  C   UNL     1       0.471   0.162  23.422  0.00  0.00    +0.166 C 
ATOM     12  O   UNL     1      -0.268   0.263  23.775  0.00  0.00    -0.350 OA
ATOM     13  C   UNL     1      -0.283   1.010  24.126  0.00  0.00    +0.166 C 
ATOM     14  C   UNL     1      -0.749   1.534  24.561  0.00  0.00    +0.154 C 
ATOM     15  C   UNL     1      -0.306   2.218  24.693  0.00  0.00    +0.166 C 
ATOM     16  O   UNL     1       0.432   2.116  24.340  0.00  0.00    -0.350 OA
ATOM     17  C   UNL     1       0.447   1.370  23.990  0.00  0.00    +0.166 C 
ENDROOT
BRANCH  14  18
ATOM     18  N   UNL     1      -1.520   1.398  24.818  0.00  0.00    -0.200 NA
ATOM     19  C   UNL     1      -2.123   1.919  24.608  0.00  0.00    +0.237 A 
ATOM     20  N   UNL     1      -2.895   1.784  24.865  0.00  0.00    -0.212 NA
ATOM     21  C   UNL     1      -3.498   2.306  24.655  0.00  0.00    +0.086 A 
ATOM     22  C   UNL     1      -3.329   2.964  24.188  0.00  0.00    +0.040 A 
ATOM     23  C   UNL     1      -2.558   3.101  23.930  0.00  0.00    +0.103 A 
ATOM     24  N   UNL     1      -1.954   2.578  24.141  0.00  0.00    -0.211 NA
BRANCH  21  25
ATOM     25  C   UNL     1      -4.270   2.170  24.913  0.00  0.00    +0.020 A 
ATOM     26  C   UNL     1      -4.681   1.504  24.650  0.00  0.00    +0.002 A 
ATOM     27  C   UNL     1      -5.453   1.368  24.907  0.00  0.00    +0.002 A 
ATOM     28  C   UNL     1      -5.815   1.898  25.426  0.00  0.00    +0.030 A 
ATOM     29  C   UNL     1      -5.404   2.563  25.689  0.00  0.00    +0.140 A 
ATOM     30  F   UNL     1      -5.765   3.092  26.207  0.00  0.00    -0.204 F 
ATOM     31  C   UNL     1      -4.632   2.699  25.431  0.00  0.00    +0.031 A 
ENDBRANCH  21  25
ENDBRANCH  14  18
BRANCH  10   9
ATOM      7  C   UNL     1       2.087   0.399  22.874  0.00  0.00    +0.252 C 
ATOM      8  O   UNL     1       1.718  -0.320  22.708  0.00  0.00    -0.272 OA
ATOM      9  N   UNL     1       1.684   0.982  23.298  0.00  0.00    -0.201 NA
BRANCH   7   6
ATOM      6  C   UNL     1       2.859   0.536  22.617  0.00  0.00    +0.145 C 
BRANCH   6   5
ATOM      5  S   UNL     1       3.496   0.236  23.049  0.00  0.00    -0.119 S 
BRANCH   5   4
ATOM      4  C   UNL     1       4.266   0.465  22.859  0.00  0.00    +0.172 C 
BRANCH   4   2
ATOM      1  O   UNL     1       5.239   0.898  23.812  0.00  0.00    -0.245 OA
ATOM      2  C   UNL     1       4.886   0.293  23.376  0.00  0.00    +0.376 C 
ATOM      3  O   UNL     1       5.153  -0.484  23.456  0.00  0.00    -0.245 OA
ENDBRANCH   4   2
ENDBRANCH   5   4
ENDBRANCH   6   5
ENDBRANCH   7   6
ENDBRANCH  10   9
TORSDOF 7
ENDMDL
MODEL 2
REMARK VINA RESULT:      -8.9      1.891      2.302
REMARK  Name = 
REMARK  7 active torsions:
REMARK  status: ('A' for Active; 'I' for Inactive)
REMARK    1  A    between atoms: C_2  and  C_4
REMARK    2  A    between atoms: C_4  and  S_5
REMARK    3  A    between atoms: S_5  and  C_6
REMARK    4  A    between atoms: C_6  and  C_7
REMARK    5  A    between atoms: N_9  and  C_10
REMARK    6  A    between atoms: C_14  and  N_18
REMARK    7  A    between atoms: C_21  and  C_25
REMARK                            x       y       z     vdW  Elec       q    Type
REMARK                         _______ _______ _______ _____ _____    ______ ____
ROOT
ATOM     10  C   UNL     1       1.861   0.687  23.193  0.00  0.00    +0.154 C 
ATOM     11  C   UNL     1       1.561   0.131  22.662  0.00  0.00    +0.166 C 
ATOM     12  O   UNL     1       0.740   0.112  22.749  0.00  0.00    -0.350 OA
ATOM     13  C   UNL     1       0.534   0.657  23.334  0.00  0.00    +0.166 C 
ATOM     14  C   UNL     1      -0.101   0.982  23.749  0.00  0.00    +0.154 C 
ATOM     15  C   UNL     1       0.200   1.538  24.280  0.00  0.00    +0.166 C 
ATOM     16  O   UNL     1       1.020   1.556  24.192  0.00  0.00    -0.350 OA
ATOM     17  C   UNL     1       1.226   1.012  23.608  0.00  0.00    +0.166 C 
ENDROOT
BRANCH  14  18
ATOM     18  N   UNL     1      -0.896   0.786  23.652  0.00  0.00    -0.200 NA
ATOM     19  C   UNL     1      -1.306   0.411  24.260  0.00  0.00    +0.237 A 
ATOM     20  N   UNL     1      -2.102   0.214  24.163  0.00  0.00    -0.212 NA
ATOM     21  C   UNL     1      -2.512  -0.161  24.771  0.00  0.00    +0.086 A 
ATOM     22  C   UNL     1      -2.127  -0.341  25.478  0.00  0.00    +0.040 A 
ATOM     23  C   UNL     1      -1.332  -0.145  25.577  0.00  0.00    +0.103 A 
ATOM     24  N   UNL     1      -0.921   0.231  24.967  0.00  0.00    -0.211 NA
BRANCH  21  25
ATOM     25  C   UNL     1      -3.307  -0.358  24.674  0.00  0.00    +0.020 A 
ATOM     26  C   UNL     1      -3.894   0.163  24.929  0.00  0.00    +0.002 A 
ATOM     27  C   UNL     1      -4.690  -0.032  24.832  0.00  0.00    +0.002 A 
ATOM     28  C   UNL     1      -4.899  -0.749  24.480  0.00  0.00    +0.030 A 
ATOM     29  C   UNL     1      -4.312  -1.270  24.224  0.00  0.00    +0.140 A 
ATOM     30  F   UNL     1      -4.520  -1.985  23.872  0.00  0.00    -0.204 F 
ATOM     31  C   UNL     1      -3.516  -1.073  24.322  0.00  0.00    +0.031 A 
ENDBRANCH  21  25
ENDBRANCH  14  18
BRANCH  10   9
ATOM      7  C   UNL     1       3.211   0.648  22.727  0.00  0.00    +0.252 C 
ATOM      8  O   UNL     1       2.971   0.217  22.066  0.00  0.00    -0.272 OA
ATOM      9  N   UNL     1       2.656   0.883  23.291  0.00  0.00    -0.201 NA
BRANCH   7   6
ATOM      6  C   UNL     1       4.006   0.845  22.826  0.00  0.00    +0.145 C 
BRANCH   6   5
ATOM      5  S   UNL     1       4.549   0.265  23.052  0.00  0.00    -0.119 S 
BRANCH   5   4
ATOM      4  C   UNL     1       5.232   0.478  23.463  0.00  0.00    +0.172 C 
BRANCH   4   2
ATOM      1  O   UNL     1       5.623  -0.494  24.435  0.00  0.00    -0.245 OA
ATOM      2  C   UNL     1       5.757  -0.104  23.720  0.00  0.00    +0.376 C 
ATOM      3  O   UNL     1       6.416  -0.297  23.261  0.00  0.00    -0.245 OA
ENDBRANCH   4   2
ENDBRANCH   5   4
ENDBRANCH   6   5
ENDBRANCH   7   6
ENDBRANCH  10   9
TORSDOF 7
ENDMDL
MODEL 3
REMARK VINA RESULT:      -8.2      3.208      7.234
REMARK  Name = 
REMARK  7 active torsions:
REMARK  status: ('A' for Active; 'I' for Inactive)
REMARK    1  A    between atoms: C_2  and  C_4
REMARK    2  A    between atoms: C_4  and  S_5
REMARK    3  A    between atoms: S_5  and  C_6
REMARK    4  A    between atoms: C_6  and  C_7
REMARK    5  A    between atoms: N_9  and  C_10
REMARK    6  A    between atoms: C_14  and  N_18
REMARK    7  A    between atoms: C_21  and  C_25
REMARK                            x       y       z     vdW  Elec       q    Type
REMARK                         _______ _______ _______ _____ _____    ______ ____
ROOT
ATOM     10  C   UNL     1      -1.834   2.111  23.959  0.00  0.00    +0.154 C 
ATOM     11  C   UNL     1      -1.372   2.789  24.049  0.00  0.00    +0.166 C 
ATOM     12  O   UNL     1      -0.581   2.557  24.070  0.00  0.00    -0.350 OA
ATOM     13  C   UNL     1      -0.553   1.735  23.993  0.00  0.00    +0.166 C 
ATOM     14  C   UNL     1      -0.047   1.085  23.959  0.00  0.00    +0.154 C 
ATOM     15  C   UNL     1      -0.510   0.407  23.870  0.00  0.00    +0.166 C 
ATOM     16  O   UNL     1      -1.301   0.640  23.849  0.00  0.00    -0.350 OA
ATOM     17  C   UNL     1      -1.328   1.460  23.925  0.00  0.00    +0.166 C 
ENDROOT
BRANCH  14  18
ATOM     18  N   UNL     1       0.776   1.107  24.006  0.00  0.00    -0.200 NA
ATOM     19  C   UNL     1       1.231   0.690  23.460  0.00  0.00    +0.237 A 
ATOM     20  N   UNL     1       2.055   0.712  23.507  0.00  0.00    -0.212 NA
ATOM     21  C   UNL     1       2.511   0.294  22.962  0.00  0.00    +0.086 A 
ATOM     22  C   UNL     1       2.143  -0.147  22.369  0.00  0.00    +0.040 A 
ATOM     23  C   UNL     1       1.320  -0.170  22.321  0.00  0.00    +0.103 A 
ATOM     24  N   UNL     1       0.864   0.249  22.868  0.00  0.00    -0.211 NA
BRANCH  21  25
ATOM     25  C   UNL     1       3.334   0.316  23.008  0.00  0.00    +0.020 A 
ATOM     26  C   UNL     1       3.748   0.951  22.682  0.00  0.00    +0.002 A 
ATOM     27  C   UNL     1       4.572   0.975  22.728  0.00  0.00    +0.002 A 
ATOM     28  C   UNL     1       4.981   0.362  23.100  0.00  0.00    +0.030 A 
ATOM     29  C   UNL     1       4.567  -0.273  23.427  0.00  0.00    +0.140 A 
ATOM     30  F   UNL     1       4.977  -0.884  23.799  0.00  0.00    -0.204 F 
ATOM     31  C   UNL     1       3.744  -0.295  23.380  0.00  0.00    +0.031 A 
ENDBRANCH  21  25
ENDBRANCH  14  18
BRANCH  10   9
ATOM      7  C   UNL     1      -3.111   2.606  24.368  0.00  0.00    +0.252 C 
ATOM      8  O   UNL     1      -2.741   3.146  24.870  0.00  0.00    -0.272 OA
ATOM      9  N   UNL     1      -2.657   2.088  23.912  0.00  0.00    -0.201 NA
BRANCH   7   6
ATOM      6  C   UNL     1      -3.934   2.582  24.321  0.00  0.00    +0.145 C 
BRANCH   6   5
ATOM      5  S   UNL     1      -4.388   2.654  25.007  0.00  0.00    -0.119 S 
BRANCH   5   4
ATOM      4  C   UNL     1      -5.205   2.542  24.974  0.00  0.00    +0.172 C 
BRANCH   4   2
ATOM      1  O   UNL     1      -5.789   3.233  26.079  0.00  0.00    -0.245 OA
ATOM      2  C   UNL     1      -5.648   2.531  25.670  0.00  0.00    +0.376 C 
ATOM      3  O   UNL     1      -5.950   1.819  25.957  0.00  0.00    -0.245 OA
ENDBRANCH   4   2
ENDBRANCH   5   4
ENDBRANCH   6   5
ENDBRANCH   7   6
ENDBRANCH  10   9
TORSDOF 7
ENDMDL
