MODEL 1
REMARK VINA RESULT:     -13.9      0.000      0.000
REMARK  Name = 
REMARK  5 active torsions:
REMARK  status: ('A' for Active; 'I' for Inactive)
REMARK    1  A    between atoms: O_2  and  C_3
REMARK    2  A    between atoms: C_6  and  C_9
REMARK    3  A    between atoms: C_15  and  N_16
REMARK    4  A    between atoms: N_19  and  C_20
REMARK    5  A    between atoms: C_23  and  C_26
REMARK                            x       y       z     vdW  Elec       q    Type
REMARK                         _______ _______ _______ _____ _____    ______ ____
ROOT
ATOM      9  C   UNL     1      -4.218   3.199  25.277  0.00  0.00    +0.048 C 
ATOM     10  C   UNL     1      -4.831   3.569  25.687  0.00  0.00    +0.042 C 
ATOM     11  C   UNL     1      -5.519   3.133  25.565  0.00  0.00    +0.184 C 
ATOM     12  O   UNL     1      -6.265   3.306  25.874  0.00  0.00    -0.220 OA
ATOM     13  C   UNL     1      -5.333   2.492  25.079  0.00  0.00    +0.202 C 
ATOM     14  O   UNL     1      -5.859   1.913  24.817  0.00  0.00    -0.219 OA
ATOM     15  C   UNL     1      -4.529   2.533  24.901  0.00  0.00    +0.134 C 
ENDROOT
BRANCH   9   6
ATOM      3  C   UNL     1      -1.862   3.952  25.190  0.00  0.00    +0.139 A 
ATOM      4  C   UNL     1      -2.153   3.586  25.870  0.00  0.00    +0.037 A 
ATOM      5  C   UNL     1      -2.938   3.336  25.899  0.00  0.00    -0.001 A 
ATOM      6  C   UNL     1      -3.433   3.450  25.248  0.00  0.00    -0.020 A 
ATOM      7  C   UNL     1      -3.141   3.815  24.568  0.00  0.00    -0.001 A 
ATOM      8  C   UNL     1      -2.355   4.066  24.539  0.00  0.00    +0.037 A 
BRANCH   3   2
ATOM      1  C   UNL     1      -0.900   4.984  24.964  0.00  0.00    +0.252 C 
ATOM      2  O   UNL     1      -1.077   4.202  25.161  0.00  0.00    -0.471 OA
ENDBRANCH   3   2
ENDBRANCH   9   6
BRANCH  15  16
ATOM     16  N   UNL     1      -4.109   2.002  24.431  0.00  0.00    -0.186 NA
ATOM     17  C   UNL     1      -4.084   1.202  24.632  0.00  0.00    +0.344 C 
ATOM     18  O   UNL     1      -4.480   0.934  25.305  0.00  0.00    -0.249 OA
ATOM     19  N   UNL     1      -3.664   0.671  24.162  0.00  0.00    -0.161 NA
BRANCH  19  20
ATOM     20  C   UNL     1      -3.639  -0.129  24.363  0.00  0.00    +0.075 A 
ATOM     21  C   UNL     1      -3.129  -0.389  24.957  0.00  0.00    +0.017 A 
ATOM     22  C   UNL     1      -3.104  -1.189  25.159  0.00  0.00    +0.005 A 
ATOM     23  C   UNL     1      -3.590  -1.728  24.767  0.00  0.00    +0.072 A 
ATOM     24  C   UNL     1      -4.100  -1.468  24.173  0.00  0.00    +0.005 A 
ATOM     25  C   UNL     1      -4.125  -0.669  23.972  0.00  0.00    +0.017 A 
BRANCH  23  26
ATOM     26  C   UNL     1      -3.566  -2.527  24.968  0.00  0.00    +0.419 C 
ATOM     27  F   UNL     1      -3.542  -3.327  25.170  0.00  0.00    -0.166 F 
ATOM     28  F   UNL     1      -3.489  -2.726  24.171  0.00  0.00    -0.166 F 
ATOM     29  F   UNL     1      -3.643  -2.329  25.765  0.00  0.00    -0.166 F 
ENDBRANCH  23  26
ENDBRANCH  19  20
ENDBRANCH  15  16
TORSDOF 5
ENDMDL
MODEL 2
REMARK VINA RESULT:     -12.9      1.612      2.903
REMARK  Name = 
REMARK  5 active torsions:
REMARK  status: ('A' for Active; 'I' for Inactive)
REMARK    1  A    between atoms: O_2  and  C_3
REMARK    2  A    between atoms: C_6  and  C_9
REMARK    3  A    between atoms: C_15  and  N_16
REMARK    4  A    between atoms: N_19  and  C_20
REMARK    5  A    between atoms: C_23  and  C_26
REMARK                            x       y       z     vdW  Elec       q    Type
REMARK                         _______ _______ _______ _____ _____    ______ ____
ROOT
ATOM      9  C   UNL     1      -1.648   2.409  24.746  0.00  0.00    +0.048 C 
ATOM     10  C   UNL     1      -0.956   2.670  24.380  0.00  0.00    +0.042 C 
ATOM     11  C   UNL     1      -0.402   2.061  24.419  0.00  0.00    +0.184 C 
ATOM     12  O   UNL     1       0.367   2.086  24.120  0.00  0.00    -0.220 OA
ATOM     13  C   UNL     1      -0.750   1.423  24.809  0.00  0.00    +0.202 C 
ATOM     14  O   UNL     1      -0.390   0.698  24.969  0.00  0.00    -0.219 OA
ATOM     15  C   UNL     1      -1.520   1.638  25.012  0.00  0.00    +0.134 C 
ENDROOT
BRANCH   9   6
ATOM      3  C   UNL     1      -3.739   3.708  25.004  0.00  0.00    +0.139 A 
ATOM      4  C   UNL     1      -3.564   3.346  24.283  0.00  0.00    +0.037 A 
ATOM      5  C   UNL     1      -2.867   2.914  24.197  0.00  0.00    -0.001 A 
ATOM      6  C   UNL     1      -2.345   2.842  24.832  0.00  0.00    -0.020 A 
ATOM      7  C   UNL     1      -2.520   3.203  25.552  0.00  0.00    -0.001 A 
ATOM      8  C   UNL     1      -3.217   3.636  25.638  0.00  0.00    +0.037 A 
BRANCH   3   2
ATOM      1  C   UNL     1      -5.105   3.785  25.414  0.00  0.00    +0.252 C 
ATOM      2  O   UNL     1      -4.436   4.141  25.090  0.00  0.00    -0.471 OA
ENDBRANCH   3   2
ENDBRANCH   9   6
BRANCH  15  16
ATOM     16  N   UNL     1      -2.066   1.165  25.409  0.00  0.00    -0.186 NA
ATOM     17  C   UNL     1      -2.363   0.485  25.048  0.00  0.00    +0.344 C 
ATOM     18  O   UNL     1      -2.113   0.278  24.290  0.00  0.00    -0.249 OA
ATOM     19  N   UNL     1      -2.910   0.012  25.446  0.00  0.00    -0.161 NA
BRANCH  19  20
ATOM     20  C   UNL     1      -3.207  -0.668  25.085  0.00  0.00    +0.075 A 
ATOM     21  C   UNL     1      -2.883  -1.405  25.265  0.00  0.00    +0.017 A 
ATOM     22  C   UNL     1      -3.179  -2.085  24.904  0.00  0.00    +0.005 A 
ATOM     23  C   UNL     1      -3.800  -2.027  24.363  0.00  0.00    +0.072 A 
ATOM     24  C   UNL     1      -4.124  -1.291  24.184  0.00  0.00    +0.005 A 
ATOM     25  C   UNL     1      -3.827  -0.611  24.545  0.00  0.00    +0.017 A 
BRANCH  23  26
ATOM     26  C   UNL     1      -4.097  -2.707  24.002  0.00  0.00    +0.419 C 
ATOM     27  F   UNL     1      -4.393  -3.387  23.641  0.00  0.00    -0.166 F 
ATOM     28  F   UNL     1      -4.442  -2.244  23.413  0.00  0.00    -0.166 F 
ATOM     29  F   UNL     1      -3.752  -3.170  24.591  0.00  0.00    -0.166 F 
ENDBRANCH  23  26
ENDBRANCH  19  20
ENDBRANCH  15  16
TORSDOF 5
ENDMDL
MODEL 3
REMARK VINA RESULT:     -12.3      2.912      5.044
REMARK  Name = 
REMARK  5 active torsions:
REMARK  status: ('A' for Active; 'I' for Inactive)
REMARK    1  A    between atoms: O_2  and  C_3
REMARK    2  A    between atoms: C_6  and  C_9
REMARK    3  A    between atoms: C_15  and  N_16
REMARK    4  A    between atoms: N_19  and  C_20
REMARK    5  A    between atoms: C_23  and  C_26
REMARK                            x       y       z     vdW  Elec       q    Type
REMARK                         _______ _______ _______ _____ _____    ______ ____
ROOT
ATOM      9  C   UNL     1      -4.743   0.895  24.864  0.00  0.00    +0.048 C 
ATOM     10  C   UNL     1      -5.527   1.006  24.633  0.00  0.00    +0.042 C 
ATOM     11  C   UNL     1      -5.762   1.757  24.879  0.00  0.00    +0.184 C 
ATOM     12  O   UNL     1      -6.505   2.096  24.762  0.00  0.00    -0.220 OA
ATOM     13  C   UNL     1      -5.123   2.112  25.262  0.00  0.00    +0.202 C 
ATOM     14  O   UNL     1      -5.115   2.867  25.595  0.00  0.00    -0.219 OA
ATOM     15  C   UNL     1      -4.493   1.579  25.253  0.00  0.00    +0.134 C 
ENDROOT
BRANCH   9   6
ATOM      3  C   UNL     1      -3.380  -1.131  24.463  0.00  0.00    +0.139 A 
ATOM      4  C   UNL     1      -3.525  -0.603  23.846  0.00  0.00    +0.037 A 
ATOM      5  C   UNL     1      -3.980   0.072  23.979  0.00  0.00    -0.001 A 
ATOM      6  C   UNL     1      -4.289   0.220  24.731  0.00  0.00    -0.020 A 
ATOM      7  C   UNL     1      -4.142  -0.308  25.347  0.00  0.00    -0.001 A 
ATOM      8  C   UNL     1      -3.688  -0.983  25.214  0.00  0.00    +0.037 A 
BRANCH   3   2
ATOM      1  C   UNL     1      -3.233  -2.552  24.500  0.00  0.00    +0.252 C 
ATOM      2  O   UNL     1      -2.925  -1.806  24.330  0.00  0.00    -0.471 OA
ENDBRANCH   3   2
ENDBRANCH   9   6
BRANCH  15  16
ATOM     16  N   UNL     1      -3.745   1.707  25.575  0.00  0.00    -0.186 NA
ATOM     17  C   UNL     1      -3.310   2.372  25.355  0.00  0.00    +0.344 C 
ATOM     18  O   UNL     1      -3.622   2.910  24.813  0.00  0.00    -0.249 OA
ATOM     19  N   UNL     1      -2.561   2.501  25.678  0.00  0.00    -0.161 NA
BRANCH  19  20
ATOM     20  C   UNL     1      -2.126   3.166  25.458  0.00  0.00    +0.075 A 
ATOM     21  C   UNL     1      -1.590   3.120  24.832  0.00  0.00    +0.017 A 
ATOM     22  C   UNL     1      -1.155   3.785  24.612  0.00  0.00    +0.005 A 
ATOM     23  C   UNL     1      -1.255   4.496  25.018  0.00  0.00    +0.072 A 
ATOM     24  C   UNL     1      -1.789   4.543  25.644  0.00  0.00    +0.005 A 
ATOM     25  C   UNL     1      -2.225   3.877  25.864  0.00  0.00    +0.017 A 
BRANCH  23  26
ATOM     26  C   UNL     1      -0.819   5.162  24.798  0.00  0.00    +0.419 C 
ATOM     27  F   UNL     1      -0.384   5.827  24.578  0.00  0.00    -0.166 F 
ATOM     28  F   UNL     1      -1.474   5.640  24.950  0.00  0.00    -0.166 F 
ATOM     29  F   UNL     1      -0.165   4.683  24.646  0.00  0.00    -0.166 F 
ENDBRANCH  23  26
ENDBRANCH  19  20
ENDBRANCH  15  16
TORSDOF 5
ENDMDL
