REMARK  Name = 
REMARK  5 active torsions:
REMARK  status: ('A' for Active; 'I' for Inactive)
REMARK    1  A    between atoms: C_4  and  N_18
REMARK    2  A    between atoms: C_6  and  C_7
REMARK    3  A    between atoms: C_9  and  C_12
REMARK    4  A    between atoms: N_21  and  C_22
REMARK    5  A    between atoms: C_22  and  C_23
REMARK                            x       y       z     vdW  Elec       q    Type
REMARK                         _______ _______ _______ _____ _____    ______ ____
ROOT
ATOM      1  C   UNL     1       2.143  -2.888   0.000  0.00  0.00    +0.090 C 
ATOM      2  N   UNL     1       2.143  -3.712   0.000  0.00  0.00    -0.264 NA
ATOM      3  C   UNL     1       2.811  -4.197   0.000  0.00  0.00    +0.094 C 
ATOM      4  C   UNL     1       2.556  -4.982   0.000  0.00  0.00    +0.115 C 
ATOM      5  C   UNL     1       1.731  -4.982   0.000  0.00  0.00    +0.049 C 
ATOM      6  C   UNL     1       1.476  -4.197   0.000  0.00  0.00    +0.139 C 
ENDROOT
BRANCH   6   7
ATOM      7  C   UNL     1       0.691  -3.942   0.000  0.00  0.00    +0.251 A 
ATOM      8  N   UNL     1       0.024  -4.427   0.000  0.00  0.00    -0.190 NA
ATOM      9  C   UNL     1      -0.643  -3.942   0.000  0.00  0.00    +0.203 A 
ATOM     10  N   UNL     1      -0.389  -3.158   0.000  0.00  0.00    -0.056 NA
ATOM     11  O   UNL     1       0.436  -3.158   0.000  0.00  0.00    -0.336 OA
BRANCH   9  12
ATOM     12  C   UNL     1      -1.428  -4.197   0.000  0.00  0.00    +0.042 A 
ATOM     13  C   UNL     1      -1.600  -5.004   0.000  0.00  0.00    +0.024 A 
ATOM     14  C   UNL     1      -2.384  -5.259   0.000  0.00  0.00    +0.099 A 
ATOM     15  N   UNL     1      -2.997  -4.707   0.000  0.00  0.00    -0.242 NA
ATOM     16  C   UNL     1      -2.826  -3.900   0.000  0.00  0.00    +0.099 A 
ATOM     17  C   UNL     1      -2.041  -3.645   0.000  0.00  0.00    +0.024 A 
ENDBRANCH   9  12
ENDBRANCH   6   7
BRANCH   4  18
ATOM     18  N   UNL     1       3.041  -5.649   0.000  0.00  0.00    -0.187 NA
ATOM     19  C   UNL     1       3.861  -5.563   0.000  0.00  0.00    +0.340 C 
ATOM     20  O   UNL     1       4.197  -4.810   0.000  0.00  0.00    -0.249 OA
ATOM     21  N   UNL     1       4.346  -6.231   0.000  0.00  0.00    -0.182 NA
BRANCH  21  22
ATOM     22  C   UNL     1       5.167  -6.144   0.000  0.00  0.00    +0.143 C 
BRANCH  22  23
ATOM     23  C   UNL     1       5.652  -6.812   0.000  0.00  0.00    -0.001 A 
ATOM     24  C   UNL     1       6.472  -6.726   0.000  0.00  0.00    -0.003 A 
ATOM     25  C   UNL     1       6.957  -7.393   0.000  0.00  0.00    -0.000 A 
ATOM     26  C   UNL     1       6.622  -8.147   0.000  0.00  0.00    -0.000 A 
ATOM     27  C   UNL     1       5.801  -8.233   0.000  0.00  0.00    -0.000 A 
ATOM     28  C   UNL     1       5.316  -7.566   0.000  0.00  0.00    -0.003 A 
ENDBRANCH  22  23
ENDBRANCH  21  22
ENDBRANCH   4  18
TORSDOF 5
