REMARK  Name = 
REMARK  6 active torsions:
REMARK  status: ('A' for Active; 'I' for Inactive)
REMARK    1  A    between atoms: O_2  and  C_3
REMARK    2  A    between atoms: C_6  and  C_9
REMARK    3  A    between atoms: C_11  and  C_12
REMARK    4  A    between atoms: C_12  and  C_13
REMARK    5  A    between atoms: C_15  and  N_16
REMARK    6  A    between atoms: C_17  and  C_19
REMARK                            x       y       z     vdW  Elec       q    Type
REMARK                         _______ _______ _______ _____ _____    ______ ____
ROOT
ATOM     13  C   UNL     1       2.012  -3.058   0.000  0.00  0.00    +0.009 C 
ATOM     14  C   UNL     1       1.429  -3.642   0.000  0.00  0.00    +0.022 C 
ATOM     15  C   UNL     1       0.846  -3.058   0.000  0.00  0.00    +0.096 C 
ATOM     25  C   UNL     1       1.429  -2.475   0.000  0.00  0.00    +0.019 C 
ATOM     26  C   UNL     1       0.998  -1.772   0.000  0.00  0.00    +0.002 C 
ATOM     27  C   UNL     1       1.860  -1.772   0.000  0.00  0.00    +0.002 C 
ENDROOT
BRANCH  15  16
ATOM     16  N   UNL     1       0.021  -3.058   0.000  0.00  0.00    -0.203 NA
ATOM     17  C   UNL     1      -0.392  -3.773   0.000  0.00  0.00    +0.265 C 
ATOM     18  O   UNL     1       0.021  -4.487   0.000  0.00  0.00    -0.268 OA
BRANCH  17  19
ATOM     19  C   UNL     1      -1.217  -3.773   0.000  0.00  0.00    +0.055 A 
ATOM     20  C   UNL     1      -1.629  -4.487   0.000  0.00  0.00    +0.005 A 
ATOM     21  C   UNL     1      -2.454  -4.487   0.000  0.00  0.00    +0.000 A 
ATOM     22  C   UNL     1      -2.867  -3.773   0.000  0.00  0.00    +0.000 A 
ATOM     23  C   UNL     1      -2.454  -3.058   0.000  0.00  0.00    +0.000 A 
ATOM     24  C   UNL     1      -1.629  -3.058   0.000  0.00  0.00    +0.005 A 
ENDBRANCH  17  19
ENDBRANCH  15  16
BRANCH  13  12
ATOM     12  C   UNL     1       2.837  -3.058   0.000  0.00  0.00    +0.049 C 
BRANCH  12  11
ATOM      9  C   UNL     1       4.242  -1.451   0.000  0.00  0.00    +0.177 A 
ATOM     10  C   UNL     1       4.070  -2.258   0.000  0.00  0.00    +0.058 A 
ATOM     11  C   UNL     1       3.250  -2.344   0.000  0.00  0.00    +0.101 A 
ATOM     28  N   UNL     1       2.914  -1.590   0.000  0.00  0.00    -0.081 NA
ATOM     29  O   UNL     1       3.527  -1.038   0.000  0.00  0.00    -0.354 OA
BRANCH   9   6
ATOM      3  C   UNL     1       6.503  -0.444   0.000  0.00  0.00    +0.139 A 
ATOM      4  C   UNL     1       6.417  -1.264   0.000  0.00  0.00    +0.037 A 
ATOM      5  C   UNL     1       5.663  -1.600   0.000  0.00  0.00    +0.006 A 
ATOM      6  C   UNL     1       4.995  -1.115   0.000  0.00  0.00    +0.037 A 
ATOM      7  C   UNL     1       5.082  -0.295   0.000  0.00  0.00    +0.006 A 
ATOM      8  C   UNL     1       5.835   0.041   0.000  0.00  0.00    +0.037 A 
BRANCH   3   2
ATOM      1  C   UNL     1       7.343   0.712   0.000  0.00  0.00    +0.252 C 
ATOM      2  O   UNL     1       7.256  -0.108   0.000  0.00  0.00    -0.471 OA
ENDBRANCH   3   2
ENDBRANCH   9   6
ENDBRANCH  12  11
ENDBRANCH  13  12
TORSDOF 6
