MODEL 1
REMARK VINA RESULT:     -11.7      0.000      0.000
REMARK  Name = 
REMARK  3 active torsions:
REMARK  status: ('A' for Active; 'I' for Inactive)
REMARK    1  A    between atoms: C_3  and  C_11
REMARK    2  A    between atoms: N_14  and  C_15
REMARK    3  A    between atoms: C_15  and  C_16
REMARK                            x       y       z     vdW  Elec       q    Type
REMARK                         _______ _______ _______ _____ _____    ______ ____
ROOT
ATOM     11  C   UNL     1      -4.231   0.711  24.688  0.00  0.00    +0.074 C 
ATOM     12  C   UNL     1      -4.830   1.066  25.129  0.00  0.00    +0.026 C 
ATOM     13  C   UNL     1      -4.758   1.884  25.046  0.00  0.00    +0.073 C 
ATOM     14  N   UNL     1      -4.114   2.034  24.553  0.00  0.00    -0.267 NA
ATOM     22  C   UNL     1      -3.788   1.309  24.331  0.00  0.00    +0.080 C 
ENDROOT
BRANCH  11   3
ATOM      1  C   UNL     1      -3.199  -0.289  25.764  0.00  0.00    +0.132 C 
ATOM      2  N   UNL     1      -3.622  -0.560  25.111  0.00  0.00    -0.313 N 
ATOM      3  C   UNL     1      -4.097  -0.100  24.616  0.00  0.00    +0.121 A 
ATOM      4  N   UNL     1      -4.414  -0.594  24.037  0.00  0.00    -0.231 NA
ATOM      5  C   UNL     1      -4.136  -1.358  24.173  0.00  0.00    +0.098 A 
ATOM      6  C   UNL     1      -3.647  -1.337  24.837  0.00  0.00    +0.079 A 
ATOM      7  C   UNL     1      -3.287  -2.029  25.106  0.00  0.00    +0.019 A 
ATOM      8  C   UNL     1      -3.415  -2.741  24.712  0.00  0.00    +0.002 A 
ATOM      9  C   UNL     1      -3.905  -2.763  24.048  0.00  0.00    +0.002 A 
ATOM     10  C   UNL     1      -4.265  -2.072  23.778  0.00  0.00    +0.021 A 
ENDBRANCH  11   3
BRANCH  14  15
ATOM     15  C   UNL     1      -3.843   2.778  24.321  0.00  0.00    +0.119 C 
BRANCH  15  16
ATOM     16  C   UNL     1      -3.278   3.171  24.775  0.00  0.00    +0.075 A 
ATOM     17  N   UNL     1      -2.475   3.078  24.605  0.00  0.00    -0.247 NA
ATOM     18  C   UNL     1      -1.911   3.472  25.059  0.00  0.00    +0.098 A 
ATOM     19  C   UNL     1      -2.146   3.957  25.683  0.00  0.00    +0.021 A 
ATOM     20  C   UNL     1      -2.949   4.050  25.852  0.00  0.00    +0.003 A 
ATOM     21  C   UNL     1      -3.515   3.657  25.398  0.00  0.00    +0.016 A 
ENDBRANCH  15  16
ENDBRANCH  14  15
TORSDOF 3
ENDMDL
MODEL 2
REMARK VINA RESULT:     -11.3      0.866      4.824
REMARK  Name = 
REMARK  3 active torsions:
REMARK  status: ('A' for Active; 'I' for Inactive)
REMARK    1  A    between atoms: C_3  and  C_11
REMARK    2  A    between atoms: N_14  and  C_15
REMARK    3  A    between atoms: C_15  and  C_16
REMARK                            x       y       z     vdW  Elec       q    Type
REMARK                         _______ _______ _______ _____ _____    ______ ____
ROOT
ATOM     11  C   UNL     1      -3.067   1.691  24.347  0.00  0.00    +0.074 C 
ATOM     12  C   UNL     1      -3.133   1.382  23.586  0.00  0.00    +0.026 C 
ATOM     13  C   UNL     1      -3.613   0.712  23.623  0.00  0.00    +0.073 C 
ATOM     14  N   UNL     1      -3.844   0.607  24.408  0.00  0.00    -0.267 NA
ATOM     22  C   UNL     1      -3.507   1.212  24.856  0.00  0.00    +0.080 C 
ENDROOT
BRANCH  11   3
ATOM      1  C   UNL     1      -3.719   3.355  24.513  0.00  0.00    +0.132 C 
ATOM      2  N   UNL     1      -2.937   3.126  24.640  0.00  0.00    -0.313 N 
ATOM      3  C   UNL     1      -2.637   2.361  24.564  0.00  0.00    +0.121 A 
ATOM      4  N   UNL     1      -1.832   2.384  24.741  0.00  0.00    -0.231 NA
ATOM      5  C   UNL     1      -1.635   3.163  24.927  0.00  0.00    +0.098 A 
ATOM      6  C   UNL     1      -2.318   3.621  24.865  0.00  0.00    +0.079 A 
ATOM      7  C   UNL     1      -2.286   4.431  25.021  0.00  0.00    +0.019 A 
ATOM      8  C   UNL     1      -1.573   4.782  25.239  0.00  0.00    +0.002 A 
ATOM      9  C   UNL     1      -0.890   4.324  25.302  0.00  0.00    +0.002 A 
ATOM     10  C   UNL     1      -0.920   3.514  25.146  0.00  0.00    +0.021 A 
ENDBRANCH  11   3
BRANCH  14  15
ATOM     15  C   UNL     1      -4.328   0.003  24.695  0.00  0.00    +0.119 C 
BRANCH  15  16
ATOM     16  C   UNL     1      -4.036  -0.766  24.755  0.00  0.00    +0.075 A 
ATOM     17  N   UNL     1      -3.619  -0.997  25.429  0.00  0.00    -0.247 NA
ATOM     18  C   UNL     1      -3.327  -1.766  25.489  0.00  0.00    +0.098 A 
ATOM     19  C   UNL     1      -3.452  -2.304  24.877  0.00  0.00    +0.021 A 
ATOM     20  C   UNL     1      -3.869  -2.073  24.203  0.00  0.00    +0.003 A 
ATOM     21  C   UNL     1      -4.161  -1.303  24.142  0.00  0.00    +0.016 A 
ENDBRANCH  15  16
ENDBRANCH  14  15
TORSDOF 3
ENDMDL
MODEL 3
REMARK VINA RESULT:     -11.0      1.423      2.256
REMARK  Name = 
REMARK  3 active torsions:
REMARK  status: ('A' for Active; 'I' for Inactive)
REMARK    1  A    between atoms: C_3  and  C_11
REMARK    2  A    between atoms: N_14  and  C_15
REMARK    3  A    between atoms: C_15  and  C_16
REMARK                            x       y       z     vdW  Elec       q    Type
REMARK                         _______ _______ _______ _____ _____    ______ ____
ROOT
ATOM     11  C   UNL     1      -1.734   0.790  24.712  0.00  0.00    +0.074 C 
ATOM     12  C   UNL     1      -1.149   1.021  24.178  0.00  0.00    +0.026 C 
ATOM     13  C   UNL     1      -0.767   1.683  24.488  0.00  0.00    +0.073 C 
ATOM     14  N   UNL     1      -1.115   1.862  25.214  0.00  0.00    -0.267 NA
ATOM     22  C   UNL     1      -1.712   1.310  25.353  0.00  0.00    +0.080 C 
ENDROOT
BRANCH  11   3
ATOM      1  C   UNL     1      -3.294   0.811  23.826  0.00  0.00    +0.132 C 
ATOM      2  N   UNL     1      -2.966   0.162  24.215  0.00  0.00    -0.313 N 
ATOM      3  C   UNL     1      -2.249   0.152  24.623  0.00  0.00    +0.121 A 
ATOM      4  N   UNL     1      -2.137  -0.607  24.924  0.00  0.00    -0.231 NA
ATOM      5  C   UNL     1      -2.785  -1.067  24.703  0.00  0.00    +0.098 A 
ATOM      6  C   UNL     1      -3.298  -0.591  24.265  0.00  0.00    +0.079 A 
ATOM      7  C   UNL     1      -4.000  -0.907  23.968  0.00  0.00    +0.019 A 
ATOM      8  C   UNL     1      -4.190  -1.697  24.110  0.00  0.00    +0.002 A 
ATOM      9  C   UNL     1      -3.678  -2.172  24.548  0.00  0.00    +0.002 A 
ATOM     10  C   UNL     1      -2.975  -1.858  24.845  0.00  0.00    +0.021 A 
ENDBRANCH  11   3
BRANCH  14  15
ATOM     15  C   UNL     1      -0.903   2.483  25.714  0.00  0.00    +0.119 C 
BRANCH  15  16
ATOM     16  C   UNL     1      -1.188   3.243  25.571  0.00  0.00    +0.075 A 
ATOM     17  N   UNL     1      -1.939   3.459  25.838  0.00  0.00    -0.247 NA
ATOM     18  C   UNL     1      -2.224   4.219  25.695  0.00  0.00    +0.098 A 
ATOM     19  C   UNL     1      -1.759   4.765  25.286  0.00  0.00    +0.021 A 
ATOM     20  C   UNL     1      -1.008   4.549  25.020  0.00  0.00    +0.003 A 
ATOM     21  C   UNL     1      -0.723   3.788  25.163  0.00  0.00    +0.016 A 
ENDBRANCH  15  16
ENDBRANCH  14  15
TORSDOF 3
ENDMDL
MODEL 4
REMARK VINA RESULT:     -10.6      1.223      4.439
REMARK  Name = 
REMARK  3 active torsions:
REMARK  status: ('A' for Active; 'I' for Inactive)
REMARK    1  A    between atoms: C_3  and  C_11
REMARK    2  A    between atoms: N_14  and  C_15
REMARK    3  A    between atoms: C_15  and  C_16
REMARK                            x       y       z     vdW  Elec       q    Type
REMARK                         _______ _______ _______ _____ _____    ______ ____
ROOT
ATOM     11  C   UNL     1      -4.292   0.235  24.807  0.00  0.00    +0.074 C 
ATOM     12  C   UNL     1      -4.512  -0.226  24.160  0.00  0.00    +0.026 C 
ATOM     13  C   UNL     1      -4.201  -0.982  24.266  0.00  0.00    +0.073 C 
ATOM     14  N   UNL     1      -3.787  -0.989  24.980  0.00  0.00    -0.267 NA
ATOM     22  C   UNL     1      -3.843  -0.237  25.314  0.00  0.00    +0.080 C 
ENDROOT
BRANCH  11   3
ATOM      1  C   UNL     1      -3.419   1.648  24.127  0.00  0.00    +0.132 C 
ATOM      2  N   UNL     1      -4.083   1.678  24.614  0.00  0.00    -0.313 N 
ATOM      3  C   UNL     1      -4.485   1.028  24.927  0.00  0.00    +0.121 A 
ATOM      4  N   UNL     1      -5.113   1.311  25.381  0.00  0.00    -0.231 NA
ATOM      5  C   UNL     1      -5.100   2.134  25.348  0.00  0.00    +0.098 A 
ATOM      6  C   UNL     1      -4.464   2.361  24.875  0.00  0.00    +0.079 A 
ATOM      7  C   UNL     1      -4.314   3.162  24.742  0.00  0.00    +0.019 A 
ATOM      8  C   UNL     1      -4.799   3.735  25.082  0.00  0.00    +0.002 A 
ATOM      9  C   UNL     1      -5.435   3.508  25.556  0.00  0.00    +0.002 A 
ATOM     10  C   UNL     1      -5.586   2.708  25.689  0.00  0.00    +0.021 A 
ENDBRANCH  11   3
BRANCH  14  15
ATOM     15  C   UNL     1      -3.387  -1.635  25.302  0.00  0.00    +0.119 C 
BRANCH  15  16
ATOM     16  C   UNL     1      -2.607  -1.788  25.084  0.00  0.00    +0.075 A 
ATOM     17  N   UNL     1      -1.990  -1.365  25.433  0.00  0.00    -0.247 NA
ATOM     18  C   UNL     1      -1.210  -1.520  25.214  0.00  0.00    +0.098 A 
ATOM     19  C   UNL     1      -1.046  -2.095  24.647  0.00  0.00    +0.021 A 
ATOM     20  C   UNL     1      -1.663  -2.518  24.297  0.00  0.00    +0.003 A 
ATOM     21  C   UNL     1      -2.444  -2.364  24.516  0.00  0.00    +0.016 A 
ENDBRANCH  15  16
ENDBRANCH  14  15
TORSDOF 3
ENDMDL
