REMARK  Name = 
REMARK  4 active torsions:
REMARK  status: ('A' for Active; 'I' for Inactive)
REMARK    1  A    between atoms: C_4  and  C_8
REMARK    2  A    between atoms: C_11  and  C_13
REMARK    3  A    between atoms: N_18  and  C_19
REMARK    4  A    between atoms: C_19  and  C_20
REMARK                            x       y       z     vdW  Elec       q    Type
REMARK                         _______ _______ _______ _____ _____    ______ ____
ROOT
ATOM      8  C   UNL     1      -1.322   2.290   0.000  0.00  0.00    +0.203 A 
ATOM      9  N   UNL     1      -0.655   1.805   0.000  0.00  0.00    -0.056 NA
ATOM     10  O   UNL     1      -0.910   1.021   0.000  0.00  0.00    -0.336 OA
ATOM     11  C   UNL     1      -1.735   1.021   0.000  0.00  0.00    +0.251 A 
ATOM     12  N   UNL     1      -1.990   1.805   0.000  0.00  0.00    -0.190 NA
ENDROOT
BRANCH   8   4
ATOM      1  C   UNL     1       0.107   4.765   0.000  0.00  0.00    +0.031 C 
ATOM      2  C   UNL     1      -0.608   4.353   0.000  0.00  0.00    -0.022 A 
ATOM      3  C   UNL     1      -0.608   3.528   0.000  0.00  0.00    -0.001 A 
ATOM      4  C   UNL     1      -1.322   3.115   0.000  0.00  0.00    +0.039 A 
ATOM      5  C   UNL     1      -2.037   3.528   0.000  0.00  0.00    +0.003 A 
ATOM      6  C   UNL     1      -2.037   4.353   0.000  0.00  0.00    -0.000 A 
ATOM      7  C   UNL     1      -1.322   4.765   0.000  0.00  0.00    -0.004 A 
ENDBRANCH   8   4
BRANCH  11  13
ATOM     13  C   UNL     1      -2.220   0.353   0.000  0.00  0.00    +0.141 C 
ATOM     14  C   UNL     1      -1.965  -0.431   0.000  0.00  0.00    +0.060 C 
ATOM     15  C   UNL     1      -2.632  -0.916   0.000  0.00  0.00    +0.170 C 
ATOM     16  O   UNL     1      -2.632  -1.741   0.000  0.00  0.00    -0.222 OA
ATOM     17  C   UNL     1      -3.300  -0.431   0.000  0.00  0.00    +0.106 C 
ATOM     18  N   UNL     1      -3.045   0.353   0.000  0.00  0.00    -0.258 NA
BRANCH  18  19
ATOM     19  C   UNL     1      -3.530   1.021   0.000  0.00  0.00    +0.139 C 
BRANCH  19  20
ATOM     20  C   UNL     1      -3.194   1.774   0.000  0.00  0.00    +0.155 A 
ATOM     21  N   UNL     1      -3.607   2.489   0.000  0.00  0.00    -0.226 NA
ATOM     22  C   UNL     1      -3.054   3.102   0.000  0.00  0.00    +0.121 A 
ATOM     23  C   UNL     1      -2.301   2.766   0.000  0.00  0.00    +0.121 A 
ATOM     24  N   UNL     1      -2.387   1.946   0.000  0.00  0.00    -0.226 NA
ENDBRANCH  19  20
ENDBRANCH  18  19
ENDBRANCH  11  13
TORSDOF 4
