REMARK  Name = 
REMARK  6 active torsions:
REMARK  status: ('A' for Active; 'I' for Inactive)
REMARK    1  A    between atoms: C_5  and  C_6
REMARK    2  A    between atoms: C_6  and  N_7
REMARK    3  A    between atoms: C_12  and  C_13
REMARK    4  A    between atoms: C_15  and  C_18
REMARK    5  A    between atoms: C_21  and  O_22
REMARK    6  A    between atoms: O_22  and  C_23
REMARK                            x       y       z     vdW  Elec       q    Type
REMARK                         _______ _______ _______ _____ _____    ______ ____
ROOT
ATOM     13  C   UNL     1      -2.047  -3.270   0.000  0.00  0.00    +0.251 A 
ATOM     14  N   UNL     1      -2.715  -3.755   0.000  0.00  0.00    -0.190 NA
ATOM     15  C   UNL     1      -3.382  -3.270   0.000  0.00  0.00    +0.203 A 
ATOM     16  N   UNL     1      -3.127  -2.486   0.000  0.00  0.00    -0.056 NA
ATOM     17  O   UNL     1      -2.303  -2.486   0.000  0.00  0.00    -0.336 OA
ENDROOT
BRANCH  13  12
ATOM      7  N   UNL     1      -0.596  -3.041   0.000  0.00  0.00    -0.260 NA
ATOM      8  C   UNL     1       0.072  -3.525   0.000  0.00  0.00    +0.106 C 
ATOM      9  C   UNL     1      -0.183  -4.310   0.000  0.00  0.00    +0.170 C 
ATOM     10  O   UNL     1       0.302  -4.977   0.000  0.00  0.00    -0.222 OA
ATOM     11  C   UNL     1      -1.008  -4.310   0.000  0.00  0.00    +0.060 C 
ATOM     12  C   UNL     1      -1.263  -3.525   0.000  0.00  0.00    +0.140 C 
BRANCH   7   6
ATOM      6  C   UNL     1      -0.596  -2.216   0.000  0.00  0.00    +0.100 C 
BRANCH   6   5
ATOM      1  C   UNL     1       2.262  -0.566   0.000  0.00  0.00    +0.031 C 
ATOM      2  C   UNL     1       1.548  -0.978   0.000  0.00  0.00    -0.022 A 
ATOM      3  C   UNL     1       1.548  -1.803   0.000  0.00  0.00    -0.005 A 
ATOM      4  C   UNL     1       0.834  -2.216   0.000  0.00  0.00    -0.003 A 
ATOM      5  C   UNL     1       0.119  -1.803   0.000  0.00  0.00    -0.006 A 
ATOM     29  C   UNL     1       0.119  -0.978   0.000  0.00  0.00    -0.003 A 
ATOM     30  C   UNL     1       0.834  -0.566   0.000  0.00  0.00    -0.005 A 
ENDBRANCH   6   5
ENDBRANCH   7   6
ENDBRANCH  13  12
BRANCH  15  18
ATOM     18  C   UNL     1      -4.167  -3.525   0.000  0.00  0.00    +0.039 A 
ATOM     19  C   UNL     1      -4.338  -4.332   0.000  0.00  0.00    +0.006 A 
ATOM     20  C   UNL     1      -5.123  -4.587   0.000  0.00  0.00    +0.037 A 
ATOM     21  C   UNL     1      -5.736  -4.035   0.000  0.00  0.00    +0.147 A 
ATOM     27  C   UNL     1      -5.565  -3.228   0.000  0.00  0.00    +0.037 A 
ATOM     28  C   UNL     1      -4.780  -2.973   0.000  0.00  0.00    +0.006 A 
BRANCH  21  22
ATOM     22  O   UNL     1      -6.521  -4.290   0.000  0.00  0.00    -0.404 OA
BRANCH  22  23
ATOM     23  C   UNL     1      -6.692  -5.097   0.000  0.00  0.00    +0.575 C 
ATOM     24  F   UNL     1      -6.864  -5.904   0.000  0.00  0.00    -0.133 F 
ATOM     25  F   UNL     1      -7.499  -4.926   0.000  0.00  0.00    -0.133 F 
ATOM     26  F   UNL     1      -5.885  -5.269   0.000  0.00  0.00    -0.133 F 
ENDBRANCH  22  23
ENDBRANCH  21  22
ENDBRANCH  15  18
TORSDOF 6
