MODEL 1
REMARK VINA RESULT:      -9.9      0.000      0.000
REMARK  Name = 
REMARK  9 active torsions:
REMARK  status: ('A' for Active; 'I' for Inactive)
REMARK    1  A    between atoms: O_2  and  C_3
REMARK    2  A    between atoms: C_6  and  C_11
REMARK    3  A    between atoms: C_8  and  O_9
REMARK    4  A    between atoms: C_15  and  C_17
REMARK    5  A    between atoms: C_24  and  C_25
REMARK    6  A    between atoms: C_25  and  O_26
REMARK    7  A    between atoms: O_26  and  C_27
REMARK    8  A    between atoms: N_29  and  C_30
REMARK    9  A    between atoms: C_32  and  C_36
REMARK                            x       y       z     vdW  Elec       q    Type
REMARK                         _______ _______ _______ _____ _____    ______ ____
ROOT
ATOM     17  C   UNL     1      -1.521   1.525  23.817  0.00  0.00    +0.056 C 
ATOM     18  C   UNL     1      -1.038   2.109  23.644  0.00  0.00    +0.078 C 
ATOM     19  N   UNL     1      -0.820   1.334  23.828  0.00  0.00    -0.270 NA
ATOM     20  C   UNL     1      -1.703   0.800  24.010  0.00  0.00    +0.072 C 
ATOM     21  C   UNL     1      -2.008   0.244  24.167  0.00  0.00    +0.018 C 
ATOM     22  C   UNL     1      -1.300   0.767  23.997  0.00  0.00    +0.010 C 
ATOM     23  C   UNL     1      -0.513   0.382  24.053  0.00  0.00    +0.020 C 
ATOM     24  C   UNL     1      -0.006   0.927  23.888  0.00  0.00    +0.102 C 
ENDROOT
BRANCH  17  15
ATOM     11  C   UNL     1      -3.583   1.902  24.228  0.00  0.00    +0.102 A 
ATOM     12  N   UNL     1      -3.565   1.993  23.409  0.00  0.00    -0.170 NA
ATOM     13  N   UNL     1      -2.791   1.863  23.155  0.00  0.00    -0.253 N 
ATOM     14  C   UNL     1      -2.523   1.898  22.375  0.00  0.00    +0.153 C 
ATOM     15  C   UNL     1      -2.331   1.691  23.818  0.00  0.00    +0.058 A 
ATOM     16  C   UNL     1      -2.820   1.715  24.482  0.00  0.00    +0.035 A 
BRANCH  11   6
ATOM      3  C   UNL     1      -5.576   2.147  25.675  0.00  0.00    +0.172 A 
ATOM      4  C   UNL     1      -5.368   1.404  25.381  0.00  0.00    +0.040 A 
ATOM      5  C   UNL     1      -4.704   1.323  24.899  0.00  0.00    +0.005 A 
ATOM      6  C   UNL     1      -4.247   1.983  24.710  0.00  0.00    +0.023 A 
ATOM      7  C   UNL     1      -4.455   2.726  25.004  0.00  0.00    +0.042 A 
ATOM      8  C   UNL     1      -5.120   2.807  25.486  0.00  0.00    +0.172 A 
BRANCH   3   2
ATOM      1  C   UNL     1      -6.565   1.566  26.527  0.00  0.00    +0.253 C 
ATOM      2  O   UNL     1      -6.241   2.228  26.157  0.00  0.00    -0.468 OA
ENDBRANCH   3   2
BRANCH   8   9
ATOM      9  O   UNL     1      -5.328   3.550  25.780  0.00  0.00    -0.468 OA
ATOM     10  C   UNL     1      -5.095   4.232  25.379  0.00  0.00    +0.253 C 
ENDBRANCH   8   9
ENDBRANCH  11   6
ENDBRANCH  17  15
BRANCH  24  25
ATOM     25  C   UNL     1       0.803   1.066  23.810  0.00  0.00    +0.226 C 
BRANCH  25  26
ATOM     26  O   UNL     1       1.256   0.593  23.309  0.00  0.00    -0.432 OA
BRANCH  26  27
ATOM     27  C   UNL     1       2.074   0.694  23.272  0.00  0.00    +0.425 C 
ATOM     28  O   UNL     1       2.410   1.415  23.490  0.00  0.00    -0.224 OA
ATOM     29  N   UNL     1       2.556   0.075  23.017  0.00  0.00    -0.142 NA
BRANCH  29  30
ATOM     30  C   UNL     1       3.374   0.177  22.981  0.00  0.00    +0.077 A 
ATOM     31  C   UNL     1       3.860  -0.188  23.538  0.00  0.00    +0.021 A 
ATOM     32  C   UNL     1       4.679  -0.086  23.502  0.00  0.00    +0.073 A 
ATOM     33  C   UNL     1       5.010   0.381  22.908  0.00  0.00    +0.004 A 
ATOM     34  C   UNL     1       4.524   0.746  22.351  0.00  0.00    +0.001 A 
ATOM     35  C   UNL     1       3.706   0.644  22.387  0.00  0.00    +0.017 A 
BRANCH  32  36
ATOM     36  C   UNL     1       5.165  -0.451  24.059  0.00  0.00    +0.419 C 
ATOM     37  F   UNL     1       5.652  -0.815  24.617  0.00  0.00    -0.166 F 
ATOM     38  F   UNL     1       4.960  -1.189  23.756  0.00  0.00    -0.166 F 
ATOM     39  F   UNL     1       5.371   0.289  24.364  0.00  0.00    -0.166 F 
ENDBRANCH  32  36
ENDBRANCH  29  30
ENDBRANCH  26  27
ENDBRANCH  25  26
ENDBRANCH  24  25
TORSDOF 9
ENDMDL
