REMARK  Name = 
REMARK  5 active torsions:
REMARK  status: ('A' for Active; 'I' for Inactive)
REMARK    1  A    between atoms: C_2  and  C_4
REMARK    2  A    between atoms: C_8  and  C_10
REMARK    3  A    between atoms: C_21  and  N_22
REMARK    4  A    between atoms: N_22  and  S_23
REMARK    5  A    between atoms: S_23  and  C_26
REMARK                            x       y       z     vdW  Elec       q    Type
REMARK                         _______ _______ _______ _____ _____    ______ ____
ROOT
ATOM     10  C   UNL     1       0.150  -2.660   0.000  0.00  0.00    +0.249 C 
ATOM     11  O   UNL     1       0.420  -3.479   0.000  0.00  0.00    -0.270 OA
ATOM     12  N   UNL     1       0.813  -2.091   0.000  0.00  0.00    -0.276 N 
ATOM     13  C   UNL     1       1.629  -1.912   0.000  0.00  0.00    +0.096 C 
ATOM     14  C   UNL     1       1.582  -0.925   0.000  0.00  0.00    +0.043 C 
ATOM     15  C   UNL     1       1.713  -0.121   0.000  0.00  0.00    +0.011 C 
ATOM     16  C   UNL     1       1.163  -0.557   0.000  0.00  0.00    +0.058 C 
ATOM     17  C   UNL     1       1.225  -1.510   0.000  0.00  0.00    +0.099 C 
ATOM     18  C   UNL     1       0.244  -0.558   0.000  0.00  0.00    +0.041 A 
ATOM     19  C   UNL     1      -0.397  -0.039   0.000  0.00  0.00    +0.014 A 
ATOM     20  C   UNL     1      -1.167  -0.335   0.000  0.00  0.00    +0.024 A 
ATOM     21  C   UNL     1      -1.296  -1.150   0.000  0.00  0.00    +0.147 A 
ATOM     32  C   UNL     1      -0.655  -1.669   0.000  0.00  0.00    +0.277 A 
ATOM     33  O   UNL     1      -1.392  -2.136   0.000  0.00  0.00    -0.266 OA
ATOM     34  N   UNL     1       0.115  -1.373   0.000  0.00  0.00    -0.298 N 
ATOM     35  C   UNL     1       0.622  -0.936   0.000  0.00  0.00    +0.110 C 
ENDROOT
BRANCH  10   8
ATOM      4  C   UNL     1      -1.485  -0.905   0.000  0.00  0.00    +0.080 A 
ATOM      5  C   UNL     1      -2.338  -1.196   0.000  0.00  0.00    +0.007 A 
ATOM      6  C   UNL     1      -2.040  -2.267   0.000  0.00  0.00    +0.000 A 
ATOM      7  C   UNL     1      -1.301  -2.635   0.000  0.00  0.00    +0.005 A 
ATOM      8  C   UNL     1      -0.614  -2.179   0.000  0.00  0.00    +0.054 A 
ATOM      9  C   UNL     1      -0.664  -1.356   0.000  0.00  0.00    +0.011 A 
BRANCH   4   2
ATOM      1  O   UNL     1      -2.525   0.490   0.000  0.00  0.00    -0.241 OA
ATOM      2  C   UNL     1      -1.702   0.037   0.000  0.00  0.00    +0.388 C 
ATOM      3  O   UNL     1      -0.823   0.489   0.000  0.00  0.00    -0.241 OA
ENDBRANCH   4   2
ENDBRANCH  10   8
BRANCH  21  22
ATOM     22  N   UNL     1      -2.118  -1.620   0.000  0.00  0.00    -0.092 NA
BRANCH  22  23
ATOM     23  S   UNL     1      -2.808  -1.014   0.000  0.00  0.00    +0.093 S 
ATOM     24  O   UNL     1      -2.376  -0.176   0.000  0.00  0.00    -0.148 OA
ATOM     25  O   UNL     1      -3.428  -1.744   0.000  0.00  0.00    -0.148 OA
BRANCH  23  26
ATOM     26  C   UNL     1      -3.349  -0.407   0.000  0.00  0.00    +0.127 A 
ATOM     27  C   UNL     1      -4.119  -0.703   0.000  0.00  0.00    +0.020 A 
ATOM     28  C   UNL     1      -4.760  -0.184   0.000  0.00  0.00    +0.001 A 
ATOM     29  C   UNL     1      -4.631   0.631   0.000  0.00  0.00    +0.000 A 
ATOM     30  C   UNL     1      -3.861   0.927   0.000  0.00  0.00    +0.001 A 
ATOM     31  C   UNL     1      -3.220   0.408   0.000  0.00  0.00    +0.020 A 
ENDBRANCH  23  26
ENDBRANCH  22  23
ENDBRANCH  21  22
TORSDOF 5
