MODEL 1
REMARK VINA RESULT:     -10.2      0.000      0.000
REMARK  Name = 
REMARK  3 active torsions:
REMARK  status: ('A' for Active; 'I' for Inactive)
REMARK    1  A    between atoms: C_3  and  C_11
REMARK    2  A    between atoms: N_14  and  C_15
REMARK    3  A    between atoms: C_15  and  C_16
REMARK                            x       y       z     vdW  Elec       q    Type
REMARK                         _______ _______ _______ _____ _____    ______ ____
ROOT
ATOM      1  C   UNL     1      -2.367   0.017  25.019  0.00  0.00    +0.132 C 
ATOM      2  N   UNL     1      -3.015  -0.275  24.601  0.00  0.00    -0.313 N 
ATOM      3  C   UNL     1      -3.557   0.175  24.170  0.00  0.00    +0.121 A 
ATOM      4  N   UNL     1      -4.113  -0.340  23.844  0.00  0.00    -0.231 NA
ATOM      5  C   UNL     1      -3.915  -1.107  24.073  0.00  0.00    +0.098 A 
ATOM      6  C   UNL     1      -3.237  -1.067  24.541  0.00  0.00    +0.079 A 
ATOM      7  C   UNL     1      -2.909  -1.757  24.851  0.00  0.00    +0.019 A 
ATOM      8  C   UNL     1      -3.258  -2.487  24.695  0.00  0.00    +0.002 A 
ATOM      9  C   UNL     1      -3.937  -2.527  24.227  0.00  0.00    +0.002 A 
ATOM     10  C   UNL     1      -4.265  -1.838  23.916  0.00  0.00    +0.021 A 
ENDROOT
BRANCH   3  11
ATOM     11  C   UNL     1      -3.544   0.995  24.082  0.00  0.00    +0.074 C 
ATOM     12  C   UNL     1      -3.132   1.414  23.504  0.00  0.00    +0.026 C 
ATOM     13  C   UNL     1      -3.275   2.219  23.620  0.00  0.00    +0.073 C 
ATOM     14  N   UNL     1      -3.776   2.296  24.271  0.00  0.00    -0.272 NA
ATOM     19  C   UNL     1      -3.943   1.540  24.556  0.00  0.00    +0.080 C 
BRANCH  14  15
ATOM     15  C   UNL     1      -4.061   3.005  24.581  0.00  0.00    +0.072 C 
BRANCH  15  16
ATOM     16  C   UNL     1      -3.587   3.455  25.084  0.00  0.00    +0.016 C 
ATOM     17  C   UNL     1      -3.437   3.774  25.831  0.00  0.00    +0.001 C 
ATOM     18  C   UNL     1      -2.915   3.917  25.208  0.00  0.00    +0.001 C 
ENDBRANCH  15  16
ENDBRANCH  14  15
ENDBRANCH   3  11
TORSDOF 3
ENDMDL
MODEL 2
REMARK VINA RESULT:     -10.2      1.136      1.962
REMARK  Name = 
REMARK  3 active torsions:
REMARK  status: ('A' for Active; 'I' for Inactive)
REMARK    1  A    between atoms: C_3  and  C_11
REMARK    2  A    between atoms: N_14  and  C_15
REMARK    3  A    between atoms: C_15  and  C_16
REMARK                            x       y       z     vdW  Elec       q    Type
REMARK                         _______ _______ _______ _____ _____    ______ ____
ROOT
ATOM      1  C   UNL     1      -2.828   1.551  23.350  0.00  0.00    +0.132 C 
ATOM      2  N   UNL     1      -3.294   1.278  23.973  0.00  0.00    -0.313 N 
ATOM      3  C   UNL     1      -3.571   1.731  24.606  0.00  0.00    +0.121 A 
ATOM      4  N   UNL     1      -4.013   1.238  25.097  0.00  0.00    -0.231 NA
ATOM      5  C   UNL     1      -4.009   0.481  24.770  0.00  0.00    +0.098 A 
ATOM      6  C   UNL     1      -3.565   0.506  24.075  0.00  0.00    +0.079 A 
ATOM      7  C   UNL     1      -3.465  -0.178  23.625  0.00  0.00    +0.019 A 
ATOM      8  C   UNL     1      -3.809  -0.887  23.869  0.00  0.00    +0.002 A 
ATOM      9  C   UNL     1      -4.253  -0.912  24.564  0.00  0.00    +0.002 A 
ATOM     10  C   UNL     1      -4.354  -0.228  25.014  0.00  0.00    +0.021 A 
ENDROOT
BRANCH   3  11
ATOM     11  C   UNL     1      -3.431   2.535  24.725  0.00  0.00    +0.074 C 
ATOM     12  C   UNL     1      -3.805   3.156  24.332  0.00  0.00    +0.026 C 
ATOM     13  C   UNL     1      -3.496   3.865  24.622  0.00  0.00    +0.073 C 
ATOM     14  N   UNL     1      -2.931   3.681  25.194  0.00  0.00    -0.272 NA
ATOM     19  C   UNL     1      -2.890   2.859  25.258  0.00  0.00    +0.080 C 
BRANCH  14  15
ATOM     15  C   UNL     1      -2.485   4.223  25.627  0.00  0.00    +0.072 C 
BRANCH  15  16
ATOM     16  C   UNL     1      -1.787   4.529  25.312  0.00  0.00    +0.016 C 
ATOM     17  C   UNL     1      -1.352   5.170  25.027  0.00  0.00    +0.001 C 
ATOM     18  C   UNL     1      -1.013   4.417  25.050  0.00  0.00    +0.001 C 
ENDBRANCH  15  16
ENDBRANCH  14  15
ENDBRANCH   3  11
TORSDOF 3
ENDMDL
MODEL 3
REMARK VINA RESULT:     -10.1      1.121      4.181
REMARK  Name = 
REMARK  3 active torsions:
REMARK  status: ('A' for Active; 'I' for Inactive)
REMARK    1  A    between atoms: C_3  and  C_11
REMARK    2  A    between atoms: N_14  and  C_15
REMARK    3  A    between atoms: C_15  and  C_16
REMARK                            x       y       z     vdW  Elec       q    Type
REMARK                         _______ _______ _______ _____ _____    ______ ____
ROOT
ATOM      1  C   UNL     1      -3.370   1.208  23.959  0.00  0.00    +0.132 C 
ATOM      2  N   UNL     1      -4.017   1.226  24.469  0.00  0.00    -0.313 N 
ATOM      3  C   UNL     1      -4.399   0.569  24.792  0.00  0.00    +0.121 A 
ATOM      4  N   UNL     1      -5.014   0.841  25.269  0.00  0.00    -0.231 NA
ATOM      5  C   UNL     1      -5.013   1.665  25.241  0.00  0.00    +0.098 A 
ATOM      6  C   UNL     1      -4.397   1.903  24.747  0.00  0.00    +0.079 A 
ATOM      7  C   UNL     1      -4.262   2.706  24.613  0.00  0.00    +0.019 A 
ATOM      8  C   UNL     1      -4.742   3.271  24.974  0.00  0.00    +0.002 A 
ATOM      9  C   UNL     1      -5.358   3.033  25.468  0.00  0.00    +0.002 A 
ATOM     10  C   UNL     1      -5.494   2.231  25.602  0.00  0.00    +0.021 A 
ENDROOT
BRANCH   3  11
ATOM     11  C   UNL     1      -4.199  -0.221  24.661  0.00  0.00    +0.074 C 
ATOM     12  C   UNL     1      -4.444  -0.683  24.024  0.00  0.00    +0.026 C 
ATOM     13  C   UNL     1      -4.116  -1.435  24.114  0.00  0.00    +0.073 C 
ATOM     14  N   UNL     1      -3.668  -1.437  24.806  0.00  0.00    -0.272 NA
ATOM     19  C   UNL     1      -3.719  -0.686  25.145  0.00  0.00    +0.080 C 
BRANCH  14  15
ATOM     15  C   UNL     1      -3.243  -2.077  25.108  0.00  0.00    +0.072 C 
BRANCH  15  16
ATOM     16  C   UNL     1      -2.486  -2.240  24.824  0.00  0.00    +0.016 C 
ATOM     17  C   UNL     1      -1.988  -2.653  24.312  0.00  0.00    +0.001 C 
ATOM     18  C   UNL     1      -1.672  -2.109  24.846  0.00  0.00    +0.001 C 
ENDBRANCH  15  16
ENDBRANCH  14  15
ENDBRANCH   3  11
TORSDOF 3
ENDMDL
MODEL 4
REMARK VINA RESULT:      -9.8      1.208      4.471
REMARK  Name = 
REMARK  3 active torsions:
REMARK  status: ('A' for Active; 'I' for Inactive)
REMARK    1  A    between atoms: C_3  and  C_11
REMARK    2  A    between atoms: N_14  and  C_15
REMARK    3  A    between atoms: C_15  and  C_16
REMARK                            x       y       z     vdW  Elec       q    Type
REMARK                         _______ _______ _______ _____ _____    ______ ____
ROOT
ATOM      1  C   UNL     1      -3.743   3.333  24.691  0.00  0.00    +0.132 C 
ATOM      2  N   UNL     1      -2.946   3.126  24.732  0.00  0.00    -0.313 N 
ATOM      3  C   UNL     1      -2.634   2.370  24.617  0.00  0.00    +0.121 A 
ATOM      4  N   UNL     1      -1.816   2.415  24.709  0.00  0.00    -0.231 NA
ATOM      5  C   UNL     1      -1.621   3.198  24.881  0.00  0.00    +0.098 A 
ATOM      6  C   UNL     1      -2.320   3.637  24.895  0.00  0.00    +0.079 A 
ATOM      7  C   UNL     1      -2.294   4.446  25.055  0.00  0.00    +0.019 A 
ATOM      8  C   UNL     1      -1.572   4.816  25.201  0.00  0.00    +0.002 A 
ATOM      9  C   UNL     1      -0.874   4.377  25.186  0.00  0.00    +0.002 A 
ATOM     10  C   UNL     1      -0.898   3.568  25.027  0.00  0.00    +0.021 A 
ENDROOT
BRANCH   3  11
ATOM     11  C   UNL     1      -3.066   1.690  24.440  0.00  0.00    +0.074 C 
ATOM     12  C   UNL     1      -3.209   1.388  23.686  0.00  0.00    +0.026 C 
ATOM     13  C   UNL     1      -3.662   0.703  23.767  0.00  0.00    +0.073 C 
ATOM     14  N   UNL     1      -3.799   0.581  24.571  0.00  0.00    -0.272 NA
ATOM     19  C   UNL     1      -3.430   1.191  24.988  0.00  0.00    +0.080 C 
BRANCH  14  15
ATOM     15  C   UNL     1      -4.228  -0.041  24.902  0.00  0.00    +0.072 C 
BRANCH  15  16
ATOM     16  C   UNL     1      -3.912  -0.802  24.908  0.00  0.00    +0.016 C 
ATOM     17  C   UNL     1      -3.789  -1.529  24.536  0.00  0.00    +0.001 C 
ATOM     18  C   UNL     1      -3.488  -1.396  25.293  0.00  0.00    +0.001 C 
ENDBRANCH  15  16
ENDBRANCH  14  15
ENDBRANCH   3  11
TORSDOF 3
ENDMDL
MODEL 5
REMARK VINA RESULT:      -9.7      1.482      2.020
REMARK  Name = 
REMARK  3 active torsions:
REMARK  status: ('A' for Active; 'I' for Inactive)
REMARK    1  A    between atoms: C_3  and  C_11
REMARK    2  A    between atoms: N_14  and  C_15
REMARK    3  A    between atoms: C_15  and  C_16
REMARK                            x       y       z     vdW  Elec       q    Type
REMARK                         _______ _______ _______ _____ _____    ______ ____
ROOT
ATOM      1  C   UNL     1      -3.251   1.324  23.663  0.00  0.00    +0.132 C 
ATOM      2  N   UNL     1      -2.976   0.759  24.196  0.00  0.00    -0.313 N 
ATOM      3  C   UNL     1      -2.319   0.837  24.690  0.00  0.00    +0.121 A 
ATOM      4  N   UNL     1      -2.246   0.142  25.128  0.00  0.00    -0.231 NA
ATOM      5  C   UNL     1      -2.857  -0.365  24.906  0.00  0.00    +0.098 A 
ATOM      6  C   UNL     1      -3.308   0.016  24.329  0.00  0.00    +0.079 A 
ATOM      7  C   UNL     1      -3.963  -0.363  24.001  0.00  0.00    +0.019 A 
ATOM      8  C   UNL     1      -4.167  -1.123  24.248  0.00  0.00    +0.002 A 
ATOM      9  C   UNL     1      -3.717  -1.504  24.825  0.00  0.00    +0.002 A 
ATOM     10  C   UNL     1      -3.061  -1.126  25.154  0.00  0.00    +0.021 A 
ENDROOT
BRANCH   3  11
ATOM     11  C   UNL     1      -1.823   1.494  24.737  0.00  0.00    +0.074 C 
ATOM     12  C   UNL     1      -1.232   1.695  24.198  0.00  0.00    +0.026 C 
ATOM     13  C   UNL     1      -0.874   2.392  24.459  0.00  0.00    +0.073 C 
ATOM     14  N   UNL     1      -1.245   2.621  25.159  0.00  0.00    -0.272 NA
ATOM     19  C   UNL     1      -1.832   2.067  25.331  0.00  0.00    +0.080 C 
BRANCH  14  15
ATOM     15  C   UNL     1      -1.062   3.288  25.609  0.00  0.00    +0.072 C 
BRANCH  15  16
ATOM     16  C   UNL     1      -1.344   4.029  25.382  0.00  0.00    +0.016 C 
ATOM     17  C   UNL     1      -1.948   4.592  25.373  0.00  0.00    +0.001 C 
ATOM     18  C   UNL     1      -1.230   4.750  24.999  0.00  0.00    +0.001 C 
ENDBRANCH  15  16
ENDBRANCH  14  15
ENDBRANCH   3  11
TORSDOF 3
ENDMDL
