MODEL 1
REMARK VINA RESULT:     -12.1      0.000      0.000
REMARK  Name = 
REMARK  5 active torsions:
REMARK  status: ('A' for Active; 'I' for Inactive)
REMARK    1  A    between atoms: C_2  and  C_20
REMARK    2  A    between atoms: C_9  and  N_10
REMARK    3  A    between atoms: C_20  and  C_22
REMARK    4  A    between atoms: N_24  and  C_25
REMARK    5  A    between atoms: C_25  and  C_26
REMARK                            x       y       z     vdW  Elec       q    Type
REMARK                         _______ _______ _______ _____ _____    ______ ____
ROOT
ATOM      1  C   UNL     1      -3.948   1.730  24.329  0.00  0.00    +0.052 C 
ATOM      2  C   UNL     1      -4.605   1.554  24.794  0.00  0.00    -0.001 C 
ATOM      3  C   UNL     1      -4.689   0.802  25.122  0.00  0.00    -0.000 C 
ATOM      4  C   UNL     1      -4.115   0.225  24.983  0.00  0.00    -0.001 C 
ATOM      5  C   UNL     1      -4.773   0.049  25.449  0.00  0.00    -0.000 C 
ATOM      6  C   UNL     1      -4.200  -0.527  25.311  0.00  0.00    +0.002 C 
ATOM      7  C   UNL     1      -3.626  -1.104  25.173  0.00  0.00    +0.022 C 
ATOM      8  C   UNL     1      -2.967  -0.928  24.707  0.00  0.00    +0.095 C 
ATOM     13  C   UNL     1      -2.884  -0.175  24.380  0.00  0.00    +0.019 C 
ATOM     14  C   UNL     1      -2.226  -0.000  23.914  0.00  0.00    +0.002 C 
ATOM     15  C   UNL     1      -3.458   0.401  24.518  0.00  0.00    +0.045 C 
ATOM     16  C   UNL     1      -3.373   1.153  24.190  0.00  0.00    +0.145 C 
ATOM     17  O   UNL     1      -2.715   1.329  23.724  0.00  0.00    -0.224 OA
ENDROOT
BRANCH   8   9
ATOM      9  N   UNL     1      -2.394  -1.504  24.569  0.00  0.00    -0.207 NA
ATOM     10  C   UNL     1      -2.611  -2.299  24.523  0.00  0.00    +0.242 C 
ATOM     11  C   UNL     1      -2.037  -2.876  24.385  0.00  0.00    +0.096 C 
ATOM     12  O   UNL     1      -3.402  -2.517  24.614  0.00  0.00    -0.273 OA
ENDBRANCH   8   9
BRANCH   1  18
ATOM     18  C   UNL     1      -3.863   2.483  24.000  0.00  0.00    +0.077 C 
ATOM     19  C   UNL     1      -3.933   2.587  23.185  0.00  0.00    +0.009 C 
BRANCH  18  20
ATOM     20  C   UNL     1      -3.708   3.130  24.487  0.00  0.00    +0.241 C 
ATOM     21  O   UNL     1      -4.325   3.496  24.896  0.00  0.00    -0.273 OA
ATOM     22  N   UNL     1      -2.937   3.413  24.565  0.00  0.00    -0.201 NA
BRANCH  22  23
ATOM     23  C   UNL     1      -2.782   4.060  25.051  0.00  0.00    +0.143 C 
BRANCH  23  24
ATOM     24  C   UNL     1      -2.031   4.402  25.057  0.00  0.00    +0.019 A 
ATOM     25  C   UNL     1      -1.361   3.927  25.124  0.00  0.00    +0.001 A 
ATOM     26  C   UNL     1      -0.610   4.269  25.130  0.00  0.00    +0.020 A 
ATOM     27  C   UNL     1      -0.530   5.088  25.069  0.00  0.00    +0.099 A 
ATOM     28  N   UNL     1      -1.201   5.565  25.002  0.00  0.00    -0.243 NA
ATOM     29  C   UNL     1      -1.951   5.221  24.996  0.00  0.00    +0.096 A 
ENDBRANCH  23  24
ENDBRANCH  22  23
ENDBRANCH  18  20
ENDBRANCH   1  18
TORSDOF 5
ENDMDL
MODEL 2
REMARK VINA RESULT:     -12.0      1.263      5.029
REMARK  Name = 
REMARK  5 active torsions:
REMARK  status: ('A' for Active; 'I' for Inactive)
REMARK    1  A    between atoms: C_2  and  C_20
REMARK    2  A    between atoms: C_9  and  N_10
REMARK    3  A    between atoms: C_20  and  C_22
REMARK    4  A    between atoms: N_24  and  C_25
REMARK    5  A    between atoms: C_25  and  C_26
REMARK                            x       y       z     vdW  Elec       q    Type
REMARK                         _______ _______ _______ _____ _____    ______ ____
ROOT
ATOM      1  C   UNL     1      -4.019   2.128  24.837  0.00  0.00    +0.052 C 
ATOM      2  C   UNL     1      -4.466   2.533  25.399  0.00  0.00    -0.001 C 
ATOM      3  C   UNL     1      -4.154   3.198  25.773  0.00  0.00    -0.000 C 
ATOM      4  C   UNL     1      -3.394   3.460  25.583  0.00  0.00    -0.001 C 
ATOM      5  C   UNL     1      -3.842   3.865  26.147  0.00  0.00    -0.000 C 
ATOM      6  C   UNL     1      -3.083   4.126  25.957  0.00  0.00    +0.002 C 
ATOM      7  C   UNL     1      -2.323   4.387  25.768  0.00  0.00    +0.022 C 
ATOM      8  C   UNL     1      -1.876   3.983  25.205  0.00  0.00    +0.095 C 
ATOM     13  C   UNL     1      -2.188   3.317  24.832  0.00  0.00    +0.019 C 
ATOM     14  C   UNL     1      -1.741   2.913  24.269  0.00  0.00    +0.002 C 
ATOM     15  C   UNL     1      -2.948   3.055  25.021  0.00  0.00    +0.045 C 
ATOM     16  C   UNL     1      -3.259   2.390  24.647  0.00  0.00    +0.145 C 
ATOM     17  O   UNL     1      -2.812   1.985  24.084  0.00  0.00    -0.224 OA
ENDROOT
BRANCH   8   9
ATOM      9  N   UNL     1      -1.117   4.244  25.016  0.00  0.00    -0.207 NA
ATOM     10  C   UNL     1      -0.966   5.052  24.939  0.00  0.00    +0.242 C 
ATOM     11  C   UNL     1      -0.207   5.313  24.749  0.00  0.00    +0.096 C 
ATOM     12  O   UNL     1      -1.575   5.598  25.051  0.00  0.00    -0.273 OA
ENDBRANCH   8   9
BRANCH   1  18
ATOM     18  C   UNL     1      -4.331   1.462  24.463  0.00  0.00    +0.077 C 
ATOM     19  C   UNL     1      -4.536   1.496  23.664  0.00  0.00    +0.009 C 
BRANCH  18  20
ATOM     20  C   UNL     1      -4.438   0.763  24.886  0.00  0.00    +0.241 C 
ATOM     21  O   UNL     1      -5.000   0.727  25.490  0.00  0.00    -0.273 OA
ATOM     22  N   UNL     1      -3.983   0.098  24.707  0.00  0.00    -0.201 NA
BRANCH  22  23
ATOM     23  C   UNL     1      -4.090  -0.602  25.130  0.00  0.00    +0.143 C 
BRANCH  23  24
ATOM     24  C   UNL     1      -3.656  -1.275  24.932  0.00  0.00    +0.019 A 
ATOM     25  C   UNL     1      -3.991  -1.856  24.453  0.00  0.00    +0.001 A 
ATOM     26  C   UNL     1      -3.557  -2.530  24.255  0.00  0.00    +0.020 A 
ATOM     27  C   UNL     1      -2.787  -2.621  24.537  0.00  0.00    +0.099 A 
ATOM     28  N   UNL     1      -2.451  -2.039  25.016  0.00  0.00    -0.243 NA
ATOM     29  C   UNL     1      -2.886  -1.367  25.214  0.00  0.00    +0.096 A 
ENDBRANCH  23  24
ENDBRANCH  22  23
ENDBRANCH  18  20
ENDBRANCH   1  18
TORSDOF 5
ENDMDL
MODEL 3
REMARK VINA RESULT:     -11.9      1.712      5.092
REMARK  Name = 
REMARK  5 active torsions:
REMARK  status: ('A' for Active; 'I' for Inactive)
REMARK    1  A    between atoms: C_2  and  C_20
REMARK    2  A    between atoms: C_9  and  N_10
REMARK    3  A    between atoms: C_20  and  C_22
REMARK    4  A    between atoms: N_24  and  C_25
REMARK    5  A    between atoms: C_25  and  C_26
REMARK                            x       y       z     vdW  Elec       q    Type
REMARK                         _______ _______ _______ _____ _____    ______ ____
ROOT
ATOM      1  C   UNL     1      -1.549   1.747  24.600  0.00  0.00    +0.052 C 
ATOM      2  C   UNL     1      -1.088   2.133  25.164  0.00  0.00    -0.001 C 
ATOM      3  C   UNL     1      -1.393   2.777  25.576  0.00  0.00    -0.000 C 
ATOM      4  C   UNL     1      -2.162   3.038  25.425  0.00  0.00    -0.001 C 
ATOM      5  C   UNL     1      -1.700   3.423  25.990  0.00  0.00    -0.000 C 
ATOM      6  C   UNL     1      -2.468   3.683  25.838  0.00  0.00    +0.002 C 
ATOM      7  C   UNL     1      -3.236   3.943  25.687  0.00  0.00    +0.022 C 
ATOM      8  C   UNL     1      -3.699   3.557  25.122  0.00  0.00    +0.095 C 
ATOM     13  C   UNL     1      -3.392   2.912  24.709  0.00  0.00    +0.019 C 
ATOM     14  C   UNL     1      -3.855   2.527  24.145  0.00  0.00    +0.002 C 
ATOM     15  C   UNL     1      -2.624   2.652  24.861  0.00  0.00    +0.045 C 
ATOM     16  C   UNL     1      -2.318   2.008  24.448  0.00  0.00    +0.145 C 
ATOM     17  O   UNL     1      -2.780   1.622  23.883  0.00  0.00    -0.224 OA
ENDROOT
BRANCH   8   9
ATOM      9  N   UNL     1      -4.466   3.817  24.971  0.00  0.00    -0.207 NA
ATOM     10  C   UNL     1      -5.026   3.826  25.578  0.00  0.00    +0.242 C 
ATOM     11  C   UNL     1      -5.794   4.086  25.426  0.00  0.00    +0.096 C 
ATOM     12  O   UNL     1      -4.817   3.576  26.336  0.00  0.00    -0.273 OA
ENDBRANCH   8   9
BRANCH   1  18
ATOM     18  C   UNL     1      -1.244   1.102  24.186  0.00  0.00    +0.077 C 
ATOM     19  C   UNL     1      -1.057   1.176  23.386  0.00  0.00    +0.009 C 
BRANCH  18  20
ATOM     20  C   UNL     1      -1.125   0.383  24.572  0.00  0.00    +0.241 C 
ATOM     21  O   UNL     1      -0.434   0.257  25.006  0.00  0.00    -0.273 OA
ATOM     22  N   UNL     1      -1.696  -0.211  24.524  0.00  0.00    -0.201 NA
BRANCH  22  23
ATOM     23  C   UNL     1      -1.577  -0.930  24.910  0.00  0.00    +0.143 C 
BRANCH  23  24
ATOM     24  C   UNL     1      -2.167  -1.506  24.901  0.00  0.00    +0.019 A 
ATOM     25  C   UNL     1      -2.836  -1.420  25.374  0.00  0.00    +0.001 A 
ATOM     26  C   UNL     1      -3.427  -1.997  25.365  0.00  0.00    +0.020 A 
ATOM     27  C   UNL     1      -3.346  -2.660  24.881  0.00  0.00    +0.099 A 
ATOM     28  N   UNL     1      -2.676  -2.747  24.407  0.00  0.00    -0.243 NA
ATOM     29  C   UNL     1      -2.087  -2.170  24.417  0.00  0.00    +0.096 A 
ENDBRANCH  23  24
ENDBRANCH  22  23
ENDBRANCH  18  20
ENDBRANCH   1  18
TORSDOF 5
ENDMDL
MODEL 4
REMARK VINA RESULT:     -11.7      1.674      2.449
REMARK  Name = 
REMARK  5 active torsions:
REMARK  status: ('A' for Active; 'I' for Inactive)
REMARK    1  A    between atoms: C_2  and  C_20
REMARK    2  A    between atoms: C_9  and  N_10
REMARK    3  A    between atoms: C_20  and  C_22
REMARK    4  A    between atoms: N_24  and  C_25
REMARK    5  A    between atoms: C_25  and  C_26
REMARK                            x       y       z     vdW  Elec       q    Type
REMARK                         _______ _______ _______ _____ _____    ______ ____
ROOT
ATOM      1  C   UNL     1      -0.899   0.682  24.850  0.00  0.00    +0.052 C 
ATOM      2  C   UNL     1      -0.684   0.307  25.553  0.00  0.00    -0.001 C 
ATOM      3  C   UNL     1      -1.152  -0.299  25.857  0.00  0.00    -0.000 C 
ATOM      4  C   UNL     1      -1.836  -0.532  25.457  0.00  0.00    -0.001 C 
ATOM      5  C   UNL     1      -1.621  -0.907  26.161  0.00  0.00    -0.000 C 
ATOM      6  C   UNL     1      -2.305  -1.140  25.762  0.00  0.00    +0.002 C 
ATOM      7  C   UNL     1      -2.988  -1.372  25.363  0.00  0.00    +0.022 C 
ATOM      8  C   UNL     1      -3.204  -0.998  24.659  0.00  0.00    +0.095 C 
ATOM     13  C   UNL     1      -2.735  -0.391  24.356  0.00  0.00    +0.019 C 
ATOM     14  C   UNL     1      -2.950  -0.017  23.653  0.00  0.00    +0.002 C 
ATOM     15  C   UNL     1      -2.051  -0.158  24.755  0.00  0.00    +0.045 C 
ATOM     16  C   UNL     1      -1.583   0.448  24.451  0.00  0.00    +0.145 C 
ATOM     17  O   UNL     1      -1.797   0.823  23.748  0.00  0.00    -0.224 OA
ENDROOT
BRANCH   8   9
ATOM      9  N   UNL     1      -3.886  -1.230  24.261  0.00  0.00    -0.207 NA
ATOM     10  C   UNL     1      -4.019  -2.029  24.100  0.00  0.00    +0.242 C 
ATOM     11  C   UNL     1      -4.702  -2.262  23.701  0.00  0.00    +0.096 C 
ATOM     12  O   UNL     1      -3.467  -2.595  24.339  0.00  0.00    -0.273 OA
ENDBRANCH   8   9
BRANCH   1  18
ATOM     18  C   UNL     1      -0.430   1.289  24.546  0.00  0.00    +0.077 C 
ATOM     19  C   UNL     1      -0.122   1.228  23.783  0.00  0.00    +0.009 C 
BRANCH  18  20
ATOM     20  C   UNL     1      -0.270   1.956  25.003  0.00  0.00    +0.241 C 
ATOM     21  O   UNL     1       0.381   1.961  25.511  0.00  0.00    -0.273 OA
ATOM     22  N   UNL     1      -0.759   2.618  24.954  0.00  0.00    -0.201 NA
BRANCH  22  23
ATOM     23  C   UNL     1      -0.599   3.285  25.411  0.00  0.00    +0.143 C 
BRANCH  23  24
ATOM     24  C   UNL     1      -1.093   3.945  25.367  0.00  0.00    +0.019 A 
ATOM     25  C   UNL     1      -1.858   3.908  25.670  0.00  0.00    +0.001 A 
ATOM     26  C   UNL     1      -2.352   4.568  25.627  0.00  0.00    +0.020 A 
ATOM     27  C   UNL     1      -2.079   5.265  25.279  0.00  0.00    +0.099 A 
ATOM     28  N   UNL     1      -1.312   5.302  24.975  0.00  0.00    -0.243 NA
ATOM     29  C   UNL     1      -0.820   4.641  25.020  0.00  0.00    +0.096 A 
ENDBRANCH  23  24
ENDBRANCH  22  23
ENDBRANCH  18  20
ENDBRANCH   1  18
TORSDOF 5
ENDMDL
MODEL 5
REMARK VINA RESULT:     -11.5      2.106      4.400
REMARK  Name = 
REMARK  5 active torsions:
REMARK  status: ('A' for Active; 'I' for Inactive)
REMARK    1  A    between atoms: C_2  and  C_20
REMARK    2  A    between atoms: C_9  and  N_10
REMARK    3  A    between atoms: C_20  and  C_22
REMARK    4  A    between atoms: N_24  and  C_25
REMARK    5  A    between atoms: C_25  and  C_26
REMARK                            x       y       z     vdW  Elec       q    Type
REMARK                         _______ _______ _______ _____ _____    ______ ____
ROOT
ATOM      1  C   UNL     1      -1.728   3.042  24.827  0.00  0.00    +0.052 C 
ATOM      2  C   UNL     1      -1.687   3.543  25.480  0.00  0.00    -0.001 C 
ATOM      3  C   UNL     1      -2.378   3.787  25.857  0.00  0.00    -0.000 C 
ATOM      4  C   UNL     1      -3.112   3.531  25.580  0.00  0.00    -0.001 C 
ATOM      5  C   UNL     1      -3.070   4.032  26.235  0.00  0.00    -0.000 C 
ATOM      6  C   UNL     1      -3.804   3.776  25.958  0.00  0.00    +0.002 C 
ATOM      7  C   UNL     1      -4.537   3.519  25.681  0.00  0.00    +0.022 C 
ATOM      8  C   UNL     1      -4.579   3.018  25.026  0.00  0.00    +0.095 C 
ATOM     13  C   UNL     1      -3.887   2.773  24.650  0.00  0.00    +0.019 C 
ATOM     14  C   UNL     1      -3.930   2.272  23.996  0.00  0.00    +0.002 C 
ATOM     15  C   UNL     1      -3.154   3.030  24.927  0.00  0.00    +0.045 C 
ATOM     16  C   UNL     1      -2.463   2.785  24.549  0.00  0.00    +0.145 C 
ATOM     17  O   UNL     1      -2.504   2.284  23.895  0.00  0.00    -0.224 OA
ENDROOT
BRANCH   8   9
ATOM      9  N   UNL     1      -5.312   2.761  24.750  0.00  0.00    -0.207 NA
ATOM     10  C   UNL     1      -5.832   2.371  25.259  0.00  0.00    +0.242 C 
ATOM     11  C   UNL     1      -6.566   2.115  24.982  0.00  0.00    +0.096 C 
ATOM     12  O   UNL     1      -5.618   2.238  26.045  0.00  0.00    -0.273 OA
ENDBRANCH   8   9
BRANCH   1  18
ATOM     18  C   UNL     1      -1.037   2.797  24.449  0.00  0.00    +0.077 C 
ATOM     19  C   UNL     1      -0.818   3.136  23.729  0.00  0.00    +0.009 C 
BRANCH  18  20
ATOM     20  C   UNL     1      -0.564   2.214  24.790  0.00  0.00    +0.241 C 
ATOM     21  O   UNL     1       0.050   2.427  25.300  0.00  0.00    -0.273 OA
ATOM     22  N   UNL     1      -0.704   1.418  24.623  0.00  0.00    -0.201 NA
BRANCH  22  23
ATOM     23  C   UNL     1      -0.231   0.836  24.965  0.00  0.00    +0.143 C 
BRANCH  23  24
ATOM     24  C   UNL     1      -0.455   0.043  24.918  0.00  0.00    +0.019 A 
ATOM     25  C   UNL     1      -0.900  -0.297  25.523  0.00  0.00    +0.001 A 
ATOM     26  C   UNL     1      -1.123  -1.090  25.476  0.00  0.00    +0.020 A 
ATOM     27  C   UNL     1      -0.900  -1.543  24.824  0.00  0.00    +0.099 A 
ATOM     28  N   UNL     1      -0.455  -1.203  24.218  0.00  0.00    -0.243 NA
ATOM     29  C   UNL     1      -0.232  -0.410  24.265  0.00  0.00    +0.096 A 
ENDBRANCH  23  24
ENDBRANCH  22  23
ENDBRANCH  18  20
ENDBRANCH   1  18
TORSDOF 5
ENDMDL
MODEL 6
REMARK VINA RESULT:     -11.1      2.078      3.232
REMARK  Name = 
REMARK  5 active torsions:
REMARK  status: ('A' for Active; 'I' for Inactive)
REMARK    1  A    between atoms: C_2  and  C_20
REMARK    2  A    between atoms: C_9  and  N_10
REMARK    3  A    between atoms: C_20  and  C_22
REMARK    4  A    between atoms: N_24  and  C_25
REMARK    5  A    between atoms: C_25  and  C_26
REMARK                            x       y       z     vdW  Elec       q    Type
REMARK                         _______ _______ _______ _____ _____    ______ ____
ROOT
ATOM      1  C   UNL     1      -0.366   1.819  25.129  0.00  0.00    +0.052 C 
ATOM      2  C   UNL     1       0.038   1.844  24.410  0.00  0.00    -0.001 C 
ATOM      3  C   UNL     1       0.124   1.158  23.961  0.00  0.00    -0.000 C 
ATOM      4  C   UNL     1      -0.194   0.445  24.231  0.00  0.00    -0.001 C 
ATOM      5  C   UNL     1       0.210   0.471  23.512  0.00  0.00    -0.000 C 
ATOM      6  C   UNL     1      -0.107  -0.241  23.781  0.00  0.00    +0.002 C 
ATOM      7  C   UNL     1      -0.425  -0.953  24.051  0.00  0.00    +0.022 C 
ATOM      8  C   UNL     1      -0.829  -0.979  24.771  0.00  0.00    +0.095 C 
ATOM     13  C   UNL     1      -0.915  -0.292  25.219  0.00  0.00    +0.019 C 
ATOM     14  C   UNL     1      -1.319  -0.318  25.938  0.00  0.00    +0.002 C 
ATOM     15  C   UNL     1      -0.597   0.420  24.950  0.00  0.00    +0.045 C 
ATOM     16  C   UNL     1      -0.684   1.106  25.399  0.00  0.00    +0.145 C 
ATOM     17  O   UNL     1      -1.088   1.081  26.118  0.00  0.00    -0.224 OA
ENDROOT
BRANCH   8   9
ATOM      9  N   UNL     1      -1.146  -1.690  25.040  0.00  0.00    -0.207 NA
ATOM     10  C   UNL     1      -1.661  -2.121  24.559  0.00  0.00    +0.242 C 
ATOM     11  C   UNL     1      -1.979  -2.833  24.829  0.00  0.00    +0.096 C 
ATOM     12  O   UNL     1      -1.858  -1.839  23.809  0.00  0.00    -0.273 OA
ENDBRANCH   8   9
BRANCH   1  18
ATOM     18  C   UNL     1      -0.453   2.505  25.578  0.00  0.00    +0.077 C 
ATOM     19  C   UNL     1      -0.077   2.569  26.310  0.00  0.00    +0.009 C 
BRANCH  18  20
ATOM     20  C   UNL     1      -0.915   3.128  25.297  0.00  0.00    +0.241 C 
ATOM     21  O   UNL     1      -0.570   3.725  24.842  0.00  0.00    -0.273 OA
ATOM     22  N   UNL     1      -1.721   3.155  25.470  0.00  0.00    -0.201 NA
BRANCH  22  23
ATOM     23  C   UNL     1      -2.183   3.777  25.189  0.00  0.00    +0.143 C 
BRANCH  23  24
ATOM     24  C   UNL     1      -3.006   3.733  25.232  0.00  0.00    +0.019 A 
ATOM     25  C   UNL     1      -3.443   3.518  24.567  0.00  0.00    +0.001 A 
ATOM     26  C   UNL     1      -4.266   3.474  24.610  0.00  0.00    +0.020 A 
ATOM     27  C   UNL     1      -4.651   3.646  25.319  0.00  0.00    +0.099 A 
ATOM     28  N   UNL     1      -4.214   3.861  25.985  0.00  0.00    -0.243 NA
ATOM     29  C   UNL     1      -3.391   3.905  25.941  0.00  0.00    +0.096 A 
ENDBRANCH  23  24
ENDBRANCH  22  23
ENDBRANCH  18  20
ENDBRANCH   1  18
TORSDOF 5
ENDMDL
