MODEL 1
REMARK VINA RESULT:     -13.7      0.000      0.000
REMARK  Name = 
REMARK  5 active torsions:
REMARK  status: ('A' for Active; 'I' for Inactive)
REMARK    1  A    between atoms: C_3  and  N_4
REMARK    2  A    between atoms: N_7  and  C_8
REMARK    3  A    between atoms: C_20  and  N_21
REMARK    4  A    between atoms: C_24  and  C_25
REMARK    5  A    between atoms: C_25  and  C_26
REMARK                            x       y       z     vdW  Elec       q    Type
REMARK                         _______ _______ _______ _____ _____    ______ ____
ROOT
ATOM      1  O   UNL     1      -2.933   0.895  25.298  0.00  0.00    -0.220 OA
ATOM      2  C   UNL     1      -3.509   1.483  25.255  0.00  0.00    +0.194 C 
ATOM      3  C   UNL     1      -3.878   2.219  25.354  0.00  0.00    +0.158 C 
ATOM     15  C   UNL     1      -4.686   2.028  24.936  0.00  0.00    +0.170 C 
ATOM     16  C   UNL     1      -4.751   1.306  24.654  0.00  0.00    +0.176 C 
ATOM     17  O   UNL     1      -5.178   0.837  24.303  0.00  0.00    -0.327 OA
ATOM     18  C   UNL     1      -4.940   1.601  24.676  0.00  0.00    +0.253 C 
ATOM     19  O   UNL     1      -5.309   2.332  24.773  0.00  0.00    -0.327 OA
ATOM     20  C   UNL     1      -4.091   1.785  25.109  0.00  0.00    +0.147 C 
ENDROOT
BRANCH  20  21
ATOM     21  N   UNL     1      -4.100   1.008  24.831  0.00  0.00    -0.268 NA
ATOM     22  C   UNL     1      -4.402   0.404  25.305  0.00  0.00    +0.072 C 
ATOM     23  C   UNL     1      -4.412  -0.373  25.028  0.00  0.00    +0.018 C 
ATOM     24  C   UNL     1      -4.120  -0.545  24.276  0.00  0.00    +0.007 C 
ATOM     32  C   UNL     1      -3.818   0.058  23.802  0.00  0.00    +0.018 C 
ATOM     33  C   UNL     1      -3.808   0.835  24.080  0.00  0.00    +0.072 C 
BRANCH  24  25
ATOM     25  C   UNL     1      -4.129  -1.322  23.997  0.00  0.00    +0.026 C 
BRANCH  25  26
ATOM     26  C   UNL     1      -3.576  -1.868  24.275  0.00  0.00    -0.022 A 
ATOM     27  C   UNL     1      -2.811  -1.872  23.968  0.00  0.00    -0.004 A 
ATOM     28  C   UNL     1      -2.258  -2.418  24.245  0.00  0.00    -0.000 A 
ATOM     29  C   UNL     1      -2.471  -2.959  24.830  0.00  0.00    -0.000 A 
ATOM     30  C   UNL     1      -3.237  -2.955  25.137  0.00  0.00    -0.000 A 
ATOM     31  C   UNL     1      -3.789  -2.409  24.860  0.00  0.00    -0.004 A 
ENDBRANCH  25  26
ENDBRANCH  24  25
ENDBRANCH  20  21
BRANCH   3   4
ATOM      4  N   UNL     1      -3.608   2.911  25.715  0.00  0.00    -0.183 NA
ATOM      5  C   UNL     1      -2.959   3.313  25.402  0.00  0.00    +0.344 C 
ATOM      6  O   UNL     1      -2.579   3.023  24.729  0.00  0.00    -0.249 OA
ATOM      7  N   UNL     1      -2.690   4.004  25.762  0.00  0.00    -0.161 NA
BRANCH   7   8
ATOM      8  C   UNL     1      -2.041   4.406  25.449  0.00  0.00    +0.075 A 
ATOM      9  C   UNL     1      -1.304   4.037  25.417  0.00  0.00    +0.019 A 
ATOM     10  C   UNL     1      -0.654   4.439  25.105  0.00  0.00    +0.031 A 
ATOM     11  C   UNL     1      -0.742   5.210  24.824  0.00  0.00    +0.140 A 
ATOM     12  F   UNL     1      -0.092   5.612  24.512  0.00  0.00    -0.204 F 
ATOM     13  C   UNL     1      -1.479   5.579  24.857  0.00  0.00    +0.031 A 
ATOM     14  C   UNL     1      -2.128   5.178  25.169  0.00  0.00    +0.019 A 
ENDBRANCH   7   8
ENDBRANCH   3   4
TORSDOF 5
ENDMDL
MODEL 2
REMARK VINA RESULT:     -13.5      1.824      5.331
REMARK  Name = 
REMARK  5 active torsions:
REMARK  status: ('A' for Active; 'I' for Inactive)
REMARK    1  A    between atoms: C_3  and  N_4
REMARK    2  A    between atoms: N_7  and  C_8
REMARK    3  A    between atoms: C_20  and  N_21
REMARK    4  A    between atoms: C_24  and  C_25
REMARK    5  A    between atoms: C_25  and  C_26
REMARK                            x       y       z     vdW  Elec       q    Type
REMARK                         _______ _______ _______ _____ _____    ______ ____
ROOT
ATOM      1  O   UNL     1      -3.125   2.112  24.472  0.00  0.00    -0.220 OA
ATOM      2  C   UNL     1      -3.911   1.955  24.668  0.00  0.00    +0.194 C 
ATOM      3  C   UNL     1      -4.636   1.555  24.714  0.00  0.00    +0.158 C 
ATOM     15  C   UNL     1      -5.110   2.181  25.210  0.00  0.00    +0.170 C 
ATOM     16  C   UNL     1      -4.712   2.821  25.404  0.00  0.00    +0.176 C 
ATOM     17  O   UNL     1      -4.736   3.459  25.748  0.00  0.00    -0.327 OA
ATOM     18  C   UNL     1      -5.032   2.685  25.446  0.00  0.00    +0.253 C 
ATOM     19  O   UNL     1      -5.754   2.288  25.494  0.00  0.00    -0.327 OA
ATOM     20  C   UNL     1      -4.524   2.040  24.929  0.00  0.00    +0.147 C 
ENDROOT
BRANCH  20  21
ATOM     21  N   UNL     1      -4.051   2.693  25.104  0.00  0.00    -0.268 NA
ATOM     22  C   UNL     1      -3.989   3.314  24.564  0.00  0.00    +0.072 C 
ATOM     23  C   UNL     1      -3.516   3.967  24.740  0.00  0.00    +0.018 C 
ATOM     24  C   UNL     1      -3.106   3.999  25.455  0.00  0.00    +0.007 C 
ATOM     32  C   UNL     1      -3.168   3.378  25.994  0.00  0.00    +0.018 C 
ATOM     33  C   UNL     1      -3.641   2.725  25.819  0.00  0.00    +0.072 C 
BRANCH  24  25
ATOM     25  C   UNL     1      -2.633   4.652  25.631  0.00  0.00    +0.026 C 
BRANCH  25  26
ATOM     26  C   UNL     1      -1.865   4.698  25.334  0.00  0.00    -0.022 A 
ATOM     27  C   UNL     1      -1.301   4.141  25.559  0.00  0.00    -0.004 A 
ATOM     28  C   UNL     1      -0.533   4.187  25.262  0.00  0.00    -0.000 A 
ATOM     29  C   UNL     1      -0.329   4.793  24.739  0.00  0.00    -0.000 A 
ATOM     30  C   UNL     1      -0.893   5.351  24.514  0.00  0.00    -0.000 A 
ATOM     31  C   UNL     1      -1.661   5.304  24.812  0.00  0.00    -0.004 A 
ENDBRANCH  25  26
ENDBRANCH  24  25
ENDBRANCH  20  21
BRANCH   3   4
ATOM      4  N   UNL     1      -4.866   0.822  24.411  0.00  0.00    -0.183 NA
ATOM      5  C   UNL     1      -4.423   0.147  24.583  0.00  0.00    +0.344 C 
ATOM      6  O   UNL     1      -3.750   0.206  25.058  0.00  0.00    -0.249 OA
ATOM      7  N   UNL     1      -4.653  -0.585  24.281  0.00  0.00    -0.161 NA
BRANCH   7   8
ATOM      8  C   UNL     1      -4.210  -1.259  24.453  0.00  0.00    +0.075 A 
ATOM      9  C   UNL     1      -4.050  -1.810  23.860  0.00  0.00    +0.019 A 
ATOM     10  C   UNL     1      -3.607  -2.484  24.032  0.00  0.00    +0.031 A 
ATOM     11  C   UNL     1      -3.325  -2.609  24.797  0.00  0.00    +0.140 A 
ATOM     12  F   UNL     1      -2.882  -3.283  24.969  0.00  0.00    -0.204 F 
ATOM     13  C   UNL     1      -3.485  -2.058  25.390  0.00  0.00    +0.031 A 
ATOM     14  C   UNL     1      -3.927  -1.384  25.218  0.00  0.00    +0.019 A 
ENDBRANCH   7   8
ENDBRANCH   3   4
TORSDOF 5
ENDMDL
MODEL 3
REMARK VINA RESULT:     -12.3      2.309      2.997
REMARK  Name = 
REMARK  5 active torsions:
REMARK  status: ('A' for Active; 'I' for Inactive)
REMARK    1  A    between atoms: C_3  and  N_4
REMARK    2  A    between atoms: N_7  and  C_8
REMARK    3  A    between atoms: C_20  and  N_21
REMARK    4  A    between atoms: C_24  and  C_25
REMARK    5  A    between atoms: C_25  and  C_26
REMARK                            x       y       z     vdW  Elec       q    Type
REMARK                         _______ _______ _______ _____ _____    ______ ____
ROOT
ATOM      1  O   UNL     1      -1.530   0.179  25.678  0.00  0.00    -0.220 OA
ATOM      2  C   UNL     1      -0.911   0.569  25.298  0.00  0.00    +0.194 C 
ATOM      3  C   UNL     1      -0.349   1.155  25.128  0.00  0.00    +0.158 C 
ATOM     15  C   UNL     1       0.050   0.755  24.391  0.00  0.00    +0.170 C 
ATOM     16  C   UNL     1      -0.243   0.064  24.189  0.00  0.00    +0.176 C 
ATOM     17  O   UNL     1      -0.201  -0.492  23.723  0.00  0.00    -0.327 OA
ATOM     18  C   UNL     1       0.007   0.286  24.084  0.00  0.00    +0.253 C 
ATOM     19  O   UNL     1       0.567   0.868  23.913  0.00  0.00    -0.327 OA
ATOM     20  C   UNL     1      -0.421   0.692  24.856  0.00  0.00    +0.147 C 
ENDROOT
BRANCH  20  21
ATOM     21  N   UNL     1      -0.773  -0.036  24.691  0.00  0.00    -0.268 NA
ATOM     22  C   UNL     1      -1.365  -0.087  24.119  0.00  0.00    +0.072 C 
ATOM     23  C   UNL     1      -1.717  -0.815  23.953  0.00  0.00    +0.018 C 
ATOM     24  C   UNL     1      -1.477  -1.491  24.360  0.00  0.00    +0.007 C 
ATOM     32  C   UNL     1      -0.885  -1.440  24.932  0.00  0.00    +0.018 C 
ATOM     33  C   UNL     1      -0.533  -0.713  25.097  0.00  0.00    +0.072 C 
BRANCH  24  25
ATOM     25  C   UNL     1      -1.829  -2.219  24.195  0.00  0.00    +0.026 C 
BRANCH  25  26
ATOM     26  C   UNL     1      -2.624  -2.345  24.376  0.00  0.00    -0.022 A 
ATOM     27  C   UNL     1      -3.205  -2.187  23.814  0.00  0.00    -0.004 A 
ATOM     28  C   UNL     1      -4.000  -2.313  23.995  0.00  0.00    -0.000 A 
ATOM     29  C   UNL     1      -4.213  -2.598  24.740  0.00  0.00    -0.000 A 
ATOM     30  C   UNL     1      -3.631  -2.756  25.303  0.00  0.00    -0.000 A 
ATOM     31  C   UNL     1      -2.836  -2.630  25.121  0.00  0.00    -0.004 A 
ENDBRANCH  25  26
ENDBRANCH  24  25
ENDBRANCH  20  21
BRANCH   3   4
ATOM      4  N   UNL     1      -0.193   1.875  25.501  0.00  0.00    -0.183 NA
ATOM      5  C   UNL     1      -0.622   2.548  25.294  0.00  0.00    +0.344 C 
ATOM      6  O   UNL     1      -1.208   2.502  24.714  0.00  0.00    -0.249 OA
ATOM      7  N   UNL     1      -0.466   3.267  25.666  0.00  0.00    -0.161 NA
BRANCH   7   8
ATOM      8  C   UNL     1      -0.896   3.941  25.459  0.00  0.00    +0.075 A 
ATOM      9  C   UNL     1      -1.657   4.052  25.756  0.00  0.00    +0.019 A 
ATOM     10  C   UNL     1      -2.086   4.725  25.549  0.00  0.00    +0.031 A 
ATOM     11  C   UNL     1      -1.754   5.287  25.044  0.00  0.00    +0.140 A 
ATOM     12  F   UNL     1      -2.184   5.961  24.837  0.00  0.00    -0.204 F 
ATOM     13  C   UNL     1      -0.993   5.175  24.747  0.00  0.00    +0.031 A 
ATOM     14  C   UNL     1      -0.564   4.503  24.954  0.00  0.00    +0.019 A 
ENDBRANCH   7   8
ENDBRANCH   3   4
TORSDOF 5
ENDMDL
MODEL 4
REMARK VINA RESULT:     -12.2      2.951      5.980
REMARK  Name = 
REMARK  5 active torsions:
REMARK  status: ('A' for Active; 'I' for Inactive)
REMARK    1  A    between atoms: C_3  and  N_4
REMARK    2  A    between atoms: N_7  and  C_8
REMARK    3  A    between atoms: C_20  and  N_21
REMARK    4  A    between atoms: C_24  and  C_25
REMARK    5  A    between atoms: C_25  and  C_26
REMARK                            x       y       z     vdW  Elec       q    Type
REMARK                         _______ _______ _______ _____ _____    ______ ____
ROOT
ATOM      1  O   UNL     1      -1.399   1.084  25.680  0.00  0.00    -0.220 OA
ATOM      2  C   UNL     1      -0.905   0.690  25.149  0.00  0.00    +0.194 C 
ATOM      3  C   UNL     1      -0.535   0.066  24.749  0.00  0.00    +0.158 C 
ATOM     15  C   UNL     1       0.005   0.565  24.181  0.00  0.00    +0.170 C 
ATOM     16  C   UNL     1      -0.058   1.336  24.256  0.00  0.00    +0.176 C 
ATOM     17  O   UNL     1       0.173   1.982  24.018  0.00  0.00    -0.327 OA
ATOM     18  C   UNL     1       0.119   1.102  24.065  0.00  0.00    +0.253 C 
ATOM     19  O   UNL     1       0.489   0.482  23.665  0.00  0.00    -0.327 OA
ATOM     20  C   UNL     1      -0.450   0.594  24.665  0.00  0.00    +0.147 C 
ENDROOT
BRANCH  20  21
ATOM     21  N   UNL     1      -0.560   1.402  24.791  0.00  0.00    -0.268 NA
ATOM     22  C   UNL     1      -1.042   1.838  24.282  0.00  0.00    +0.072 C 
ATOM     23  C   UNL     1      -1.152   2.646  24.408  0.00  0.00    +0.018 C 
ATOM     24  C   UNL     1      -0.780   3.018  25.043  0.00  0.00    +0.007 C 
ATOM     32  C   UNL     1      -0.299   2.583  25.552  0.00  0.00    +0.018 C 
ATOM     33  C   UNL     1      -0.189   1.775  25.426  0.00  0.00    +0.072 C 
BRANCH  24  25
ATOM     25  C   UNL     1      -0.890   3.826  25.170  0.00  0.00    +0.026 C 
BRANCH  25  26
ATOM     26  C   UNL     1      -1.633   4.115  25.383  0.00  0.00    -0.022 A 
ATOM     27  C   UNL     1      -2.092   4.519  24.830  0.00  0.00    -0.004 A 
ATOM     28  C   UNL     1      -2.835   4.808  25.043  0.00  0.00    -0.000 A 
ATOM     29  C   UNL     1      -3.119   4.691  25.809  0.00  0.00    -0.000 A 
ATOM     30  C   UNL     1      -2.659   4.286  26.362  0.00  0.00    -0.000 A 
ATOM     31  C   UNL     1      -1.917   3.998  26.149  0.00  0.00    -0.004 A 
ENDBRANCH  25  26
ENDBRANCH  24  25
ENDBRANCH  20  21
BRANCH   3   4
ATOM      4  N   UNL     1      -0.621  -0.751  24.831  0.00  0.00    -0.183 NA
ATOM      5  C   UNL     1      -1.356  -1.104  24.705  0.00  0.00    +0.344 C 
ATOM      6  O   UNL     1      -2.006  -0.638  24.498  0.00  0.00    -0.249 OA
ATOM      7  N   UNL     1      -1.442  -1.919  24.787  0.00  0.00    -0.161 NA
BRANCH   7   8
ATOM      8  C   UNL     1      -2.177  -2.272  24.662  0.00  0.00    +0.075 A 
ATOM      9  C   UNL     1      -2.327  -2.673  23.957  0.00  0.00    +0.019 A 
ATOM     10  C   UNL     1      -3.063  -3.025  23.831  0.00  0.00    +0.031 A 
ATOM     11  C   UNL     1      -3.648  -2.976  24.411  0.00  0.00    +0.140 A 
ATOM     12  F   UNL     1      -4.384  -3.328  24.285  0.00  0.00    -0.204 F 
ATOM     13  C   UNL     1      -3.497  -2.574  25.115  0.00  0.00    +0.031 A 
ATOM     14  C   UNL     1      -2.763  -2.222  25.241  0.00  0.00    +0.019 A 
ENDBRANCH   7   8
ENDBRANCH   3   4
TORSDOF 5
ENDMDL
MODEL 5
REMARK VINA RESULT:     -11.4      2.893      4.589
REMARK  Name = 
REMARK  5 active torsions:
REMARK  status: ('A' for Active; 'I' for Inactive)
REMARK    1  A    between atoms: C_3  and  N_4
REMARK    2  A    between atoms: N_7  and  C_8
REMARK    3  A    between atoms: C_20  and  N_21
REMARK    4  A    between atoms: C_24  and  C_25
REMARK    5  A    between atoms: C_25  and  C_26
REMARK                            x       y       z     vdW  Elec       q    Type
REMARK                         _______ _______ _______ _____ _____    ______ ____
ROOT
ATOM      1  O   UNL     1      -2.258   2.099  25.319  0.00  0.00    -0.220 OA
ATOM      2  C   UNL     1      -1.633   2.632  25.233  0.00  0.00    +0.194 C 
ATOM      3  C   UNL     1      -0.858   2.916  25.167  0.00  0.00    +0.158 C 
ATOM     15  C   UNL     1      -1.047   3.821  25.081  0.00  0.00    +0.170 C 
ATOM     16  C   UNL     1      -1.802   4.005  25.097  0.00  0.00    +0.176 C 
ATOM     17  O   UNL     1      -2.289   4.543  25.064  0.00  0.00    -0.327 OA
ATOM     18  C   UNL     1      -1.491   4.164  25.066  0.00  0.00    +0.253 C 
ATOM     19  O   UNL     1      -0.720   4.449  25.000  0.00  0.00    -0.327 OA
ATOM     20  C   UNL     1      -1.309   3.214  25.157  0.00  0.00    +0.147 C 
ENDROOT
BRANCH  20  21
ATOM     21  N   UNL     1      -2.123   3.347  25.182  0.00  0.00    -0.268 NA
ATOM     22  C   UNL     1      -2.496   3.492  25.903  0.00  0.00    +0.072 C 
ATOM     23  C   UNL     1      -3.310   3.625  25.928  0.00  0.00    +0.018 C 
ATOM     24  C   UNL     1      -3.751   3.612  25.231  0.00  0.00    +0.007 C 
ATOM     32  C   UNL     1      -3.379   3.467  24.509  0.00  0.00    +0.018 C 
ATOM     33  C   UNL     1      -2.565   3.334  24.485  0.00  0.00    +0.072 C 
BRANCH  24  25
ATOM     25  C   UNL     1      -4.565   3.745  25.254  0.00  0.00    +0.026 C 
BRANCH  25  26
ATOM     26  C   UNL     1      -5.086   3.109  25.335  0.00  0.00    -0.022 A 
ATOM     27  C   UNL     1      -5.286   2.654  24.679  0.00  0.00    -0.004 A 
ATOM     28  C   UNL     1      -5.806   2.018  24.759  0.00  0.00    -0.000 A 
ATOM     29  C   UNL     1      -6.126   1.840  25.499  0.00  0.00    -0.000 A 
ATOM     30  C   UNL     1      -5.926   2.296  26.156  0.00  0.00    -0.000 A 
ATOM     31  C   UNL     1      -5.406   2.931  26.075  0.00  0.00    -0.004 A 
ENDBRANCH  25  26
ENDBRANCH  24  25
ENDBRANCH  20  21
BRANCH   3   4
ATOM      4  N   UNL     1      -0.136   2.515  25.175  0.00  0.00    -0.183 NA
ATOM      5  C   UNL     1       0.056   1.998  24.561  0.00  0.00    +0.344 C 
ATOM      6  O   UNL     1      -0.475   1.882  23.939  0.00  0.00    -0.249 OA
ATOM      7  N   UNL     1       0.777   1.598  24.568  0.00  0.00    -0.161 NA
BRANCH   7   8
ATOM      8  C   UNL     1       0.968   1.081  23.954  0.00  0.00    +0.075 A 
ATOM      9  C   UNL     1       1.628   1.229  23.482  0.00  0.00    +0.019 A 
ATOM     10  C   UNL     1       1.819   0.713  22.868  0.00  0.00    +0.031 A 
ATOM     11  C   UNL     1       1.351   0.048  22.726  0.00  0.00    +0.140 A 
ATOM     12  F   UNL     1       1.543  -0.469  22.112  0.00  0.00    -0.204 F 
ATOM     13  C   UNL     1       0.692  -0.099  23.199  0.00  0.00    +0.031 A 
ATOM     14  C   UNL     1       0.500   0.417  23.812  0.00  0.00    +0.019 A 
ENDBRANCH   7   8
ENDBRANCH   3   4
TORSDOF 5
ENDMDL
MODEL 6
REMARK VINA RESULT:     -11.2      4.140      5.668
REMARK  Name = 
REMARK  5 active torsions:
REMARK  status: ('A' for Active; 'I' for Inactive)
REMARK    1  A    between atoms: C_3  and  N_4
REMARK    2  A    between atoms: N_7  and  C_8
REMARK    3  A    between atoms: C_20  and  N_21
REMARK    4  A    between atoms: C_24  and  C_25
REMARK    5  A    between atoms: C_25  and  C_26
REMARK                            x       y       z     vdW  Elec       q    Type
REMARK                         _______ _______ _______ _____ _____    ______ ____
ROOT
ATOM      1  O   UNL     1      -0.168   1.712  23.570  0.00  0.00    -0.220 OA
ATOM      2  C   UNL     1      -0.035   0.899  23.607  0.00  0.00    +0.194 C 
ATOM      3  C   UNL     1       0.299   0.158  23.444  0.00  0.00    +0.158 C 
ATOM     15  C   UNL     1      -0.212  -0.356  24.024  0.00  0.00    +0.170 C 
ATOM     16  C   UNL     1      -0.740   0.037  24.439  0.00  0.00    +0.176 C 
ATOM     17  O   UNL     1      -1.264  -0.009  24.939  0.00  0.00    -0.327 OA
ATOM     18  C   UNL     1      -0.626  -0.292  24.399  0.00  0.00    +0.253 C 
ATOM     19  O   UNL     1      -0.296  -1.031  24.238  0.00  0.00    -0.327 OA
ATOM     20  C   UNL     1      -0.100   0.258  23.796  0.00  0.00    +0.147 C 
ENDROOT
BRANCH  20  21
ATOM     21  N   UNL     1      -0.639   0.729  24.207  0.00  0.00    -0.268 NA
ATOM     22  C   UNL     1      -1.373   0.904  23.872  0.00  0.00    +0.072 C 
ATOM     23  C   UNL     1      -1.912   1.374  24.282  0.00  0.00    +0.018 C 
ATOM     24  C   UNL     1      -1.718   1.670  25.027  0.00  0.00    +0.007 C 
ATOM     32  C   UNL     1      -0.985   1.496  25.362  0.00  0.00    +0.018 C 
ATOM     33  C   UNL     1      -0.446   1.025  24.952  0.00  0.00    +0.072 C 
BRANCH  24  25
ATOM     25  C   UNL     1      -2.257   2.141  25.438  0.00  0.00    +0.026 C 
BRANCH  25  26
ATOM     26  C   UNL     1      -2.256   2.959  25.333  0.00  0.00    -0.022 A 
ATOM     27  C   UNL     1      -1.724   3.429  25.752  0.00  0.00    -0.004 A 
ATOM     28  C   UNL     1      -1.723   4.247  25.647  0.00  0.00    -0.000 A 
ATOM     29  C   UNL     1      -2.256   4.595  25.121  0.00  0.00    -0.000 A 
ATOM     30  C   UNL     1      -2.788   4.125  24.701  0.00  0.00    -0.000 A 
ATOM     31  C   UNL     1      -2.788   3.307  24.807  0.00  0.00    -0.004 A 
ENDBRANCH  25  26
ENDBRANCH  24  25
ENDBRANCH  20  21
BRANCH   3   4
ATOM      4  N   UNL     1       0.902  -0.057  22.923  0.00  0.00    -0.183 NA
ATOM      5  C   UNL     1       1.686   0.128  23.100  0.00  0.00    +0.344 C 
ATOM      6  O   UNL     1       1.867   0.529  23.799  0.00  0.00    -0.249 OA
ATOM      7  N   UNL     1       2.289  -0.087  22.580  0.00  0.00    -0.161 NA
BRANCH   7   8
ATOM      8  C   UNL     1       3.073   0.098  22.758  0.00  0.00    +0.075 A 
ATOM      9  C   UNL     1       3.373   0.843  22.571  0.00  0.00    +0.019 A 
ATOM     10  C   UNL     1       4.157   1.028  22.749  0.00  0.00    +0.031 A 
ATOM     11  C   UNL     1       4.641   0.468  23.114  0.00  0.00    +0.140 A 
ATOM     12  F   UNL     1       5.425   0.654  23.292  0.00  0.00    -0.204 F 
ATOM     13  C   UNL     1       4.340  -0.276  23.301  0.00  0.00    +0.031 A 
ATOM     14  C   UNL     1       3.557  -0.462  23.124  0.00  0.00    +0.019 A 
ENDBRANCH   7   8
ENDBRANCH   3   4
TORSDOF 5
ENDMDL
