MODEL 1
REMARK VINA RESULT:     -13.2      0.000      0.000
REMARK  Name = 
REMARK  6 active torsions:
REMARK  status: ('A' for Active; 'I' for Inactive)
REMARK    1  A    between atoms: N_4  and  C_5
REMARK    2  A    between atoms: C_8  and  C_9
REMARK    3  A    between atoms: C_9  and  N_10
REMARK    4  A    between atoms: C_15  and  C_16
REMARK    5  A    between atoms: C_18  and  C_19
REMARK    6  A    between atoms: C_19  and  C_20
REMARK                            x       y       z     vdW  Elec       q    Type
REMARK                         _______ _______ _______ _____ _____    ______ ____
ROOT
ATOM     10  N   UNL     1      -4.664   1.633  24.786  0.00  0.00    -0.260 NA
ATOM     11  C   UNL     1      -5.403   1.307  24.955  0.00  0.00    +0.106 C 
ATOM     12  C   UNL     1      -5.903   1.918  25.197  0.00  0.00    +0.170 C 
ATOM     13  O   UNL     1      -6.693   1.838  25.419  0.00  0.00    -0.222 OA
ATOM     14  C   UNL     1      -5.473   2.621  25.177  0.00  0.00    +0.060 C 
ATOM     15  C   UNL     1      -4.707   2.445  24.924  0.00  0.00    +0.140 C 
ENDROOT
BRANCH  15  16
ATOM     16  C   UNL     1      -4.092   2.987  24.824  0.00  0.00    +0.251 A 
ATOM     17  N   UNL     1      -3.574   3.245  25.412  0.00  0.00    -0.193 NA
ATOM     18  C   UNL     1      -3.050   3.783  25.071  0.00  0.00    +0.185 A 
ATOM     28  N   UNL     1      -3.244   3.858  24.272  0.00  0.00    -0.060 NA
ATOM     29  O   UNL     1      -3.889   3.366  24.120  0.00  0.00    -0.336 OA
BRANCH  18  19
ATOM     19  C   UNL     1      -2.439   4.177  25.460  0.00  0.00    +0.096 C 
BRANCH  19  20
ATOM     20  C   UNL     1      -1.699   3.818  25.538  0.00  0.00    -0.004 A 
ATOM     21  C   UNL     1      -1.639   3.065  25.868  0.00  0.00    -0.001 A 
ATOM     22  C   UNL     1      -0.900   2.707  25.946  0.00  0.00    +0.029 A 
ATOM     23  C   UNL     1      -0.221   3.102  25.694  0.00  0.00    +0.141 A 
ATOM     24  F   UNL     1       0.518   2.744  25.771  0.00  0.00    -0.204 F 
ATOM     25  C   UNL     1      -0.282   3.856  25.363  0.00  0.00    +0.041 A 
ATOM     26  C   UNL     1      -1.021   4.214  25.286  0.00  0.00    +0.056 A 
ATOM     27 CL   UNL     1      -1.081   4.968  24.955  0.00  0.00    -0.082 Cl
ENDBRANCH  19  20
ENDBRANCH  18  19
ENDBRANCH  15  16
BRANCH  10   9
ATOM      9  C   UNL     1      -3.999   1.220  24.526  0.00  0.00    +0.100 C 
BRANCH   9   8
ATOM      5  C   UNL     1      -3.943  -1.251  24.677  0.00  0.00    +0.073 A 
ATOM      6  C   UNL     1      -3.751  -0.792  25.337  0.00  0.00    +0.016 A 
ATOM      7  C   UNL     1      -3.770   0.031  25.286  0.00  0.00    -0.002 A 
ATOM      8  C   UNL     1      -3.980   0.396  24.577  0.00  0.00    -0.006 A 
ATOM     30  C   UNL     1      -4.172  -0.062  23.918  0.00  0.00    -0.002 A 
ATOM     31  C   UNL     1      -4.153  -0.885  23.968  0.00  0.00    +0.016 A 
BRANCH   5   4
ATOM      1  C   UNL     1      -3.209  -3.305  24.603  0.00  0.00    +0.097 C 
ATOM      2  C   UNL     1      -3.229  -2.481  24.552  0.00  0.00    +0.246 C 
ATOM      3  O   UNL     1      -2.552  -2.067  24.326  0.00  0.00    -0.273 OA
ATOM      4  N   UNL     1      -3.924  -2.073  24.728  0.00  0.00    -0.179 NA
ENDBRANCH   5   4
ENDBRANCH   9   8
ENDBRANCH  10   9
TORSDOF 6
ENDMDL
MODEL 2
REMARK VINA RESULT:     -12.4      2.167      4.880
REMARK  Name = 
REMARK  6 active torsions:
REMARK  status: ('A' for Active; 'I' for Inactive)
REMARK    1  A    between atoms: N_4  and  C_5
REMARK    2  A    between atoms: C_8  and  C_9
REMARK    3  A    between atoms: C_9  and  N_10
REMARK    4  A    between atoms: C_15  and  C_16
REMARK    5  A    between atoms: C_18  and  C_19
REMARK    6  A    between atoms: C_19  and  C_20
REMARK                            x       y       z     vdW  Elec       q    Type
REMARK                         _______ _______ _______ _____ _____    ______ ____
ROOT
ATOM     10  N   UNL     1      -4.421   2.071  25.083  0.00  0.00    -0.260 NA
ATOM     11  C   UNL     1      -4.850   2.691  25.421  0.00  0.00    +0.106 C 
ATOM     12  C   UNL     1      -5.543   2.376  25.740  0.00  0.00    +0.170 C 
ATOM     13  O   UNL     1      -6.132   2.800  26.131  0.00  0.00    -0.222 OA
ATOM     14  C   UNL     1      -5.542   1.563  25.600  0.00  0.00    +0.060 C 
ATOM     15  C   UNL     1      -4.849   1.375  25.194  0.00  0.00    +0.140 C 
ENDROOT
BRANCH  15  16
ATOM     16  C   UNL     1      -4.623   0.622  24.942  0.00  0.00    +0.251 A 
ATOM     17  N   UNL     1      -4.323   0.021  25.421  0.00  0.00    -0.193 NA
ATOM     18  C   UNL     1      -4.172  -0.634  24.942  0.00  0.00    +0.185 A 
ATOM     28  N   UNL     1      -4.379  -0.438  24.168  0.00  0.00    -0.060 NA
ATOM     29  O   UNL     1      -4.658   0.339  24.168  0.00  0.00    -0.336 OA
BRANCH  18  19
ATOM     19  C   UNL     1      -3.868  -1.358  25.194  0.00  0.00    +0.096 C 
BRANCH  19  20
ATOM     20  C   UNL     1      -3.080  -1.551  25.042  0.00  0.00    -0.004 A 
ATOM     21  C   UNL     1      -2.481  -1.016  25.230  0.00  0.00    -0.001 A 
ATOM     22  C   UNL     1      -1.693  -1.209  25.077  0.00  0.00    +0.029 A 
ATOM     23  C   UNL     1      -1.505  -1.936  24.737  0.00  0.00    +0.141 A 
ATOM     24  F   UNL     1      -0.717  -2.129  24.584  0.00  0.00    -0.204 F 
ATOM     25  C   UNL     1      -2.104  -2.471  24.549  0.00  0.00    +0.041 A 
ATOM     26  C   UNL     1      -2.892  -2.278  24.701  0.00  0.00    +0.056 A 
ATOM     27 CL   UNL     1      -3.492  -2.814  24.514  0.00  0.00    -0.082 Cl
ENDBRANCH  19  20
ENDBRANCH  18  19
ENDBRANCH  15  16
BRANCH  10   9
ATOM      9  C   UNL     1      -3.692   2.138  24.702  0.00  0.00    +0.100 C 
BRANCH   9   8
ATOM      5  C   UNL     1      -2.286   4.143  25.065  0.00  0.00    +0.073 A 
ATOM      6  C   UNL     1      -2.839   4.132  24.451  0.00  0.00    +0.016 A 
ATOM      7  C   UNL     1      -3.307   3.463  24.331  0.00  0.00    -0.002 A 
ATOM      8  C   UNL     1      -3.224   2.806  24.822  0.00  0.00    -0.006 A 
ATOM     30  C   UNL     1      -2.670   2.817  25.435  0.00  0.00    -0.002 A 
ATOM     31  C   UNL     1      -2.202   3.485  25.556  0.00  0.00    +0.016 A 
BRANCH   5   4
ATOM      1  C   UNL     1      -0.583   5.507  24.998  0.00  0.00    +0.097 C 
ATOM      2  C   UNL     1      -1.052   4.838  24.878  0.00  0.00    +0.246 C 
ATOM      3  O   UNL     1      -0.755   4.199  24.450  0.00  0.00    -0.273 OA
ATOM      4  N   UNL     1      -1.817   4.810  25.185  0.00  0.00    -0.179 NA
ENDBRANCH   5   4
ENDBRANCH   9   8
ENDBRANCH  10   9
TORSDOF 6
ENDMDL
MODEL 3
REMARK VINA RESULT:     -12.0      3.025      6.097
REMARK  Name = 
REMARK  6 active torsions:
REMARK  status: ('A' for Active; 'I' for Inactive)
REMARK    1  A    between atoms: N_4  and  C_5
REMARK    2  A    between atoms: C_8  and  C_9
REMARK    3  A    between atoms: C_9  and  N_10
REMARK    4  A    between atoms: C_15  and  C_16
REMARK    5  A    between atoms: C_18  and  C_19
REMARK    6  A    between atoms: C_19  and  C_20
REMARK                            x       y       z     vdW  Elec       q    Type
REMARK                         _______ _______ _______ _____ _____    ______ ____
ROOT
ATOM     10  N   UNL     1      -0.140   0.394  24.316  0.00  0.00    -0.260 NA
ATOM     11  C   UNL     1       0.410   0.715  23.790  0.00  0.00    +0.106 C 
ATOM     12  C   UNL     1       0.715   0.100  23.333  0.00  0.00    +0.170 C 
ATOM     13  O   UNL     1       1.282   0.172  22.739  0.00  0.00    -0.222 OA
ATOM     14  C   UNL     1       0.354  -0.601  23.576  0.00  0.00    +0.060 C 
ATOM     15  C   UNL     1      -0.175  -0.419  24.183  0.00  0.00    +0.140 C 
ENDROOT
BRANCH  15  16
ATOM     16  C   UNL     1      -0.654  -0.956  24.587  0.00  0.00    +0.251 A 
ATOM     17  N   UNL     1      -1.359  -1.280  24.309  0.00  0.00    -0.193 NA
ATOM     18  C   UNL     1      -1.653  -1.788  24.890  0.00  0.00    +0.185 A 
ATOM     28  N   UNL     1      -1.128  -1.777  25.527  0.00  0.00    -0.060 NA
ATOM     29  O   UNL     1      -0.510  -1.263  25.340  0.00  0.00    -0.336 OA
BRANCH  18  19
ATOM     19  C   UNL     1      -2.348  -2.229  24.843  0.00  0.00    +0.096 C 
BRANCH  19  20
ATOM     20  C   UNL     1      -3.064  -1.853  24.679  0.00  0.00    -0.004 A 
ATOM     21  C   UNL     1      -3.240  -1.128  25.030  0.00  0.00    -0.001 A 
ATOM     22  C   UNL     1      -3.957  -0.753  24.865  0.00  0.00    +0.029 A 
ATOM     23  C   UNL     1      -4.497  -1.104  24.350  0.00  0.00    +0.141 A 
ATOM     24  F   UNL     1      -5.213  -0.729  24.186  0.00  0.00    -0.204 F 
ATOM     25  C   UNL     1      -4.321  -1.829  23.998  0.00  0.00    +0.041 A 
ATOM     26  C   UNL     1      -3.604  -2.204  24.163  0.00  0.00    +0.056 A 
ATOM     27 CL   UNL     1      -3.428  -2.930  23.811  0.00  0.00    -0.082 Cl
ENDBRANCH  19  20
ENDBRANCH  18  19
ENDBRANCH  15  16
BRANCH  10   9
ATOM      9  C   UNL     1      -0.579   0.814  24.875  0.00  0.00    +0.100 C 
BRANCH   9   8
ATOM      5  C   UNL     1      -0.735   3.280  24.726  0.00  0.00    +0.073 A 
ATOM      6  C   UNL     1      -1.232   2.807  24.266  0.00  0.00    +0.016 A 
ATOM      7  C   UNL     1      -1.179   1.985  24.316  0.00  0.00    -0.002 A 
ATOM      8  C   UNL     1      -0.631   1.636  24.824  0.00  0.00    -0.006 A 
ATOM     30  C   UNL     1      -0.135   2.110  25.284  0.00  0.00    -0.002 A 
ATOM     31  C   UNL     1      -0.187   2.931  25.234  0.00  0.00    +0.016 A 
BRANCH   5   4
ATOM      1  C   UNL     1      -1.382   5.332  25.095  0.00  0.00    +0.097 C 
ATOM      2  C   UNL     1      -1.330   4.509  25.145  0.00  0.00    +0.246 C 
ATOM      3  O   UNL     1      -1.821   4.096  25.663  0.00  0.00    -0.273 OA
ATOM      4  N   UNL     1      -0.787   4.102  24.676  0.00  0.00    -0.179 NA
ENDBRANCH   5   4
ENDBRANCH   9   8
ENDBRANCH  10   9
TORSDOF 6
ENDMDL
MODEL 4
REMARK VINA RESULT:     -11.9      2.424      3.492
REMARK  Name = 
REMARK  6 active torsions:
REMARK  status: ('A' for Active; 'I' for Inactive)
REMARK    1  A    between atoms: N_4  and  C_5
REMARK    2  A    between atoms: C_8  and  C_9
REMARK    3  A    between atoms: C_9  and  N_10
REMARK    4  A    between atoms: C_15  and  C_16
REMARK    5  A    between atoms: C_18  and  C_19
REMARK    6  A    between atoms: C_19  and  C_20
REMARK                            x       y       z     vdW  Elec       q    Type
REMARK                         _______ _______ _______ _____ _____    ______ ____
ROOT
ATOM     10  N   UNL     1      -0.467   0.436  24.593  0.00  0.00    -0.260 NA
ATOM     11  C   UNL     1      -0.245  -0.160  24.067  0.00  0.00    +0.106 C 
ATOM     12  C   UNL     1       0.331   0.146  23.562  0.00  0.00    +0.170 C 
ATOM     13  O   UNL     1       0.706  -0.261  22.951  0.00  0.00    -0.222 OA
ATOM     14  C   UNL     1       0.465   0.932  23.776  0.00  0.00    +0.060 C 
ATOM     15  C   UNL     1      -0.028   1.111  24.413  0.00  0.00    +0.140 C 
ENDROOT
BRANCH  15  16
ATOM     16  C   UNL     1      -0.073   1.837  24.802  0.00  0.00    +0.251 A 
ATOM     17  N   UNL     1      -0.455   2.513  24.522  0.00  0.00    -0.193 NA
ATOM     18  C   UNL     1      -0.363   3.109  25.086  0.00  0.00    +0.185 A 
ATOM     28  N   UNL     1       0.076   2.801  25.714  0.00  0.00    -0.060 NA
ATOM     29  O   UNL     1       0.255   2.015  25.538  0.00  0.00    -0.336 OA
BRANCH  18  19
ATOM     19  C   UNL     1      -0.658   3.877  25.032  0.00  0.00    +0.096 C 
BRANCH  19  20
ATOM     20  C   UNL     1      -1.397   4.059  25.350  0.00  0.00    -0.004 A 
ATOM     21  C   UNL     1      -1.845   3.472  25.716  0.00  0.00    -0.001 A 
ATOM     22  C   UNL     1      -2.584   3.654  26.034  0.00  0.00    +0.029 A 
ATOM     23  C   UNL     1      -2.875   4.425  25.987  0.00  0.00    +0.141 A 
ATOM     24  F   UNL     1      -3.614   4.608  26.305  0.00  0.00    -0.204 F 
ATOM     25  C   UNL     1      -2.426   5.013  25.621  0.00  0.00    +0.041 A 
ATOM     26  C   UNL     1      -1.688   4.830  25.302  0.00  0.00    +0.056 A 
ATOM     27 CL   UNL     1      -1.239   5.418  24.936  0.00  0.00    -0.082 Cl
ENDBRANCH  19  20
ENDBRANCH  18  19
ENDBRANCH  15  16
BRANCH  10   9
ATOM      9  C   UNL     1      -1.029   0.369  25.193  0.00  0.00    +0.100 C 
BRANCH   9   8
ATOM      5  C   UNL     1      -2.823  -1.328  25.024  0.00  0.00    +0.073 A 
ATOM      6  C   UNL     1      -2.900  -0.606  24.631  0.00  0.00    +0.016 A 
ATOM      7  C   UNL     1      -2.301  -0.040  24.689  0.00  0.00    -0.002 A 
ATOM      8  C   UNL     1      -1.627  -0.196  25.136  0.00  0.00    -0.006 A 
ATOM     30  C   UNL     1      -1.550  -0.919  25.529  0.00  0.00    -0.002 A 
ATOM     31  C   UNL     1      -2.148  -1.484  25.472  0.00  0.00    +0.016 A 
BRANCH   5   4
ATOM      1  C   UNL     1      -3.930  -3.104  24.402  0.00  0.00    +0.097 C 
ATOM      2  C   UNL     1      -3.332  -2.538  24.459  0.00  0.00    +0.246 C 
ATOM      3  O   UNL     1      -2.646  -2.617  24.009  0.00  0.00    -0.273 OA
ATOM      4  N   UNL     1      -3.420  -1.893  24.967  0.00  0.00    -0.179 NA
ENDBRANCH   5   4
ENDBRANCH   9   8
ENDBRANCH  10   9
TORSDOF 6
ENDMDL
MODEL 5
REMARK VINA RESULT:     -11.5      2.243      3.550
REMARK  Name = 
REMARK  6 active torsions:
REMARK  status: ('A' for Active; 'I' for Inactive)
REMARK    1  A    between atoms: N_4  and  C_5
REMARK    2  A    between atoms: C_8  and  C_9
REMARK    3  A    between atoms: C_9  and  N_10
REMARK    4  A    between atoms: C_15  and  C_16
REMARK    5  A    between atoms: C_18  and  C_19
REMARK    6  A    between atoms: C_19  and  C_20
REMARK                            x       y       z     vdW  Elec       q    Type
REMARK                         _______ _______ _______ _____ _____    ______ ____
ROOT
ATOM     10  N   UNL     1      -0.849   1.309  25.001  0.00  0.00    -0.260 NA
ATOM     11  C   UNL     1      -0.208   0.925  24.650  0.00  0.00    +0.106 C 
ATOM     12  C   UNL     1       0.271   1.498  24.298  0.00  0.00    +0.170 C 
ATOM     13  O   UNL     1       0.971   1.358  23.886  0.00  0.00    -0.222 OA
ATOM     14  C   UNL     1      -0.074   2.235  24.432  0.00  0.00    +0.060 C 
ATOM     15  C   UNL     1      -0.766   2.118  24.867  0.00  0.00    +0.140 C 
ENDROOT
BRANCH  15  16
ATOM     16  C   UNL     1      -1.285   2.708  25.122  0.00  0.00    +0.251 A 
ATOM     17  N   UNL     1      -1.950   2.976  24.716  0.00  0.00    -0.193 NA
ATOM     18  C   UNL     1      -2.305   3.567  25.171  0.00  0.00    +0.185 A 
ATOM     28  N   UNL     1      -1.858   3.662  25.858  0.00  0.00    -0.060 NA
ATOM     29  O   UNL     1      -1.228   3.132  25.828  0.00  0.00    -0.336 OA
BRANCH  18  19
ATOM     19  C   UNL     1      -2.987   3.987  24.973  0.00  0.00    +0.096 C 
BRANCH  19  20
ATOM     20  C   UNL     1      -3.731   3.665  25.130  0.00  0.00    -0.004 A 
ATOM     21  C   UNL     1      -3.972   3.544  25.909  0.00  0.00    -0.001 A 
ATOM     22  C   UNL     1      -4.716   3.222  26.065  0.00  0.00    +0.029 A 
ATOM     23  C   UNL     1      -5.217   3.021  25.442  0.00  0.00    +0.141 A 
ATOM     24  F   UNL     1      -5.961   2.699  25.597  0.00  0.00    -0.204 F 
ATOM     25  C   UNL     1      -4.975   3.142  24.662  0.00  0.00    +0.041 A 
ATOM     26  C   UNL     1      -4.232   3.463  24.506  0.00  0.00    +0.056 A 
ATOM     27 CL   UNL     1      -3.990   3.584  23.726  0.00  0.00    -0.082 Cl
ENDBRANCH  19  20
ENDBRANCH  18  19
ENDBRANCH  15  16
BRANCH  10   9
ATOM      9  C   UNL     1      -1.464   0.946  25.414  0.00  0.00    +0.100 C 
BRANCH   9   8
ATOM      5  C   UNL     1      -2.235  -1.312  24.752  0.00  0.00    +0.073 A 
ATOM      6  C   UNL     1      -1.655  -1.227  25.334  0.00  0.00    +0.016 A 
ATOM      7  C   UNL     1      -1.399  -0.475  25.554  0.00  0.00    -0.002 A 
ATOM      8  C   UNL     1      -1.721   0.193  25.194  0.00  0.00    -0.006 A 
ATOM     30  C   UNL     1      -2.301   0.109  24.612  0.00  0.00    -0.002 A 
ATOM     31  C   UNL     1      -2.558  -0.643  24.391  0.00  0.00    +0.016 A 
BRANCH   5   4
ATOM      1  C   UNL     1      -3.453  -3.118  24.618  0.00  0.00    +0.097 C 
ATOM      2  C   UNL     1      -3.196  -2.365  24.838  0.00  0.00    +0.246 C 
ATOM      3  O   UNL     1      -3.643  -1.915  25.365  0.00  0.00    -0.273 OA
ATOM      4  N   UNL     1      -2.492  -2.063  24.531  0.00  0.00    -0.179 NA
ENDBRANCH   5   4
ENDBRANCH   9   8
ENDBRANCH  10   9
TORSDOF 6
ENDMDL
MODEL 6
REMARK VINA RESULT:     -11.4      2.712      5.314
REMARK  Name = 
REMARK  6 active torsions:
REMARK  status: ('A' for Active; 'I' for Inactive)
REMARK    1  A    between atoms: N_4  and  C_5
REMARK    2  A    between atoms: C_8  and  C_9
REMARK    3  A    between atoms: C_9  and  N_10
REMARK    4  A    between atoms: C_15  and  C_16
REMARK    5  A    between atoms: C_18  and  C_19
REMARK    6  A    between atoms: C_19  and  C_20
REMARK                            x       y       z     vdW  Elec       q    Type
REMARK                         _______ _______ _______ _____ _____    ______ ____
ROOT
ATOM     10  N   UNL     1      -1.430   1.832  24.893  0.00  0.00    -0.260 NA
ATOM     11  C   UNL     1      -1.259   2.538  25.286  0.00  0.00    +0.106 C 
ATOM     12  C   UNL     1      -0.607   2.406  25.775  0.00  0.00    +0.170 C 
ATOM     13  O   UNL     1      -0.250   2.962  26.268  0.00  0.00    -0.222 OA
ATOM     14  C   UNL     1      -0.375   1.619  25.684  0.00  0.00    +0.060 C 
ATOM     15  C   UNL     1      -0.884   1.265  25.139  0.00  0.00    +0.140 C 
ENDROOT
BRANCH  15  16
ATOM     16  C   UNL     1      -0.852   0.480  24.885  0.00  0.00    +0.251 A 
ATOM     17  N   UNL     1      -1.137  -0.175  25.297  0.00  0.00    -0.193 NA
ATOM     18  C   UNL     1      -0.991  -0.847  24.840  0.00  0.00    +0.185 A 
ATOM     28  N   UNL     1      -0.615  -0.606  24.146  0.00  0.00    -0.060 NA
ATOM     29  O   UNL     1      -0.530   0.214  24.173  0.00  0.00    -0.336 OA
BRANCH  18  19
ATOM     19  C   UNL     1      -1.186  -1.622  25.043  0.00  0.00    +0.096 C 
BRANCH  19  20
ATOM     20  C   UNL     1      -1.950  -1.904  24.909  0.00  0.00    -0.004 A 
ATOM     21  C   UNL     1      -2.594  -1.539  25.273  0.00  0.00    -0.001 A 
ATOM     22  C   UNL     1      -3.357  -1.821  25.139  0.00  0.00    +0.029 A 
ATOM     23  C   UNL     1      -3.477  -2.469  24.642  0.00  0.00    +0.141 A 
ATOM     24  F   UNL     1      -4.240  -2.751  24.509  0.00  0.00    -0.204 F 
ATOM     25  C   UNL     1      -2.832  -2.834  24.279  0.00  0.00    +0.041 A 
ATOM     26  C   UNL     1      -2.069  -2.552  24.412  0.00  0.00    +0.056 A 
ATOM     27 CL   UNL     1      -1.424  -2.917  24.049  0.00  0.00    -0.082 Cl
ENDBRANCH  19  20
ENDBRANCH  18  19
ENDBRANCH  15  16
BRANCH  10   9
ATOM      9  C   UNL     1      -2.040   1.716  24.350  0.00  0.00    +0.100 C 
BRANCH   9   8
ATOM      5  C   UNL     1      -4.189   2.912  24.629  0.00  0.00    +0.073 A 
ATOM      6  C   UNL     1      -3.579   3.256  24.192  0.00  0.00    +0.016 A 
ATOM      7  C   UNL     1      -2.862   2.857  24.099  0.00  0.00    -0.002 A 
ATOM      8  C   UNL     1      -2.756   2.115  24.442  0.00  0.00    -0.006 A 
ATOM     30  C   UNL     1      -3.366   1.770  24.879  0.00  0.00    -0.002 A 
ATOM     31  C   UNL     1      -4.082   2.169  24.972  0.00  0.00    +0.016 A 
BRANCH   5   4
ATOM      1  C   UNL     1      -5.786   4.103  25.521  0.00  0.00    +0.097 C 
ATOM      2  C   UNL     1      -5.069   3.703  25.428  0.00  0.00    +0.246 C 
ATOM      3  O   UNL     1      -4.518   3.699  26.041  0.00  0.00    -0.273 OA
ATOM      4  N   UNL     1      -4.905   3.310  24.722  0.00  0.00    -0.179 NA
ENDBRANCH   5   4
ENDBRANCH   9   8
ENDBRANCH  10   9
TORSDOF 6
ENDMDL
