MODEL 1
REMARK VINA RESULT:     -14.6      0.000      0.000
REMARK  Name = 
REMARK  6 active torsions:
REMARK  status: ('A' for Active; 'I' for Inactive)
REMARK    1  A    between atoms: N_2  and  C_3
REMARK    2  A    between atoms: C_3  and  C_4
REMARK    3  A    between atoms: C_6  and  C_8
REMARK    4  A    between atoms: C_8  and  C_9
REMARK    5  A    between atoms: C_14  and  C_16
REMARK    6  A    between atoms: C_27  and  C_29
REMARK                            x       y       z     vdW  Elec       q    Type
REMARK                         _______ _______ _______ _____ _____    ______ ____
ROOT
ATOM      9  C   UNL     1      -3.525   0.141  24.442  0.00  0.00    +0.050 C 
ATOM     10  C   UNL     1      -2.822   0.560  24.552  0.00  0.00    +0.063 A 
ATOM     11  C   UNL     1      -2.111   0.154  24.645  0.00  0.00    +0.023 A 
ATOM     12  C   UNL     1      -2.101  -0.670  24.629  0.00  0.00    +0.034 C 
ATOM     13  C   UNL     1      -2.803  -1.089  24.520  0.00  0.00    +0.010 C 
ATOM     14  C   UNL     1      -2.794  -1.914  24.504  0.00  0.00    +0.059 C 
ATOM     15  C   UNL     1      -1.992  -1.764  24.622  0.00  0.00    +0.005 C 
ATOM     18  C   UNL     1      -3.496  -2.332  24.394  0.00  0.00    +0.154 C 
ATOM     19  O   UNL     1      -3.487  -3.158  24.378  0.00  0.00    -0.223 OA
ATOM     20  C   UNL     1      -4.208  -1.927  24.300  0.00  0.00    +0.033 C 
ATOM     21  C   UNL     1      -4.218  -1.102  24.316  0.00  0.00    +0.003 C 
ATOM     22  C   UNL     1      -3.516  -0.683  24.426  0.00  0.00    +0.006 C 
ATOM     23  C   UNL     1      -4.227  -0.277  24.332  0.00  0.00    +0.000 C 
ATOM     24  S   UNL     1      -1.511   0.712  24.743  0.00  0.00    -0.054 S 
ATOM     25  C   UNL     1      -1.851   1.462  24.710  0.00  0.00    +0.185 A 
ATOM     26  N   UNL     1      -1.452   2.180  24.783  0.00  0.00    -0.151 NA
ATOM     27  C   UNL     1      -1.868   2.891  24.738  0.00  0.00    +0.271 C 
ATOM     28  O   UNL     1      -2.684   2.883  24.621  0.00  0.00    -0.268 OA
ATOM     36  N   UNL     1      -2.663   1.369  24.592  0.00  0.00    -0.227 NA
ENDROOT
BRANCH  27  29
ATOM     29  C   UNL     1      -1.468   3.609  24.811  0.00  0.00    +0.058 A 
ATOM     30  C   UNL     1      -0.698   3.683  24.528  0.00  0.00    +0.005 A 
ATOM     31  C   UNL     1      -0.298   4.402  24.601  0.00  0.00    +0.002 A 
ATOM     32  C   UNL     1      -0.671   5.046  24.956  0.00  0.00    +0.030 A 
ATOM     33  C   UNL     1      -1.443   4.972  25.239  0.00  0.00    +0.140 A 
ATOM     34  F   UNL     1      -1.816   5.617  25.595  0.00  0.00    -0.204 F 
ATOM     35  C   UNL     1      -1.841   4.253  25.166  0.00  0.00    +0.034 A 
ENDBRANCH  27  29
BRANCH  14  16
ATOM     16  C   UNL     1      -2.505  -2.686  24.529  0.00  0.00    +0.184 C 
ATOM     17  O   UNL     1      -1.692  -2.822  24.575  0.00  0.00    -0.220 OA
ENDBRANCH  14  16
BRANCH   9   8
ATOM      8  C   UNL     1      -4.237   0.548  24.348  0.00  0.00    +0.091 C 
BRANCH   8   6
ATOM      1  C   UNL     1      -5.379   1.726  24.172  0.00  0.00    +0.116 C 
ATOM      2  N   UNL     1      -5.207   1.427  24.921  0.00  0.00    -0.266 N 
ATOM      6  C   UNL     1      -4.636   0.838  25.010  0.00  0.00    +0.227 C 
ATOM      7  O   UNL     1      -4.464   0.539  25.758  0.00  0.00    -0.275 OA
BRANCH   2   3
ATOM      3  C   UNL     1      -5.606   1.717  25.583  0.00  0.00    +0.172 C 
BRANCH   3   4
ATOM      4  C   UNL     1      -5.755   2.525  25.653  0.00  0.00    -0.056 C 
ATOM      5  C   UNL     1      -5.905   3.334  25.722  0.00  0.00    -0.012 C 
ENDBRANCH   3   4
ENDBRANCH   2   3
ENDBRANCH   8   6
ENDBRANCH   9   8
TORSDOF 6
ENDMDL
MODEL 2
REMARK VINA RESULT:     -14.0      1.912      5.010
REMARK  Name = 
REMARK  6 active torsions:
REMARK  status: ('A' for Active; 'I' for Inactive)
REMARK    1  A    between atoms: N_2  and  C_3
REMARK    2  A    between atoms: C_3  and  C_4
REMARK    3  A    between atoms: C_6  and  C_8
REMARK    4  A    between atoms: C_8  and  C_9
REMARK    5  A    between atoms: C_14  and  C_16
REMARK    6  A    between atoms: C_27  and  C_29
REMARK                            x       y       z     vdW  Elec       q    Type
REMARK                         _______ _______ _______ _____ _____    ______ ____
ROOT
ATOM      9  C   UNL     1      -2.818   2.735  25.248  0.00  0.00    +0.050 C 
ATOM     10  C   UNL     1      -2.567   1.992  24.990  0.00  0.00    +0.063 A 
ATOM     11  C   UNL     1      -1.813   1.901  24.668  0.00  0.00    +0.023 A 
ATOM     12  C   UNL     1      -1.310   2.551  24.605  0.00  0.00    +0.034 C 
ATOM     13  C   UNL     1      -1.560   3.294  24.863  0.00  0.00    +0.010 C 
ATOM     14  C   UNL     1      -1.057   3.944  24.799  0.00  0.00    +0.059 C 
ATOM     15  C   UNL     1      -0.573   3.357  24.481  0.00  0.00    +0.005 C 
ATOM     18  C   UNL     1      -1.308   4.686  25.058  0.00  0.00    +0.154 C 
ATOM     19  O   UNL     1      -0.804   5.338  24.994  0.00  0.00    -0.223 OA
ATOM     20  C   UNL     1      -2.062   4.778  25.380  0.00  0.00    +0.033 C 
ATOM     21  C   UNL     1      -2.565   4.128  25.443  0.00  0.00    +0.003 C 
ATOM     22  C   UNL     1      -2.315   3.385  25.185  0.00  0.00    +0.006 C 
ATOM     23  C   UNL     1      -3.068   3.477  25.507  0.00  0.00    +0.000 C 
ATOM     24  S   UNL     1      -1.719   1.107  24.462  0.00  0.00    -0.054 S 
ATOM     25  C   UNL     1      -2.414   0.709  24.656  0.00  0.00    +0.185 A 
ATOM     26  N   UNL     1      -2.560  -0.095  24.544  0.00  0.00    -0.151 NA
ATOM     27  C   UNL     1      -3.286  -0.418  24.766  0.00  0.00    +0.271 C 
ATOM     28  O   UNL     1      -3.866   0.064  25.101  0.00  0.00    -0.268 OA
ATOM     36  N   UNL     1      -2.939   1.256  24.983  0.00  0.00    -0.227 NA
ENDROOT
BRANCH  27  29
ATOM     29  C   UNL     1      -3.432  -1.222  24.654  0.00  0.00    +0.058 A 
ATOM     30  C   UNL     1      -3.041  -1.781  25.116  0.00  0.00    +0.005 A 
ATOM     31  C   UNL     1      -3.187  -2.586  25.004  0.00  0.00    +0.002 A 
ATOM     32  C   UNL     1      -3.726  -2.830  24.428  0.00  0.00    +0.030 A 
ATOM     33  C   UNL     1      -4.118  -2.270  23.965  0.00  0.00    +0.140 A 
ATOM     34  F   UNL     1      -4.656  -2.514  23.390  0.00  0.00    -0.204 F 
ATOM     35  C   UNL     1      -3.971  -1.466  24.078  0.00  0.00    +0.034 A 
ENDBRANCH  27  29
BRANCH  14  16
ATOM     16  C   UNL     1      -0.386   4.391  24.625  0.00  0.00    +0.184 C 
ATOM     17  O   UNL     1       0.144   4.131  24.048  0.00  0.00    -0.220 OA
ENDBRANCH  14  16
BRANCH   9   8
ATOM      8  C   UNL     1      -3.572   2.826  25.570  0.00  0.00    +0.091 C 
BRANCH   8   6
ATOM      1  C   UNL     1      -5.089   2.664  26.197  0.00  0.00    +0.116 C 
ATOM      2  N   UNL     1      -4.988   2.783  25.387  0.00  0.00    -0.266 N 
ATOM      6  C   UNL     1      -4.230   2.864  25.073  0.00  0.00    +0.227 C 
ATOM      7  O   UNL     1      -4.129   2.983  24.264  0.00  0.00    -0.275 OA
BRANCH   2   3
ATOM      3  C   UNL     1      -5.646   2.821  24.890  0.00  0.00    +0.172 C 
BRANCH   3   4
ATOM      4  C   UNL     1      -6.231   2.241  24.936  0.00  0.00    -0.056 C 
ATOM      5  C   UNL     1      -6.815   1.659  24.981  0.00  0.00    -0.012 C 
ENDBRANCH   3   4
ENDBRANCH   2   3
ENDBRANCH   8   6
ENDBRANCH   9   8
TORSDOF 6
ENDMDL
MODEL 3
REMARK VINA RESULT:     -13.3      2.082      4.154
REMARK  Name = 
REMARK  6 active torsions:
REMARK  status: ('A' for Active; 'I' for Inactive)
REMARK    1  A    between atoms: N_2  and  C_3
REMARK    2  A    between atoms: C_3  and  C_4
REMARK    3  A    between atoms: C_6  and  C_8
REMARK    4  A    between atoms: C_8  and  C_9
REMARK    5  A    between atoms: C_14  and  C_16
REMARK    6  A    between atoms: C_27  and  C_29
REMARK                            x       y       z     vdW  Elec       q    Type
REMARK                         _______ _______ _______ _____ _____    ______ ____
ROOT
ATOM      9  C   UNL     1      -3.835   1.071  24.575  0.00  0.00    +0.050 C 
ATOM     10  C   UNL     1      -3.064   1.351  24.479  0.00  0.00    +0.063 A 
ATOM     11  C   UNL     1      -2.887   2.136  24.659  0.00  0.00    +0.023 A 
ATOM     12  C   UNL     1      -3.477   2.640  24.934  0.00  0.00    +0.034 C 
ATOM     13  C   UNL     1      -4.247   2.361  25.030  0.00  0.00    +0.010 C 
ATOM     14  C   UNL     1      -4.839   2.866  25.306  0.00  0.00    +0.059 C 
ATOM     15  C   UNL     1      -4.197   3.384  25.306  0.00  0.00    +0.005 C 
ATOM     18  C   UNL     1      -5.609   2.585  25.401  0.00  0.00    +0.154 C 
ATOM     19  O   UNL     1      -6.201   3.090  25.677  0.00  0.00    -0.223 OA
ATOM     20  C   UNL     1      -5.787   1.800  25.222  0.00  0.00    +0.033 C 
ATOM     21  C   UNL     1      -5.196   1.295  24.946  0.00  0.00    +0.003 C 
ATOM     22  C   UNL     1      -4.426   1.575  24.850  0.00  0.00    +0.006 C 
ATOM     23  C   UNL     1      -4.605   0.791  24.671  0.00  0.00    +0.000 C 
ATOM     24  S   UNL     1      -2.083   2.255  24.511  0.00  0.00    -0.054 S 
ATOM     25  C   UNL     1      -1.766   1.544  24.239  0.00  0.00    +0.185 A 
ATOM     26  N   UNL     1      -0.980   1.414  24.025  0.00  0.00    -0.151 NA
ATOM     27  C   UNL     1      -0.741   0.670  23.762  0.00  0.00    +0.271 C 
ATOM     28  O   UNL     1      -1.289   0.055  23.714  0.00  0.00    -0.268 OA
ATOM     36  N   UNL     1      -2.372   0.985  24.220  0.00  0.00    -0.227 NA
ENDROOT
BRANCH  27  29
ATOM     29  C   UNL     1       0.045   0.539  23.548  0.00  0.00    +0.058 A 
ATOM     30  C   UNL     1       0.266  -0.177  23.205  0.00  0.00    +0.005 A 
ATOM     31  C   UNL     1       1.052  -0.307  22.990  0.00  0.00    +0.002 A 
ATOM     32  C   UNL     1       1.617   0.280  23.119  0.00  0.00    +0.030 A 
ATOM     33  C   UNL     1       1.396   0.998  23.462  0.00  0.00    +0.140 A 
ATOM     34  F   UNL     1       1.961   1.585  23.591  0.00  0.00    -0.204 F 
ATOM     35  C   UNL     1       0.610   1.127  23.676  0.00  0.00    +0.034 A 
ENDBRANCH  27  29
BRANCH  14  16
ATOM     16  C   UNL     1      -5.207   3.550  25.581  0.00  0.00    +0.184 C 
ATOM     17  O   UNL     1      -4.821   4.278  25.525  0.00  0.00    -0.220 OA
ENDBRANCH  14  16
BRANCH   9   8
ATOM      8  C   UNL     1      -4.013   0.286  24.395  0.00  0.00    +0.091 C 
BRANCH   8   6
ATOM      1  C   UNL     1      -4.112  -1.295  23.931  0.00  0.00    +0.116 C 
ATOM      2  N   UNL     1      -3.867  -1.104  24.695  0.00  0.00    -0.266 N 
ATOM      6  C   UNL     1      -3.817  -0.314  24.928  0.00  0.00    +0.227 C 
ATOM      7  O   UNL     1      -3.572  -0.123  25.691  0.00  0.00    -0.275 OA
BRANCH   2   3
ATOM      3  C   UNL     1      -3.671  -1.703  25.228  0.00  0.00    +0.172 C 
BRANCH   3   4
ATOM      4  C   UNL     1      -3.481  -2.456  24.949  0.00  0.00    -0.056 C 
ATOM      5  C   UNL     1      -3.291  -3.210  24.670  0.00  0.00    -0.012 C 
ENDBRANCH   3   4
ENDBRANCH   2   3
ENDBRANCH   8   6
ENDBRANCH   9   8
TORSDOF 6
ENDMDL
MODEL 4
REMARK VINA RESULT:     -12.9      2.237      5.815
REMARK  Name = 
REMARK  6 active torsions:
REMARK  status: ('A' for Active; 'I' for Inactive)
REMARK    1  A    between atoms: N_2  and  C_3
REMARK    2  A    between atoms: C_3  and  C_4
REMARK    3  A    between atoms: C_6  and  C_8
REMARK    4  A    between atoms: C_8  and  C_9
REMARK    5  A    between atoms: C_14  and  C_16
REMARK    6  A    between atoms: C_27  and  C_29
REMARK                            x       y       z     vdW  Elec       q    Type
REMARK                         _______ _______ _______ _____ _____    ______ ____
ROOT
ATOM      9  C   UNL     1      -1.468   2.083  24.868  0.00  0.00    +0.050 C 
ATOM     10  C   UNL     1      -2.161   1.634  24.858  0.00  0.00    +0.063 A 
ATOM     11  C   UNL     1      -2.888   1.996  25.002  0.00  0.00    +0.023 A 
ATOM     12  C   UNL     1      -2.923   2.805  25.155  0.00  0.00    +0.034 C 
ATOM     13  C   UNL     1      -2.231   3.254  25.165  0.00  0.00    +0.010 C 
ATOM     14  C   UNL     1      -2.265   4.064  25.318  0.00  0.00    +0.059 C 
ATOM     15  C   UNL     1      -3.066   3.874  25.367  0.00  0.00    +0.005 C 
ATOM     18  C   UNL     1      -1.572   4.511  25.327  0.00  0.00    +0.154 C 
ATOM     19  O   UNL     1      -1.607   5.322  25.480  0.00  0.00    -0.223 OA
ATOM     20  C   UNL     1      -0.845   4.150  25.183  0.00  0.00    +0.033 C 
ATOM     21  C   UNL     1      -0.811   3.340  25.030  0.00  0.00    +0.003 C 
ATOM     22  C   UNL     1      -1.503   2.892  25.021  0.00  0.00    +0.006 C 
ATOM     23  C   UNL     1      -0.776   2.530  24.877  0.00  0.00    +0.000 C 
ATOM     24  S   UNL     1      -3.474   1.416  24.957  0.00  0.00    -0.054 S 
ATOM     25  C   UNL     1      -3.109   0.697  24.786  0.00  0.00    +0.185 A 
ATOM     26  N   UNL     1      -3.488  -0.030  24.692  0.00  0.00    -0.151 NA
ATOM     27  C   UNL     1      -3.048  -0.706  24.521  0.00  0.00    +0.271 C 
ATOM     28  O   UNL     1      -2.229  -0.656  24.443  0.00  0.00    -0.268 OA
ATOM     36  N   UNL     1      -2.297   0.831  24.725  0.00  0.00    -0.227 NA
ENDROOT
BRANCH  27  29
ATOM     29  C   UNL     1      -3.428  -1.433  24.427  0.00  0.00    +0.058 A 
ATOM     30  C   UNL     1      -3.983  -1.534  23.826  0.00  0.00    +0.005 A 
ATOM     31  C   UNL     1      -4.362  -2.261  23.732  0.00  0.00    +0.002 A 
ATOM     32  C   UNL     1      -4.185  -2.887  24.240  0.00  0.00    +0.030 A 
ATOM     33  C   UNL     1      -3.629  -2.785  24.842  0.00  0.00    +0.140 A 
ATOM     34  F   UNL     1      -3.452  -3.411  25.350  0.00  0.00    -0.204 F 
ATOM     35  C   UNL     1      -3.251  -2.058  24.935  0.00  0.00    +0.034 A 
ENDBRANCH  27  29
BRANCH  14  16
ATOM     16  C   UNL     1      -2.578   4.807  25.488  0.00  0.00    +0.184 C 
ATOM     17  O   UNL     1      -3.305   4.870  25.874  0.00  0.00    -0.220 OA
ENDBRANCH  14  16
BRANCH   9   8
ATOM      8  C   UNL     1      -0.741   1.720  24.724  0.00  0.00    +0.091 C 
BRANCH   8   6
ATOM      1  C   UNL     1       0.530   0.702  24.458  0.00  0.00    +0.116 C 
ATOM      2  N   UNL     1       0.112   1.016  23.819  0.00  0.00    -0.266 N 
ATOM      6  C   UNL     1      -0.523   1.525  23.952  0.00  0.00    +0.227 C 
ATOM      7  O   UNL     1      -0.941   1.838  23.314  0.00  0.00    -0.275 OA
BRANCH   2   3
ATOM      3  C   UNL     1       0.329   0.820  23.047  0.00  0.00    +0.172 C 
BRANCH   3   4
ATOM      4  C   UNL     1       0.899   0.238  22.915  0.00  0.00    -0.056 C 
ATOM      5  C   UNL     1       1.469  -0.344  22.782  0.00  0.00    -0.012 C 
ENDBRANCH   3   4
ENDBRANCH   2   3
ENDBRANCH   8   6
ENDBRANCH   9   8
TORSDOF 6
ENDMDL
MODEL 5
REMARK VINA RESULT:     -12.4      2.191      5.470
REMARK  Name = 
REMARK  6 active torsions:
REMARK  status: ('A' for Active; 'I' for Inactive)
REMARK    1  A    between atoms: N_2  and  C_3
REMARK    2  A    between atoms: C_3  and  C_4
REMARK    3  A    between atoms: C_6  and  C_8
REMARK    4  A    between atoms: C_8  and  C_9
REMARK    5  A    between atoms: C_14  and  C_16
REMARK    6  A    between atoms: C_27  and  C_29
REMARK                            x       y       z     vdW  Elec       q    Type
REMARK                         _______ _______ _______ _____ _____    ______ ____
ROOT
ATOM      9  C   UNL     1      -3.515   2.281  24.556  0.00  0.00    +0.050 C 
ATOM     10  C   UNL     1      -3.806   1.521  24.702  0.00  0.00    +0.063 A 
ATOM     11  C   UNL     1      -4.545   1.424  25.054  0.00  0.00    +0.023 A 
ATOM     12  C   UNL     1      -4.994   2.083  25.260  0.00  0.00    +0.034 C 
ATOM     13  C   UNL     1      -4.705   2.842  25.115  0.00  0.00    +0.010 C 
ATOM     14  C   UNL     1      -5.154   3.502  25.321  0.00  0.00    +0.059 C 
ATOM     15  C   UNL     1      -5.661   2.901  25.568  0.00  0.00    +0.005 C 
ATOM     18  C   UNL     1      -4.863   4.261  25.176  0.00  0.00    +0.154 C 
ATOM     19  O   UNL     1      -5.313   4.922  25.383  0.00  0.00    -0.223 OA
ATOM     20  C   UNL     1      -4.124   4.359  24.824  0.00  0.00    +0.033 C 
ATOM     21  C   UNL     1      -3.675   3.699  24.618  0.00  0.00    +0.003 C 
ATOM     22  C   UNL     1      -3.964   2.940  24.763  0.00  0.00    +0.006 C 
ATOM     23  C   UNL     1      -3.225   3.038  24.411  0.00  0.00    +0.000 C 
ATOM     24  S   UNL     1      -4.686   0.614  25.129  0.00  0.00    -0.054 S 
ATOM     25  C   UNL     1      -4.034   0.212  24.824  0.00  0.00    +0.185 A 
ATOM     26  N   UNL     1      -3.942  -0.607  24.788  0.00  0.00    -0.151 NA
ATOM     27  C   UNL     1      -3.256  -0.932  24.466  0.00  0.00    +0.271 C 
ATOM     28  O   UNL     1      -2.661  -0.437  24.179  0.00  0.00    -0.268 OA
ATOM     36  N   UNL     1      -3.489   0.773  24.559  0.00  0.00    -0.227 NA
ENDROOT
BRANCH  27  29
ATOM     29  C   UNL     1      -3.163  -1.751  24.430  0.00  0.00    +0.058 A 
ATOM     30  C   UNL     1      -3.805  -2.231  24.239  0.00  0.00    +0.005 A 
ATOM     31  C   UNL     1      -3.713  -3.050  24.203  0.00  0.00    +0.002 A 
ATOM     32  C   UNL     1      -2.977  -3.389  24.359  0.00  0.00    +0.030 A 
ATOM     33  C   UNL     1      -2.333  -2.908  24.551  0.00  0.00    +0.140 A 
ATOM     34  F   UNL     1      -1.597  -3.247  24.707  0.00  0.00    -0.204 F 
ATOM     35  C   UNL     1      -2.427  -2.089  24.586  0.00  0.00    +0.034 A 
ENDBRANCH  27  29
BRANCH  14  16
ATOM     16  C   UNL     1      -5.779   3.954  25.614  0.00  0.00    +0.184 C 
ATOM     17  O   UNL     1      -6.388   3.590  26.037  0.00  0.00    -0.220 OA
ENDBRANCH  14  16
BRANCH   9   8
ATOM      8  C   UNL     1      -2.776   2.378  24.205  0.00  0.00    +0.091 C 
BRANCH   8   6
ATOM      1  C   UNL     1      -1.298   2.285  23.476  0.00  0.00    +0.116 C 
ATOM      2  N   UNL     1      -1.353   2.284  24.299  0.00  0.00    -0.266 N 
ATOM      6  C   UNL     1      -2.091   2.330  24.664  0.00  0.00    +0.227 C 
ATOM      7  O   UNL     1      -2.146   2.329  25.486  0.00  0.00    -0.275 OA
BRANCH   2   3
ATOM      3  C   UNL     1      -0.669   2.236  24.758  0.00  0.00    +0.172 C 
BRANCH   3   4
ATOM      4  C   UNL     1       0.025   1.932  24.433  0.00  0.00    -0.056 C 
ATOM      5  C   UNL     1       0.720   1.627  24.107  0.00  0.00    -0.012 C 
ENDBRANCH   3   4
ENDBRANCH   2   3
ENDBRANCH   8   6
ENDBRANCH   9   8
TORSDOF 6
ENDMDL
MODEL 6
REMARK VINA RESULT:     -12.4      1.716      3.361
REMARK  Name = 
REMARK  6 active torsions:
REMARK  status: ('A' for Active; 'I' for Inactive)
REMARK    1  A    between atoms: N_2  and  C_3
REMARK    2  A    between atoms: C_3  and  C_4
REMARK    3  A    between atoms: C_6  and  C_8
REMARK    4  A    between atoms: C_8  and  C_9
REMARK    5  A    between atoms: C_14  and  C_16
REMARK    6  A    between atoms: C_27  and  C_29
REMARK                            x       y       z     vdW  Elec       q    Type
REMARK                         _______ _______ _______ _____ _____    ______ ____
ROOT
ATOM      9  C   UNL     1      -1.577  -0.374  24.547  0.00  0.00    +0.050 C 
ATOM     10  C   UNL     1      -1.969   0.340  24.683  0.00  0.00    +0.063 A 
ATOM     11  C   UNL     1      -2.788   0.348  24.779  0.00  0.00    +0.023 A 
ATOM     12  C   UNL     1      -3.215  -0.356  24.741  0.00  0.00    +0.034 C 
ATOM     13  C   UNL     1      -2.823  -1.069  24.606  0.00  0.00    +0.010 C 
ATOM     14  C   UNL     1      -3.250  -1.774  24.568  0.00  0.00    +0.059 C 
ATOM     15  C   UNL     1      -3.865  -1.242  24.706  0.00  0.00    +0.005 C 
ATOM     18  C   UNL     1      -2.858  -2.487  24.432  0.00  0.00    +0.154 C 
ATOM     19  O   UNL     1      -3.285  -3.193  24.394  0.00  0.00    -0.223 OA
ATOM     20  C   UNL     1      -2.039  -2.496  24.335  0.00  0.00    +0.033 C 
ATOM     21  C   UNL     1      -1.612  -1.791  24.374  0.00  0.00    +0.003 C 
ATOM     22  C   UNL     1      -2.003  -1.078  24.509  0.00  0.00    +0.006 C 
ATOM     23  C   UNL     1      -1.185  -1.086  24.412  0.00  0.00    +0.000 C 
ATOM     24  S   UNL     1      -3.021   1.130  24.905  0.00  0.00    -0.054 S 
ATOM     25  C   UNL     1      -2.348   1.604  24.885  0.00  0.00    +0.185 A 
ATOM     26  N   UNL     1      -2.327   2.423  24.986  0.00  0.00    -0.151 NA
ATOM     27  C   UNL     1      -1.608   2.825  24.952  0.00  0.00    +0.271 C 
ATOM     28  O   UNL     1      -0.908   2.408  24.818  0.00  0.00    -0.268 OA
ATOM     36  N   UNL     1      -1.696   1.116  24.748  0.00  0.00    -0.227 NA
ENDROOT
BRANCH  27  29
ATOM     29  C   UNL     1      -1.587   3.643  25.052  0.00  0.00    +0.058 A 
ATOM     30  C   UNL     1      -2.216   4.031  25.417  0.00  0.00    +0.005 A 
ATOM     31  C   UNL     1      -2.195   4.850  25.517  0.00  0.00    +0.002 A 
ATOM     32  C   UNL     1      -1.544   5.281  25.252  0.00  0.00    +0.030 A 
ATOM     33  C   UNL     1      -0.913   4.893  24.886  0.00  0.00    +0.140 A 
ATOM     34  F   UNL     1      -0.261   5.324  24.621  0.00  0.00    -0.204 F 
ATOM     35  C   UNL     1      -0.935   4.074  24.787  0.00  0.00    +0.034 A 
ENDBRANCH  27  29
BRANCH  14  16
ATOM     16  C   UNL     1      -3.891  -2.294  24.577  0.00  0.00    +0.184 C 
ATOM     17  O   UNL     1      -4.596  -2.086  24.203  0.00  0.00    -0.220 OA
ENDBRANCH  14  16
BRANCH   9   8
ATOM      8  C   UNL     1      -0.758  -0.382  24.451  0.00  0.00    +0.091 C 
BRANCH   8   6
ATOM      1  C   UNL     1       0.882  -0.299  24.282  0.00  0.00    +0.116 C 
ATOM      2  N   UNL     1       0.392  -0.149  23.635  0.00  0.00    -0.266 N 
ATOM      6  C   UNL     1      -0.427  -0.190  23.719  0.00  0.00    +0.227 C 
ATOM      7  O   UNL     1      -0.916  -0.039  23.073  0.00  0.00    -0.275 OA
BRANCH   2   3
ATOM      3  C   UNL     1       0.723   0.043  22.903  0.00  0.00    +0.172 C 
BRANCH   3   4
ATOM      4  C   UNL     1       1.543   0.064  22.814  0.00  0.00    -0.056 C 
ATOM      5  C   UNL     1       2.363   0.084  22.724  0.00  0.00    -0.012 C 
ENDBRANCH   3   4
ENDBRANCH   2   3
ENDBRANCH   8   6
ENDBRANCH   9   8
TORSDOF 6
ENDMDL
MODEL 7
REMARK VINA RESULT:     -12.2      1.540      3.210
REMARK  Name = 
REMARK  6 active torsions:
REMARK  status: ('A' for Active; 'I' for Inactive)
REMARK    1  A    between atoms: N_2  and  C_3
REMARK    2  A    between atoms: C_3  and  C_4
REMARK    3  A    between atoms: C_6  and  C_8
REMARK    4  A    between atoms: C_8  and  C_9
REMARK    5  A    between atoms: C_14  and  C_16
REMARK    6  A    between atoms: C_27  and  C_29
REMARK                            x       y       z     vdW  Elec       q    Type
REMARK                         _______ _______ _______ _____ _____    ______ ____
ROOT
ATOM      9  C   UNL     1      -2.543  -0.328  24.956  0.00  0.00    +0.050 C 
ATOM     10  C   UNL     1      -3.226   0.130  24.883  0.00  0.00    +0.063 A 
ATOM     11  C   UNL     1      -3.929  -0.217  24.627  0.00  0.00    +0.023 A 
ATOM     12  C   UNL     1      -3.950  -1.020  24.445  0.00  0.00    +0.034 C 
ATOM     13  C   UNL     1      -3.268  -1.478  24.518  0.00  0.00    +0.010 C 
ATOM     14  C   UNL     1      -3.289  -2.283  24.336  0.00  0.00    +0.059 C 
ATOM     15  C   UNL     1      -4.073  -2.080  24.181  0.00  0.00    +0.005 C 
ATOM     18  C   UNL     1      -2.607  -2.740  24.410  0.00  0.00    +0.154 C 
ATOM     19  O   UNL     1      -2.628  -3.545  24.228  0.00  0.00    -0.223 OA
ATOM     20  C   UNL     1      -1.903  -2.394  24.666  0.00  0.00    +0.033 C 
ATOM     21  C   UNL     1      -1.882  -1.589  24.848  0.00  0.00    +0.003 C 
ATOM     22  C   UNL     1      -2.564  -1.131  24.774  0.00  0.00    +0.006 C 
ATOM     23  C   UNL     1      -1.861  -0.785  25.030  0.00  0.00    +0.000 C 
ATOM     24  S   UNL     1      -4.510   0.370  24.607  0.00  0.00    -0.054 S 
ATOM     25  C   UNL     1      -4.165   1.078  24.851  0.00  0.00    +0.185 A 
ATOM     26  N   UNL     1      -4.547   1.807  24.914  0.00  0.00    -0.151 NA
ATOM     27  C   UNL     1      -4.129   2.471  25.166  0.00  0.00    +0.271 C 
ATOM     28  O   UNL     1      -3.329   2.407  25.356  0.00  0.00    -0.268 OA
ATOM     36  N   UNL     1      -3.371   0.930  25.021  0.00  0.00    -0.227 NA
ENDROOT
BRANCH  27  29
ATOM     29  C   UNL     1      -4.510   3.200  25.229  0.00  0.00    +0.058 A 
ATOM     30  C   UNL     1      -4.102   3.896  25.057  0.00  0.00    +0.005 A 
ATOM     31  C   UNL     1      -4.484   4.625  25.119  0.00  0.00    +0.002 A 
ATOM     32  C   UNL     1      -5.274   4.658  25.355  0.00  0.00    +0.030 A 
ATOM     33  C   UNL     1      -5.682   3.961  25.528  0.00  0.00    +0.140 A 
ATOM     34  F   UNL     1      -6.472   3.994  25.764  0.00  0.00    -0.204 F 
ATOM     35  C   UNL     1      -5.300   3.233  25.465  0.00  0.00    +0.034 A 
ENDBRANCH  27  29
BRANCH  14  16
ATOM     16  C   UNL     1      -3.583  -3.017  24.100  0.00  0.00    +0.184 C 
ATOM     17  O   UNL     1      -4.358  -3.081  23.824  0.00  0.00    -0.220 OA
ENDBRANCH  14  16
BRANCH   9   8
ATOM      8  C   UNL     1      -1.840   0.019  25.212  0.00  0.00    +0.091 C 
BRANCH   8   6
ATOM      1  C   UNL     1      -0.631   0.993  25.771  0.00  0.00    +0.116 C 
ATOM      2  N   UNL     1      -0.768   0.930  24.960  0.00  0.00    -0.266 N 
ATOM      6  C   UNL     1      -1.372   0.443  24.680  0.00  0.00    +0.227 C 
ATOM      7  O   UNL     1      -1.509   0.380  23.870  0.00  0.00    -0.275 OA
BRANCH   2   3
ATOM      3  C   UNL     1      -0.301   1.354  24.428  0.00  0.00    +0.172 C 
BRANCH   3   4
ATOM      4  C   UNL     1      -0.058   2.120  24.613  0.00  0.00    -0.056 C 
ATOM      5  C   UNL     1       0.185   2.888  24.798  0.00  0.00    -0.012 C 
ENDBRANCH   3   4
ENDBRANCH   2   3
ENDBRANCH   8   6
ENDBRANCH   9   8
TORSDOF 6
ENDMDL
