MODEL 1
REMARK VINA RESULT:     -10.3      0.000      0.000
REMARK  Name = 
REMARK  6 active torsions:
REMARK  status: ('A' for Active; 'I' for Inactive)
REMARK    1  A    between atoms: O_2  and  C_3
REMARK    2  A    between atoms: C_6  and  N_7
REMARK    3  A    between atoms: N_10  and  C_11
REMARK    4  A    between atoms: C_13  and  C_16
REMARK    5  A    between atoms: N_19  and  C_23
REMARK    6  A    between atoms: C_28  and  N_29
REMARK                            x       y       z     vdW  Elec       q    Type
REMARK                         _______ _______ _______ _____ _____    ______ ____
ROOT
ATOM     11  C   UNL     1      -0.061   0.079  23.548  0.00  0.00    +0.119 C 
ATOM     12  C   UNL     1      -0.606   0.695  23.612  0.00  0.00    +0.035 C 
ATOM     13  C   UNL     1      -1.054   0.568  24.293  0.00  0.00    +0.048 C 
ATOM     14  C   UNL     1      -0.785  -0.126  24.649  0.00  0.00    -0.025 C 
ATOM     15  C   UNL     1      -0.171  -0.428  24.188  0.00  0.00    -0.009 C 
ENDROOT
BRANCH  13  16
ATOM     16  C   UNL     1      -1.664   1.050  24.570  0.00  0.00    +0.010 A 
ATOM     17  C   UNL     1      -2.467   0.954  24.411  0.00  0.00    +0.058 A 
ATOM     18  C   UNL     1      -2.803   0.360  23.948  0.00  0.00    +0.052 C 
ATOM     19  N   UNL     1      -2.877   1.558  24.797  0.00  0.00    -0.233 N 
ATOM     20  N   UNL     1      -2.327   2.027  25.194  0.00  0.00    -0.170 NA
ATOM     21  C   UNL     1      -1.576   1.713  25.054  0.00  0.00    +0.077 A 
ATOM     22  C   UNL     1      -0.863   2.009  25.346  0.00  0.00    +0.054 C 
BRANCH  19  23
ATOM     23  C   UNL     1      -3.694   1.673  24.787  0.00  0.00    +0.105 A 
ATOM     24  C   UNL     1      -4.196   1.094  25.092  0.00  0.00    +0.021 A 
ATOM     25  C   UNL     1      -5.012   1.209  25.082  0.00  0.00    +0.002 A 
ATOM     26  C   UNL     1      -5.328   1.903  24.767  0.00  0.00    +0.002 A 
ATOM     27  C   UNL     1      -4.826   2.483  24.462  0.00  0.00    +0.026 A 
ATOM     28  C   UNL     1      -4.009   2.368  24.471  0.00  0.00    +0.160 A 
BRANCH  28  29
ATOM     29  N   UNL     1      -3.507   2.947  24.166  0.00  0.00    +0.059 N 
ATOM     30  O   UNL     1      -3.299   2.933  23.368  0.00  0.00    -0.126 OA
ATOM     31  O   UNL     1      -3.213   3.540  24.659  0.00  0.00    -0.126 OA
ENDBRANCH  28  29
ENDBRANCH  19  23
ENDBRANCH  13  16
BRANCH  11  10
ATOM      7  N   UNL     1       1.855   0.023  22.503  0.00  0.00    -0.161 NA
ATOM      8  C   UNL     1       1.297   0.115  23.103  0.00  0.00    +0.344 C 
ATOM      9  O   UNL     1       1.538   0.334  23.861  0.00  0.00    -0.249 OA
ATOM     10  N   UNL     1       0.497  -0.012  22.947  0.00  0.00    -0.184 NA
BRANCH   7   6
ATOM      3  C   UNL     1       4.254   0.406  22.974  0.00  0.00    +0.139 A 
ATOM      4  C   UNL     1       3.781   1.029  22.713  0.00  0.00    +0.038 A 
ATOM      5  C   UNL     1       2.981   0.902  22.555  0.00  0.00    +0.020 A 
ATOM      6  C   UNL     1       2.654   0.150  22.660  0.00  0.00    +0.075 A 
ATOM     32  C   UNL     1       3.128  -0.472  22.921  0.00  0.00    +0.020 A 
ATOM     33  C   UNL     1       3.928  -0.345  23.078  0.00  0.00    +0.038 A 
BRANCH   3   2
ATOM      1  C   UNL     1       5.413   0.159  23.772  0.00  0.00    +0.252 C 
ATOM      2  O   UNL     1       5.054   0.533  23.131  0.00  0.00    -0.471 OA
ENDBRANCH   3   2
ENDBRANCH   7   6
ENDBRANCH  11  10
TORSDOF 6
ENDMDL
MODEL 2
REMARK VINA RESULT:      -9.7      3.887      5.469
REMARK  Name = 
REMARK  6 active torsions:
REMARK  status: ('A' for Active; 'I' for Inactive)
REMARK    1  A    between atoms: O_2  and  C_3
REMARK    2  A    between atoms: C_6  and  N_7
REMARK    3  A    between atoms: N_10  and  C_11
REMARK    4  A    between atoms: C_13  and  C_16
REMARK    5  A    between atoms: N_19  and  C_23
REMARK    6  A    between atoms: C_28  and  N_29
REMARK                            x       y       z     vdW  Elec       q    Type
REMARK                         _______ _______ _______ _____ _____    ______ ____
ROOT
ATOM     11  C   UNL     1      -4.842   1.647  24.843  0.00  0.00    +0.119 C 
ATOM     12  C   UNL     1      -4.171   1.952  25.213  0.00  0.00    +0.035 C 
ATOM     13  C   UNL     1      -4.136   2.761  25.050  0.00  0.00    +0.048 C 
ATOM     14  C   UNL     1      -4.787   2.954  24.580  0.00  0.00    -0.025 C 
ATOM     15  C   UNL     1      -5.223   2.264  24.452  0.00  0.00    -0.009 C 
ENDROOT
BRANCH  13  16
ATOM     16  C   UNL     1      -3.555   3.284  25.311  0.00  0.00    +0.010 A 
ATOM     17  C   UNL     1      -2.908   3.548  24.872  0.00  0.00    +0.058 A 
ATOM     18  C   UNL     1      -2.730   3.336  24.095  0.00  0.00    +0.052 C 
ATOM     19  N   UNL     1      -2.471   4.062  25.347  0.00  0.00    -0.233 N 
ATOM     20  N   UNL     1      -2.847   4.115  26.079  0.00  0.00    -0.170 NA
ATOM     21  C   UNL     1      -3.517   3.634  26.057  0.00  0.00    +0.077 A 
ATOM     22  C   UNL     1      -4.055   3.523  26.673  0.00  0.00    +0.054 C 
BRANCH  19  23
ATOM     23  C   UNL     1      -1.778   4.454  25.128  0.00  0.00    +0.105 A 
ATOM     24  C   UNL     1      -1.821   5.176  24.731  0.00  0.00    +0.021 A 
ATOM     25  C   UNL     1      -1.129   5.567  24.512  0.00  0.00    +0.002 A 
ATOM     26  C   UNL     1      -0.394   5.238  24.690  0.00  0.00    +0.002 A 
ATOM     27  C   UNL     1      -0.351   4.516  25.088  0.00  0.00    +0.026 A 
ATOM     28  C   UNL     1      -1.044   4.124  25.307  0.00  0.00    +0.160 A 
BRANCH  28  29
ATOM     29  N   UNL     1      -1.001   3.403  25.704  0.00  0.00    +0.059 N 
ATOM     30  O   UNL     1      -1.065   3.380  26.527  0.00  0.00    -0.126 OA
ATOM     31  O   UNL     1      -0.894   2.704  25.279  0.00  0.00    -0.126 OA
ENDBRANCH  28  29
ENDBRANCH  19  23
ENDBRANCH  13  16
BRANCH  11  10
ATOM      7  N   UNL     1      -4.788  -0.535  24.779  0.00  0.00    -0.161 NA
ATOM      8  C   UNL     1      -4.541   0.252  24.760  0.00  0.00    +0.344 C 
ATOM      9  O   UNL     1      -3.745   0.433  24.640  0.00  0.00    -0.249 OA
ATOM     10  N   UNL     1      -5.089   0.860  24.862  0.00  0.00    -0.184 NA
BRANCH   7   6
ATOM      3  C   UNL     1      -3.141  -2.356  24.472  0.00  0.00    +0.139 A 
ATOM      4  C   UNL     1      -3.627  -2.131  23.846  0.00  0.00    +0.038 A 
ATOM      5  C   UNL     1      -4.177  -1.523  23.948  0.00  0.00    +0.020 A 
ATOM      6  C   UNL     1      -4.239  -1.141  24.677  0.00  0.00    +0.075 A 
ATOM     32  C   UNL     1      -3.752  -1.367  25.304  0.00  0.00    +0.020 A 
ATOM     33  C   UNL     1      -3.203  -1.974  25.202  0.00  0.00    +0.038 A 
BRANCH   3   2
ATOM      1  C   UNL     1      -1.786  -2.790  24.334  0.00  0.00    +0.252 C 
ATOM      2  O   UNL     1      -2.591  -2.963  24.371  0.00  0.00    -0.471 OA
ENDBRANCH   3   2
ENDBRANCH   7   6
ENDBRANCH  11  10
TORSDOF 6
ENDMDL
MODEL 3
REMARK VINA RESULT:      -9.6      0.892      1.478
REMARK  Name = 
REMARK  6 active torsions:
REMARK  status: ('A' for Active; 'I' for Inactive)
REMARK    1  A    between atoms: O_2  and  C_3
REMARK    2  A    between atoms: C_6  and  N_7
REMARK    3  A    between atoms: N_10  and  C_11
REMARK    4  A    between atoms: C_13  and  C_16
REMARK    5  A    between atoms: N_19  and  C_23
REMARK    6  A    between atoms: C_28  and  N_29
REMARK                            x       y       z     vdW  Elec       q    Type
REMARK                         _______ _______ _______ _____ _____    ______ ____
ROOT
ATOM     11  C   UNL     1      -0.018   0.048  23.555  0.00  0.00    +0.119 C 
ATOM     12  C   UNL     1      -0.621   0.611  23.550  0.00  0.00    +0.035 C 
ATOM     13  C   UNL     1      -1.049   0.532  24.251  0.00  0.00    +0.048 C 
ATOM     14  C   UNL     1      -0.711  -0.080  24.689  0.00  0.00    -0.025 C 
ATOM     15  C   UNL     1      -0.073  -0.379  24.258  0.00  0.00    -0.009 C 
ENDROOT
BRANCH  13  16
ATOM     16  C   UNL     1      -1.701   0.985  24.475  0.00  0.00    +0.010 A 
ATOM     17  C   UNL     1      -1.694   1.792  24.649  0.00  0.00    +0.058 A 
ATOM     18  C   UNL     1      -1.034   2.287  24.631  0.00  0.00    +0.052 C 
ATOM     19  N   UNL     1      -2.463   2.016  24.846  0.00  0.00    -0.233 N 
ATOM     20  N   UNL     1      -2.945   1.349  24.794  0.00  0.00    -0.170 NA
ATOM     21  C   UNL     1      -2.474   0.712  24.564  0.00  0.00    +0.077 A 
ATOM     22  C   UNL     1      -2.731  -0.064  24.445  0.00  0.00    +0.054 C 
BRANCH  19  23
ATOM     23  C   UNL     1      -2.707   2.776  25.058  0.00  0.00    +0.105 A 
ATOM     24  C   UNL     1      -2.348   3.163  25.692  0.00  0.00    +0.021 A 
ATOM     25  C   UNL     1      -2.592   3.921  25.904  0.00  0.00    +0.002 A 
ATOM     26  C   UNL     1      -3.196   4.294  25.483  0.00  0.00    +0.002 A 
ATOM     27  C   UNL     1      -3.556   3.906  24.849  0.00  0.00    +0.026 A 
ATOM     28  C   UNL     1      -3.312   3.147  24.637  0.00  0.00    +0.160 A 
BRANCH  28  29
ATOM     29  N   UNL     1      -3.671   2.760  24.004  0.00  0.00    +0.059 N 
ATOM     30  O   UNL     1      -3.366   2.843  23.241  0.00  0.00    -0.126 OA
ATOM     31  O   UNL     1      -4.337   2.290  24.132  0.00  0.00    -0.126 OA
ENDBRANCH  28  29
ENDBRANCH  19  23
ENDBRANCH  13  16
BRANCH  11  10
ATOM      7  N   UNL     1       1.899  -0.036  22.515  0.00  0.00    -0.161 NA
ATOM      8  C   UNL     1       1.339   0.079  23.110  0.00  0.00    +0.344 C 
ATOM      9  O   UNL     1       1.576   0.342  23.855  0.00  0.00    -0.249 OA
ATOM     10  N   UNL     1       0.541  -0.067  22.960  0.00  0.00    -0.184 NA
BRANCH   7   6
ATOM      3  C   UNL     1       4.292   0.404  22.966  0.00  0.00    +0.139 A 
ATOM      4  C   UNL     1       3.981  -0.349  23.091  0.00  0.00    +0.038 A 
ATOM      5  C   UNL     1       3.183  -0.497  22.940  0.00  0.00    +0.020 A 
ATOM      6  C   UNL     1       2.696   0.111  22.665  0.00  0.00    +0.075 A 
ATOM     32  C   UNL     1       3.008   0.865  22.541  0.00  0.00    +0.020 A 
ATOM     33  C   UNL     1       3.805   1.012  22.691  0.00  0.00    +0.038 A 
BRANCH   3   2
ATOM      1  C   UNL     1       5.474   0.160  23.732  0.00  0.00    +0.252 C 
ATOM      2  O   UNL     1       5.090   0.552  23.117  0.00  0.00    -0.471 OA
ENDBRANCH   3   2
ENDBRANCH   7   6
ENDBRANCH  11  10
TORSDOF 6
ENDMDL
MODEL 4
REMARK VINA RESULT:      -9.4      3.040      4.795
REMARK  Name = 
REMARK  6 active torsions:
REMARK  status: ('A' for Active; 'I' for Inactive)
REMARK    1  A    between atoms: O_2  and  C_3
REMARK    2  A    between atoms: C_6  and  N_7
REMARK    3  A    between atoms: N_10  and  C_11
REMARK    4  A    between atoms: C_13  and  C_16
REMARK    5  A    between atoms: N_19  and  C_23
REMARK    6  A    between atoms: C_28  and  N_29
REMARK                            x       y       z     vdW  Elec       q    Type
REMARK                         _______ _______ _______ _____ _____    ______ ____
ROOT
ATOM     11  C   UNL     1      -0.292   0.253  24.786  0.00  0.00    +0.119 C 
ATOM     12  C   UNL     1      -0.576   0.854  25.274  0.00  0.00    +0.035 C 
ATOM     13  C   UNL     1      -0.326   1.576  24.960  0.00  0.00    +0.048 C 
ATOM     14  C   UNL     1       0.113   1.419  24.280  0.00  0.00    -0.025 C 
ATOM     15  C   UNL     1       0.134   0.601  24.172  0.00  0.00    -0.009 C 
ENDROOT
BRANCH  13  16
ATOM     16  C   UNL     1      -0.486   2.322  25.274  0.00  0.00    +0.010 A 
ATOM     17  C   UNL     1      -0.828   2.954  24.869  0.00  0.00    +0.058 A 
ATOM     18  C   UNL     1      -1.071   2.952  24.081  0.00  0.00    +0.052 C 
ATOM     19  N   UNL     1      -0.886   3.590  25.393  0.00  0.00    -0.233 N 
ATOM     20  N   UNL     1      -0.579   3.351  26.120  0.00  0.00    -0.170 NA
ATOM     21  C   UNL     1      -0.332   2.566  26.047  0.00  0.00    +0.077 A 
ATOM     22  C   UNL     1       0.010   2.108  26.642  0.00  0.00    +0.054 C 
BRANCH  19  23
ATOM     23  C   UNL     1      -1.196   4.335  25.218  0.00  0.00    +0.105 A 
ATOM     24  C   UNL     1      -0.742   4.884  24.804  0.00  0.00    +0.021 A 
ATOM     25  C   UNL     1      -1.052   5.628  24.630  0.00  0.00    +0.002 A 
ATOM     26  C   UNL     1      -1.817   5.823  24.871  0.00  0.00    +0.002 A 
ATOM     27  C   UNL     1      -2.271   5.274  25.286  0.00  0.00    +0.026 A 
ATOM     28  C   UNL     1      -1.961   4.529  25.460  0.00  0.00    +0.160 A 
BRANCH  28  29
ATOM     29  N   UNL     1      -2.415   3.980  25.875  0.00  0.00    +0.059 N 
ATOM     30  O   UNL     1      -2.357   3.933  26.697  0.00  0.00    -0.126 OA
ATOM     31  O   UNL     1      -2.927   3.477  25.468  0.00  0.00    -0.126 OA
ENDBRANCH  28  29
ENDBRANCH  19  23
ENDBRANCH  13  16
BRANCH  11  10
ATOM      7  N   UNL     1      -1.277  -1.694  24.861  0.00  0.00    -0.161 NA
ATOM      8  C   UNL     1      -1.156  -0.885  24.753  0.00  0.00    +0.344 C 
ATOM      9  O   UNL     1      -1.778  -0.404  24.504  0.00  0.00    -0.249 OA
ATOM     10  N   UNL     1      -0.413  -0.556  24.894  0.00  0.00    -0.184 NA
BRANCH   7   6
ATOM      3  C   UNL     1      -3.507  -2.679  24.437  0.00  0.00    +0.139 A 
ATOM      4  C   UNL     1      -2.884  -2.831  23.919  0.00  0.00    +0.038 A 
ATOM      5  C   UNL     1      -2.140  -2.503  24.059  0.00  0.00    +0.020 A 
ATOM      6  C   UNL     1      -2.020  -2.022  24.720  0.00  0.00    +0.075 A 
ATOM     32  C   UNL     1      -2.643  -1.870  25.239  0.00  0.00    +0.020 A 
ATOM     33  C   UNL     1      -3.386  -2.198  25.098  0.00  0.00    +0.038 A 
BRANCH   3   2
ATOM      1  C   UNL     1      -4.683  -2.781  23.632  0.00  0.00    +0.252 C 
ATOM      2  O   UNL     1      -4.251  -3.007  24.297  0.00  0.00    -0.471 OA
ENDBRANCH   3   2
ENDBRANCH   7   6
ENDBRANCH  11  10
TORSDOF 6
ENDMDL
