MODEL 1
REMARK VINA RESULT:     -15.0      0.000      0.000
REMARK  Name = 
REMARK  3 active torsions:
REMARK  status: ('A' for Active; 'I' for Inactive)
REMARK    1  A    between atoms: C_2  and  C_22
REMARK    2  A    between atoms: C_12  and  C_13
REMARK    3  A    between atoms: C_25  and  C_28
REMARK                            x       y       z     vdW  Elec       q    Type
REMARK                         _______ _______ _______ _____ _____    ______ ____
ROOT
ATOM      1  O   UNL     1      -2.070   2.384  24.427  0.00  0.00    -0.270 OA
ATOM      2  C   UNL     1      -2.775   1.896  24.562  0.00  0.00    +0.249 C 
ATOM      3  N   UNL     1      -3.424   2.388  24.761  0.00  0.00    -0.276 N 
ATOM      4  C   UNL     1      -3.729   3.153  24.897  0.00  0.00    +0.096 C 
ATOM      5  C   UNL     1      -4.666   2.923  25.109  0.00  0.00    +0.043 C 
ATOM      6  C   UNL     1      -5.457   2.901  25.303  0.00  0.00    +0.011 C 
ATOM      7  C   UNL     1      -4.950   2.444  25.141  0.00  0.00    +0.058 C 
ATOM      8  C   UNL     1      -4.048   2.683  24.938  0.00  0.00    +0.099 C 
ATOM      9  C   UNL     1      -4.798   1.544  25.032  0.00  0.00    +0.041 A 
ATOM     10  C   UNL     1      -5.189   0.819  25.071  0.00  0.00    +0.013 A 
ATOM     11  C   UNL     1      -4.780   0.120  24.915  0.00  0.00    +0.006 A 
ATOM     12  C   UNL     1      -3.914   0.243  24.711  0.00  0.00    +0.062 A 
ATOM     18  C   UNL     1      -3.587   0.871  24.680  0.00  0.00    +0.261 A 
ATOM     19  O   UNL     1      -2.629   1.190  24.470  0.00  0.00    -0.267 OA
ATOM     20  N   UNL     1      -3.997   1.570  24.837  0.00  0.00    -0.299 N 
ATOM     21  C   UNL     1      -4.498   1.985  24.993  0.00  0.00    +0.110 C 
ENDROOT
BRANCH   2  22
ATOM     22  C   UNL     1      -3.106   1.007  24.572  0.00  0.00    +0.054 A 
ATOM     23  C   UNL     1      -3.337   0.703  23.842  0.00  0.00    +0.005 A 
ATOM     24  C   UNL     1      -3.632  -0.066  23.790  0.00  0.00    +0.010 A 
ATOM     25  C   UNL     1      -3.696  -0.530  24.469  0.00  0.00    +0.068 A 
ATOM     26  C   UNL     1      -3.465  -0.225  25.200  0.00  0.00    +0.010 A 
ATOM     27  C   UNL     1      -3.169   0.544  25.252  0.00  0.00    +0.005 A 
BRANCH  25  28
ATOM     28  C   UNL     1      -4.030  -1.339  24.273  0.00  0.00    +0.100 C 
ATOM     29  N   UNL     1      -4.480  -1.935  23.778  0.00  0.00    -0.191 NA
ENDBRANCH  25  28
ENDBRANCH   2  22
BRANCH  12  13
ATOM     13  C   UNL     1      -3.373  -0.264  24.537  0.00  0.00    +0.034 A 
ATOM     14  C   UNL     1      -2.860  -0.722  24.336  0.00  0.00    +0.007 A 
ATOM     15  C   UNL     1      -2.429  -1.317  24.495  0.00  0.00    +0.007 A 
ATOM     16  C   UNL     1      -2.690  -1.508  25.255  0.00  0.00    +0.035 A 
ATOM     17  S   UNL     1      -3.446  -0.829  25.546  0.00  0.00    -0.086 S 
ENDBRANCH  12  13
TORSDOF 3
ENDMDL
MODEL 2
REMARK VINA RESULT:     -14.9      1.218      3.316
REMARK  Name = 
REMARK  3 active torsions:
REMARK  status: ('A' for Active; 'I' for Inactive)
REMARK    1  A    between atoms: C_2  and  C_22
REMARK    2  A    between atoms: C_12  and  C_13
REMARK    3  A    between atoms: C_25  and  C_28
REMARK                            x       y       z     vdW  Elec       q    Type
REMARK                         _______ _______ _______ _____ _____    ______ ____
ROOT
ATOM      1  O   UNL     1      -1.066  -0.921  25.201  0.00  0.00    -0.270 OA
ATOM      2  C   UNL     1      -1.888  -0.807  24.948  0.00  0.00    +0.249 C 
ATOM      3  N   UNL     1      -2.240  -1.552  24.794  0.00  0.00    -0.276 N 
ATOM      4  C   UNL     1      -2.176  -2.385  24.765  0.00  0.00    +0.096 C 
ATOM      5  C   UNL     1      -3.090  -2.611  24.464  0.00  0.00    +0.043 C 
ATOM      6  C   UNL     1      -3.787  -2.958  24.224  0.00  0.00    +0.011 C 
ATOM      7  C   UNL     1      -3.542  -2.310  24.338  0.00  0.00    +0.058 C 
ATOM      8  C   UNL     1      -2.656  -2.108  24.630  0.00  0.00    +0.099 C 
ATOM      9  C   UNL     1      -3.797  -1.427  24.309  0.00  0.00    +0.041 A 
ATOM     10  C   UNL     1      -4.449  -0.955  24.131  0.00  0.00    +0.013 A 
ATOM     11  C   UNL     1      -4.393  -0.134  24.196  0.00  0.00    +0.006 A 
ATOM     12  C   UNL     1      -3.588   0.156  24.467  0.00  0.00    +0.062 A 
ATOM     18  C   UNL     1      -3.034  -0.259  24.618  0.00  0.00    +0.261 A 
ATOM     19  O   UNL     1      -2.065  -0.103  24.933  0.00  0.00    -0.267 OA
ATOM     20  N   UNL     1      -3.090  -1.080  24.553  0.00  0.00    -0.299 N 
ATOM     21  C   UNL     1      -3.347  -1.686  24.436  0.00  0.00    +0.110 C 
ENDROOT
BRANCH   2  22
ATOM     22  C   UNL     1      -2.557  -0.158  24.774  0.00  0.00    +0.054 A 
ATOM     23  C   UNL     1      -2.987   0.096  25.430  0.00  0.00    +0.005 A 
ATOM     24  C   UNL     1      -3.583   0.660  25.340  0.00  0.00    +0.010 A 
ATOM     25  C   UNL     1      -3.748   0.969  24.593  0.00  0.00    +0.068 A 
ATOM     26  C   UNL     1      -3.317   0.714  23.937  0.00  0.00    +0.010 A 
ATOM     27  C   UNL     1      -2.722   0.150  24.028  0.00  0.00    +0.005 A 
BRANCH  25  28
ATOM     28  C   UNL     1      -4.413   1.569  24.636  0.00  0.00    +0.100 C 
ATOM     29  N   UNL     1      -5.175   1.917  24.954  0.00  0.00    -0.191 NA
ENDBRANCH  25  28
ENDBRANCH   2  22
BRANCH  12  13
ATOM     13  C   UNL     1      -3.336   0.865  24.588  0.00  0.00    +0.034 A 
ATOM     14  C   UNL     1      -3.094   1.521  24.743  0.00  0.00    +0.007 A 
ATOM     15  C   UNL     1      -2.922   2.215  24.511  0.00  0.00    +0.007 A 
ATOM     16  C   UNL     1      -3.111   2.170  23.709  0.00  0.00    +0.035 A 
ATOM     17  S   UNL     1      -3.468   1.200  23.487  0.00  0.00    -0.086 S 
ENDBRANCH  12  13
TORSDOF 3
ENDMDL
MODEL 3
REMARK VINA RESULT:     -14.3      1.946      3.402
REMARK  Name = 
REMARK  3 active torsions:
REMARK  status: ('A' for Active; 'I' for Inactive)
REMARK    1  A    between atoms: C_2  and  C_22
REMARK    2  A    between atoms: C_12  and  C_13
REMARK    3  A    between atoms: C_25  and  C_28
REMARK                            x       y       z     vdW  Elec       q    Type
REMARK                         _______ _______ _______ _____ _____    ______ ____
ROOT
ATOM      1  O   UNL     1      -3.509   1.079  23.733  0.00  0.00    -0.270 OA
ATOM      2  C   UNL     1      -3.474   1.779  24.245  0.00  0.00    +0.249 C 
ATOM      3  N   UNL     1      -4.228   1.915  24.587  0.00  0.00    -0.276 N 
ATOM      4  C   UNL     1      -5.028   1.691  24.674  0.00  0.00    +0.096 C 
ATOM      5  C   UNL     1      -5.330   2.395  25.297  0.00  0.00    +0.043 C 
ATOM      6  C   UNL     1      -5.730   2.897  25.800  0.00  0.00    +0.011 C 
ATOM      7  C   UNL     1      -5.080   2.829  25.542  0.00  0.00    +0.058 C 
ATOM      8  C   UNL     1      -4.803   2.142  24.940  0.00  0.00    +0.099 C 
ATOM      9  C   UNL     1      -4.249   3.221  25.571  0.00  0.00    +0.041 A 
ATOM     10  C   UNL     1      -3.851   3.854  25.918  0.00  0.00    +0.013 A 
ATOM     11  C   UNL     1      -3.052   3.977  25.756  0.00  0.00    +0.006 A 
ATOM     12  C   UNL     1      -2.697   3.375  25.192  0.00  0.00    +0.062 A 
ATOM     18  C   UNL     1      -3.048   2.834  24.899  0.00  0.00    +0.261 A 
ATOM     19  O   UNL     1      -2.808   2.069  24.251  0.00  0.00    -0.267 OA
ATOM     20  N   UNL     1      -3.848   2.711  25.061  0.00  0.00    -0.299 N 
ATOM     21  C   UNL     1      -4.459   2.797  25.321  0.00  0.00    +0.110 C 
ENDROOT
BRANCH   2  22
ATOM     22  C   UNL     1      -2.907   2.463  24.577  0.00  0.00    +0.054 A 
ATOM     23  C   UNL     1      -2.824   3.124  24.091  0.00  0.00    +0.005 A 
ATOM     24  C   UNL     1      -2.342   3.751  24.328  0.00  0.00    +0.010 A 
ATOM     25  C   UNL     1      -1.945   3.717  25.050  0.00  0.00    +0.068 A 
ATOM     26  C   UNL     1      -2.029   3.054  25.536  0.00  0.00    +0.010 A 
ATOM     27  C   UNL     1      -2.511   2.427  25.299  0.00  0.00    +0.005 A 
BRANCH  25  28
ATOM     28  C   UNL     1      -1.460   4.459  25.184  0.00  0.00    +0.100 C 
ATOM     29  N   UNL     1      -1.262   5.328  25.094  0.00  0.00    -0.191 NA
ENDBRANCH  25  28
ENDBRANCH   2  22
BRANCH  12  13
ATOM     13  C   UNL     1      -1.988   3.314  24.921  0.00  0.00    +0.034 A 
ATOM     14  C   UNL     1      -1.337   3.262  24.627  0.00  0.00    +0.007 A 
ATOM     15  C   UNL     1      -0.597   3.165  24.713  0.00  0.00    +0.007 A 
ATOM     16  C   UNL     1      -0.539   3.084  25.533  0.00  0.00    +0.035 A 
ATOM     17  S   UNL     1      -1.502   3.162  25.962  0.00  0.00    -0.086 S 
ENDBRANCH  12  13
TORSDOF 3
ENDMDL
MODEL 4
REMARK VINA RESULT:     -14.1      2.261      3.409
REMARK  Name = 
REMARK  3 active torsions:
REMARK  status: ('A' for Active; 'I' for Inactive)
REMARK    1  A    between atoms: C_2  and  C_22
REMARK    2  A    between atoms: C_12  and  C_13
REMARK    3  A    between atoms: C_25  and  C_28
REMARK                            x       y       z     vdW  Elec       q    Type
REMARK                         _______ _______ _______ _____ _____    ______ ____
ROOT
ATOM      1  O   UNL     1      -2.271   1.832  23.018  0.00  0.00    -0.270 OA
ATOM      2  C   UNL     1      -2.522   2.312  23.696  0.00  0.00    +0.249 C 
ATOM      3  N   UNL     1      -1.859   2.708  24.022  0.00  0.00    -0.276 N 
ATOM      4  C   UNL     1      -1.039   2.868  24.006  0.00  0.00    +0.096 C 
ATOM      5  C   UNL     1      -0.975   3.485  24.775  0.00  0.00    +0.043 C 
ATOM      6  C   UNL     1      -0.758   3.997  25.370  0.00  0.00    +0.011 C 
ATOM      7  C   UNL     1      -1.345   3.691  25.138  0.00  0.00    +0.058 C 
ATOM      8  C   UNL     1      -1.390   3.096  24.392  0.00  0.00    +0.099 C 
ATOM      9  C   UNL     1      -2.246   3.637  25.311  0.00  0.00    +0.041 A 
ATOM     10  C   UNL     1      -2.817   3.925  25.831  0.00  0.00    +0.013 A 
ATOM     11  C   UNL     1      -3.604   3.694  25.749  0.00  0.00    +0.006 A 
ATOM     12  C   UNL     1      -3.749   3.128  25.067  0.00  0.00    +0.062 A 
ATOM     18  C   UNL     1      -3.251   2.887  24.625  0.00  0.00    +0.261 A 
ATOM     19  O   UNL     1      -3.237   2.252  23.812  0.00  0.00    -0.267 OA
ATOM     20  N   UNL     1      -2.463   3.118  24.707  0.00  0.00    -0.299 N 
ATOM     21  C   UNL     1      -1.918   3.422  24.948  0.00  0.00    +0.110 C 
ENDROOT
BRANCH   2  22
ATOM     22  C   UNL     1      -3.267   2.569  24.224  0.00  0.00    +0.054 A 
ATOM     23  C   UNL     1      -3.712   3.199  23.932  0.00  0.00    +0.005 A 
ATOM     24  C   UNL     1      -4.372   3.466  24.349  0.00  0.00    +0.010 A 
ATOM     25  C   UNL     1      -4.587   3.103  25.057  0.00  0.00    +0.068 A 
ATOM     26  C   UNL     1      -4.142   2.473  25.350  0.00  0.00    +0.010 A 
ATOM     27  C   UNL     1      -3.481   2.205  24.932  0.00  0.00    +0.005 A 
BRANCH  25  28
ATOM     28  C   UNL     1      -5.318   3.489  25.405  0.00  0.00    +0.100 C 
ATOM     29  N   UNL     1      -5.844   4.177  25.631  0.00  0.00    -0.191 NA
ENDBRANCH  25  28
ENDBRANCH   2  22
BRANCH  12  13
ATOM     13  C   UNL     1      -4.394   2.804  24.826  0.00  0.00    +0.034 A 
ATOM     14  C   UNL     1      -4.996   2.518  24.562  0.00  0.00    +0.007 A 
ATOM     15  C   UNL     1      -5.598   2.079  24.661  0.00  0.00    +0.007 A 
ATOM     16  C   UNL     1      -5.489   1.827  25.440  0.00  0.00    +0.035 A 
ATOM     17  S   UNL     1      -4.600   2.253  25.824  0.00  0.00    -0.086 S 
ENDBRANCH  12  13
TORSDOF 3
ENDMDL
MODEL 5
REMARK VINA RESULT:     -13.9      1.169      3.153
REMARK  Name = 
REMARK  3 active torsions:
REMARK  status: ('A' for Active; 'I' for Inactive)
REMARK    1  A    between atoms: C_2  and  C_22
REMARK    2  A    between atoms: C_12  and  C_13
REMARK    3  A    between atoms: C_25  and  C_28
REMARK                            x       y       z     vdW  Elec       q    Type
REMARK                         _______ _______ _______ _____ _____    ______ ____
ROOT
ATOM      1  O   UNL     1      -1.421   0.684  24.336  0.00  0.00    -0.270 OA
ATOM      2  C   UNL     1      -2.277   0.792  24.430  0.00  0.00    +0.249 C 
ATOM      3  N   UNL     1      -2.663   0.050  24.368  0.00  0.00    -0.276 N 
ATOM      4  C   UNL     1      -2.616  -0.777  24.256  0.00  0.00    +0.096 C 
ATOM      5  C   UNL     1      -3.575  -1.007  24.315  0.00  0.00    +0.043 C 
ATOM      6  C   UNL     1      -4.311  -1.355  24.337  0.00  0.00    +0.011 C 
ATOM      7  C   UNL     1      -4.040  -0.711  24.397  0.00  0.00    +0.058 C 
ATOM      8  C   UNL     1      -3.109  -0.504  24.337  0.00  0.00    +0.099 C 
ATOM      9  C   UNL     1      -4.285   0.164  24.534  0.00  0.00    +0.041 A 
ATOM     10  C   UNL     1      -4.955   0.630  24.657  0.00  0.00    +0.013 A 
ATOM     11  C   UNL     1      -4.878   1.445  24.757  0.00  0.00    +0.006 A 
ATOM     12  C   UNL     1      -4.030   1.739  24.717  0.00  0.00    +0.062 A 
ATOM     18  C   UNL     1      -3.461   1.329  24.610  0.00  0.00    +0.261 A 
ATOM     19  O   UNL     1      -2.445   1.490  24.537  0.00  0.00    -0.267 OA
ATOM     20  N   UNL     1      -3.538   0.514  24.511  0.00  0.00    -0.299 N 
ATOM     21  C   UNL     1      -3.822  -0.090  24.458  0.00  0.00    +0.110 C 
ENDROOT
BRANCH   2  22
ATOM     22  C   UNL     1      -2.961   1.432  24.577  0.00  0.00    +0.054 A 
ATOM     23  C   UNL     1      -3.093   1.639  25.365  0.00  0.00    +0.005 A 
ATOM     24  C   UNL     1      -3.676   2.193  25.553  0.00  0.00    +0.010 A 
ATOM     25  C   UNL     1      -4.126   2.538  24.955  0.00  0.00    +0.068 A 
ATOM     26  C   UNL     1      -3.994   2.330  24.167  0.00  0.00    +0.010 A 
ATOM     27  C   UNL     1      -3.411   1.777  23.979  0.00  0.00    +0.005 A 
BRANCH  25  28
ATOM     28  C   UNL     1      -4.719   3.117  25.296  0.00  0.00    +0.100 C 
ATOM     29  N   UNL     1      -5.309   3.416  25.900  0.00  0.00    -0.191 NA
ENDBRANCH  25  28
ENDBRANCH   2  22
BRANCH  12  13
ATOM     13  C   UNL     1      -3.750   2.444  24.783  0.00  0.00    +0.034 A 
ATOM     14  C   UNL     1      -3.466   3.094  24.881  0.00  0.00    +0.007 A 
ATOM     15  C   UNL     1      -3.401   3.808  24.657  0.00  0.00    +0.007 A 
ATOM     16  C   UNL     1      -3.894   3.817  23.995  0.00  0.00    +0.035 A 
ATOM     17  S   UNL     1      -4.311   2.855  23.857  0.00  0.00    -0.086 S 
ENDBRANCH  12  13
TORSDOF 3
ENDMDL
MODEL 6
REMARK VINA RESULT:     -13.9      1.498      2.257
REMARK  Name = 
REMARK  3 active torsions:
REMARK  status: ('A' for Active; 'I' for Inactive)
REMARK    1  A    between atoms: C_2  and  C_22
REMARK    2  A    between atoms: C_12  and  C_13
REMARK    3  A    between atoms: C_25  and  C_28
REMARK                            x       y       z     vdW  Elec       q    Type
REMARK                         _______ _______ _______ _____ _____    ______ ____
ROOT
ATOM      1  O   UNL     1      -4.003   4.308  25.205  0.00  0.00    -0.270 OA
ATOM      2  C   UNL     1      -4.021   3.456  25.039  0.00  0.00    +0.249 C 
ATOM      3  N   UNL     1      -4.770   3.144  25.250  0.00  0.00    -0.276 N 
ATOM      4  C   UNL     1      -5.538   3.265  25.556  0.00  0.00    +0.096 C 
ATOM      5  C   UNL     1      -5.887   2.342  25.497  0.00  0.00    +0.043 C 
ATOM      6  C   UNL     1      -6.316   1.650  25.514  0.00  0.00    +0.011 C 
ATOM      7  C   UNL     1      -5.674   1.858  25.321  0.00  0.00    +0.058 C 
ATOM      8  C   UNL     1      -5.351   2.755  25.384  0.00  0.00    +0.099 C 
ATOM      9  C   UNL     1      -4.888   1.538  24.968  0.00  0.00    +0.041 A 
ATOM     10  C   UNL     1      -4.545   0.837  24.700  0.00  0.00    +0.013 A 
ATOM     11  C   UNL     1      -3.771   0.840  24.416  0.00  0.00    +0.006 A 
ATOM     12  C   UNL     1      -3.378   1.647  24.436  0.00  0.00    +0.062 A 
ATOM     18  C   UNL     1      -3.682   2.243  24.669  0.00  0.00    +0.261 A 
ATOM     19  O   UNL     1      -3.390   3.228  24.761  0.00  0.00    -0.267 OA
ATOM     20  N   UNL     1      -4.457   2.241  24.952  0.00  0.00    -0.299 N 
ATOM     21  C   UNL     1      -5.062   2.017  25.129  0.00  0.00    +0.110 C 
ENDROOT
BRANCH   2  22
ATOM     22  C   UNL     1      -3.516   2.726  24.705  0.00  0.00    +0.054 A 
ATOM     23  C   UNL     1      -3.007   2.367  25.246  0.00  0.00    +0.005 A 
ATOM     24  C   UNL     1      -2.542   1.727  25.012  0.00  0.00    +0.010 A 
ATOM     25  C   UNL     1      -2.587   1.445  24.238  0.00  0.00    +0.068 A 
ATOM     26  C   UNL     1      -3.097   1.805  23.697  0.00  0.00    +0.010 A 
ATOM     27  C   UNL     1      -3.562   2.445  23.931  0.00  0.00    +0.005 A 
BRANCH  25  28
ATOM     28  C   UNL     1      -2.033   0.751  24.118  0.00  0.00    +0.100 C 
ATOM     29  N   UNL     1      -1.585   0.016  24.367  0.00  0.00    -0.191 NA
ENDBRANCH  25  28
ENDBRANCH   2  22
BRANCH  12  13
ATOM     13  C   UNL     1      -2.678   1.859  24.222  0.00  0.00    +0.034 A 
ATOM     14  C   UNL     1      -2.012   2.068  24.062  0.00  0.00    +0.007 A 
ATOM     15  C   UNL     1      -1.473   2.161  23.547  0.00  0.00    +0.007 A 
ATOM     16  C   UNL     1      -1.850   1.887  22.865  0.00  0.00    +0.035 A 
ATOM     17  S   UNL     1      -2.831   1.579  23.109  0.00  0.00    -0.086 S 
ENDBRANCH  12  13
TORSDOF 3
ENDMDL
