REMARK  Name = 
REMARK  5 active torsions:
REMARK  status: ('A' for Active; 'I' for Inactive)
REMARK    1  A    between atoms: N_5  and  C_8
REMARK    2  A    between atoms: C_9  and  C_10
REMARK    3  A    between atoms: C_10  and  N_11
REMARK    4  A    between atoms: N_11  and  C_12
REMARK    5  A    between atoms: C_19  and  C_20
REMARK                            x       y       z     vdW  Elec       q    Type
REMARK                         _______ _______ _______ _____ _____    ______ ____
ROOT
ATOM      8  C   UNL     1       1.429  -2.475   0.000  0.00  0.00    +0.120 C 
ATOM      9  C   UNL     1       2.096  -2.960   0.000  0.00  0.00    +0.150 C 
ATOM     18  O   UNL     1       1.841  -3.744   0.000  0.00  0.00    -0.350 OA
ATOM     19  C   UNL     1       1.016  -3.744   0.000  0.00  0.00    +0.180 C 
ATOM     22  C   UNL     1       0.761  -2.960   0.000  0.00  0.00    +0.198 C 
ATOM     23  O   UNL     1      -0.023  -2.705   0.000  0.00  0.00    -0.219 OA
ENDROOT
BRANCH   8   5
ATOM      1  C   UNL     1       1.429   0.825   0.000  0.00  0.00    +0.000 C 
ATOM      2  C   UNL     1       1.429   0.000   0.000  0.00  0.00    +0.003 C 
ATOM      3  C   UNL     1       2.143  -0.412   0.000  0.00  0.00    +0.017 C 
ATOM      4  C   UNL     1       2.143  -1.238   0.000  0.00  0.00    +0.072 C 
ATOM      5  N   UNL     1       1.429  -1.650   0.000  0.00  0.00    -0.270 NA
ATOM      6  C   UNL     1       0.715  -1.238   0.000  0.00  0.00    +0.072 C 
ATOM      7  C   UNL     1       0.715  -0.412   0.000  0.00  0.00    +0.017 C 
ENDBRANCH   8   5
BRANCH  19  20
ATOM     20  C   UNL     1       0.531  -4.412   0.000  0.00  0.00    +0.214 C 
ATOM     21  O   UNL     1      -0.289  -4.326   0.000  0.00  0.00    -0.218 OA
ENDBRANCH  19  20
BRANCH   9  10
ATOM     10  C   UNL     1       2.881  -2.705   0.000  0.00  0.00    +0.120 C 
BRANCH  10  11
ATOM     11  N   UNL     1       3.053  -1.898   0.000  0.00  0.00    -0.217 NA
BRANCH  11  12
ATOM     12  C   UNL     1       3.837  -1.643   0.000  0.00  0.00    +0.073 C 
ATOM     13  C   UNL     1       4.009  -0.836   0.000  0.00  0.00    +0.017 C 
ATOM     14  C   UNL     1       4.793  -0.581   0.000  0.00  0.00    +0.001 C 
ATOM     15  C   UNL     1       5.406  -1.133   0.000  0.00  0.00    +0.000 C 
ATOM     16  C   UNL     1       5.235  -1.940   0.000  0.00  0.00    +0.001 C 
ATOM     17  C   UNL     1       4.450  -2.195   0.000  0.00  0.00    +0.017 C 
ENDBRANCH  11  12
ENDBRANCH  10  11
ENDBRANCH   9  10
TORSDOF 5
