MODEL 1
REMARK VINA RESULT:     -12.8      0.000      0.000
REMARK  Name = 
REMARK  5 active torsions:
REMARK  status: ('A' for Active; 'I' for Inactive)
REMARK    1  A    between atoms: C_2  and  C_4
REMARK    2  A    between atoms: C_7  and  C_8
REMARK    3  A    between atoms: C_8  and  N_9
REMARK    4  A    between atoms: C_14  and  C_15
REMARK    5  A    between atoms: C_17  and  C_20
REMARK                            x       y       z     vdW  Elec       q    Type
REMARK                         _______ _______ _______ _____ _____    ______ ____
ROOT
ATOM      9  N   UNL     1      -4.147   2.470  25.186  0.00  0.00    -0.260 NA
ATOM     10  C   UNL     1      -4.429   3.161  25.536  0.00  0.00    +0.105 C 
ATOM     11  C   UNL     1      -5.234   3.239  25.707  0.00  0.00    +0.160 C 
ATOM     12  O   UNL     1      -5.754   2.625  25.526  0.00  0.00    -0.350 OA
ATOM     13  C   UNL     1      -5.472   1.934  25.175  0.00  0.00    +0.166 C 
ATOM     14  C   UNL     1      -4.669   1.856  25.005  0.00  0.00    +0.147 C 
ENDROOT
BRANCH  14  15
ATOM     15  C   UNL     1      -4.386   1.164  24.654  0.00  0.00    +0.156 A 
ATOM     16  N   UNL     1      -4.322   0.428  25.018  0.00  0.00    -0.228 NA
ATOM     17  C   UNL     1      -4.014  -0.103  24.466  0.00  0.00    +0.102 A 
ATOM     18  C   UNL     1      -3.888   0.306  23.761  0.00  0.00    +0.119 A 
ATOM     19  N   UNL     1      -4.118   1.090  23.877  0.00  0.00    -0.226 NA
BRANCH  17  20
ATOM     20  C   UNL     1      -3.859  -0.903  24.596  0.00  0.00    +0.019 A 
ATOM     21  C   UNL     1      -4.103  -1.465  24.044  0.00  0.00    +0.002 A 
ATOM     22  C   UNL     1      -3.948  -2.265  24.174  0.00  0.00    +0.011 A 
ATOM     23  C   UNL     1      -3.550  -2.503  24.856  0.00  0.00    +0.058 A 
ATOM     24 CL   UNL     1      -3.395  -3.303  24.986  0.00  0.00    -0.082 Cl
ATOM     25  C   UNL     1      -3.306  -1.940  25.409  0.00  0.00    +0.011 A 
ATOM     26  C   UNL     1      -3.461  -1.140  25.279  0.00  0.00    +0.002 A 
ENDBRANCH  17  20
ENDBRANCH  14  15
BRANCH   9   8
ATOM      8  C   UNL     1      -3.343   2.393  25.016  0.00  0.00    +0.100 C 
BRANCH   8   7
ATOM      4  C   UNL     1      -1.861   4.372  25.112  0.00  0.00    +0.080 A 
ATOM      5  C   UNL     1      -2.320   4.232  24.440  0.00  0.00    +0.006 A 
ATOM      6  C   UNL     1      -2.814   3.573  24.409  0.00  0.00    -0.003 A 
ATOM      7  C   UNL     1      -2.849   3.052  25.048  0.00  0.00    -0.006 A 
ATOM     27  C   UNL     1      -2.390   3.191  25.718  0.00  0.00    -0.003 A 
ATOM     28  C   UNL     1      -1.896   3.851  25.751  0.00  0.00    +0.006 A 
BRANCH   4   2
ATOM      1  O   UNL     1      -0.562   4.952  24.976  0.00  0.00    -0.241 OA
ATOM      2  C   UNL     1      -1.367   5.031  25.143  0.00  0.00    +0.388 C 
ATOM      3  O   UNL     1      -1.676   5.769  25.341  0.00  0.00    -0.241 OA
ENDBRANCH   4   2
ENDBRANCH   8   7
ENDBRANCH   9   8
TORSDOF 5
ENDMDL
MODEL 2
REMARK VINA RESULT:     -12.7      2.410      5.036
REMARK  Name = 
REMARK  5 active torsions:
REMARK  status: ('A' for Active; 'I' for Inactive)
REMARK    1  A    between atoms: C_2  and  C_4
REMARK    2  A    between atoms: C_7  and  C_8
REMARK    3  A    between atoms: C_8  and  N_9
REMARK    4  A    between atoms: C_14  and  C_15
REMARK    5  A    between atoms: C_17  and  C_20
REMARK                            x       y       z     vdW  Elec       q    Type
REMARK                         _______ _______ _______ _____ _____    ______ ____
ROOT
ATOM      9  N   UNL     1      -4.703   1.260  25.022  0.00  0.00    -0.260 NA
ATOM     10  C   UNL     1      -5.295   0.791  25.356  0.00  0.00    +0.105 C 
ATOM     11  C   UNL     1      -5.953   1.146  25.708  0.00  0.00    +0.160 C 
ATOM     12  O   UNL     1      -6.017   1.968  25.726  0.00  0.00    -0.350 OA
ATOM     13  C   UNL     1      -5.426   2.436  25.392  0.00  0.00    +0.166 C 
ATOM     14  C   UNL     1      -4.770   2.082  25.041  0.00  0.00    +0.147 C 
ENDROOT
BRANCH  14  15
ATOM     15  C   UNL     1      -4.177   2.551  24.706  0.00  0.00    +0.156 A 
ATOM     16  N   UNL     1      -3.519   2.853  25.100  0.00  0.00    -0.228 NA
ATOM     17  C   UNL     1      -3.075   3.288  24.557  0.00  0.00    +0.102 A 
ATOM     18  C   UNL     1      -3.460   3.254  23.828  0.00  0.00    +0.119 A 
ATOM     19  N   UNL     1      -4.142   2.798  23.920  0.00  0.00    -0.226 NA
BRANCH  17  20
ATOM     20  C   UNL     1      -2.370   3.687  24.715  0.00  0.00    +0.019 A 
ATOM     21  C   UNL     1      -1.647   3.321  24.562  0.00  0.00    +0.002 A 
ATOM     22  C   UNL     1      -0.942   3.720  24.720  0.00  0.00    +0.011 A 
ATOM     23  C   UNL     1      -0.960   4.483  25.031  0.00  0.00    +0.058 A 
ATOM     24 CL   UNL     1      -0.255   4.882  25.189  0.00  0.00    -0.082 Cl
ATOM     25  C   UNL     1      -1.684   4.849  25.185  0.00  0.00    +0.011 A 
ATOM     26  C   UNL     1      -2.389   4.450  25.026  0.00  0.00    +0.002 A 
ENDBRANCH  17  20
ENDBRANCH  14  15
BRANCH   9   8
ATOM      8  C   UNL     1      -4.047   0.905  24.671  0.00  0.00    +0.100 C 
BRANCH   8   7
ATOM      4  C   UNL     1      -3.789  -1.555  24.725  0.00  0.00    +0.080 A 
ATOM      5  C   UNL     1      -4.173  -1.194  24.090  0.00  0.00    +0.006 A 
ATOM      6  C   UNL     1      -4.259  -0.374  24.072  0.00  0.00    -0.003 A 
ATOM      7  C   UNL     1      -3.961   0.085  24.689  0.00  0.00    -0.006 A 
ATOM     27  C   UNL     1      -3.577  -0.275  25.323  0.00  0.00    -0.003 A 
ATOM     28  C   UNL     1      -3.490  -1.096  25.342  0.00  0.00    +0.006 A 
BRANCH   4   2
ATOM      1  O   UNL     1      -3.478  -2.752  25.442  0.00  0.00    -0.241 OA
ATOM      2  C   UNL     1      -3.703  -2.375  24.742  0.00  0.00    +0.388 C 
ATOM      3  O   UNL     1      -3.842  -2.819  24.062  0.00  0.00    -0.241 OA
ENDBRANCH   4   2
ENDBRANCH   8   7
ENDBRANCH   9   8
TORSDOF 5
ENDMDL
MODEL 3
REMARK VINA RESULT:     -12.0      3.269      5.932
REMARK  Name = 
REMARK  5 active torsions:
REMARK  status: ('A' for Active; 'I' for Inactive)
REMARK    1  A    between atoms: C_2  and  C_4
REMARK    2  A    between atoms: C_7  and  C_8
REMARK    3  A    between atoms: C_8  and  N_9
REMARK    4  A    between atoms: C_14  and  C_15
REMARK    5  A    between atoms: C_17  and  C_20
REMARK                            x       y       z     vdW  Elec       q    Type
REMARK                         _______ _______ _______ _____ _____    ______ ____
ROOT
ATOM      9  N   UNL     1      -0.745   0.217  24.459  0.00  0.00    -0.260 NA
ATOM     10  C   UNL     1      -0.579  -0.447  23.998  0.00  0.00    +0.105 C 
ATOM     11  C   UNL     1       0.102  -0.468  23.533  0.00  0.00    +0.160 C 
ATOM     12  O   UNL     1       0.617   0.177  23.528  0.00  0.00    -0.350 OA
ATOM     13  C   UNL     1       0.452   0.841  23.988  0.00  0.00    +0.166 C 
ATOM     14  C   UNL     1      -0.229   0.861  24.453  0.00  0.00    +0.147 C 
ENDROOT
BRANCH  14  15
ATOM     15  C   UNL     1      -0.394   1.527  24.914  0.00  0.00    +0.156 A 
ATOM     16  N   UNL     1      -0.715   2.236  24.643  0.00  0.00    -0.228 NA
ATOM     17  C   UNL     1      -0.787   2.746  25.287  0.00  0.00    +0.102 A 
ATOM     18  C   UNL     1      -0.510   2.351  25.957  0.00  0.00    +0.119 A 
ATOM     19  N   UNL     1      -0.267   1.597  25.726  0.00  0.00    -0.226 NA
BRANCH  17  20
ATOM     20  C   UNL     1      -1.083   3.516  25.267  0.00  0.00    +0.019 A 
ATOM     21  C   UNL     1      -0.633   4.121  24.933  0.00  0.00    +0.002 A 
ATOM     22  C   UNL     1      -0.930   4.891  24.912  0.00  0.00    +0.011 A 
ATOM     23  C   UNL     1      -1.675   5.055  25.224  0.00  0.00    +0.058 A 
ATOM     24 CL   UNL     1      -1.971   5.825  25.203  0.00  0.00    -0.082 Cl
ATOM     25  C   UNL     1      -2.125   4.449  25.559  0.00  0.00    +0.011 A 
ATOM     26  C   UNL     1      -1.828   3.679  25.579  0.00  0.00    +0.002 A 
ENDBRANCH  17  20
ENDBRANCH  14  15
BRANCH   9   8
ATOM      8  C   UNL     1      -1.426   0.237  24.924  0.00  0.00    +0.100 C 
BRANCH   8   7
ATOM      4  C   UNL     1      -3.161  -1.507  24.656  0.00  0.00    +0.080 A 
ATOM      5  C   UNL     1      -3.225  -0.794  24.244  0.00  0.00    +0.006 A 
ATOM      6  C   UNL     1      -2.646  -0.213  24.333  0.00  0.00    -0.003 A 
ATOM      7  C   UNL     1      -2.004  -0.344  24.835  0.00  0.00    -0.006 A 
ATOM     27  C   UNL     1      -1.941  -1.055  25.246  0.00  0.00    -0.003 A 
ATOM     28  C   UNL     1      -2.519  -1.637  25.158  0.00  0.00    +0.006 A 
BRANCH   4   2
ATOM      1  O   UNL     1      -4.370  -1.965  24.047  0.00  0.00    -0.241 OA
ATOM      2  C   UNL     1      -3.740  -2.088  24.566  0.00  0.00    +0.388 C 
ATOM      3  O   UNL     1      -3.689  -2.790  24.995  0.00  0.00    -0.241 OA
ENDBRANCH   4   2
ENDBRANCH   8   7
ENDBRANCH   9   8
TORSDOF 5
ENDMDL
MODEL 4
REMARK VINA RESULT:     -12.0      2.266      3.076
REMARK  Name = 
REMARK  5 active torsions:
REMARK  status: ('A' for Active; 'I' for Inactive)
REMARK    1  A    between atoms: C_2  and  C_4
REMARK    2  A    between atoms: C_7  and  C_8
REMARK    3  A    between atoms: C_8  and  N_9
REMARK    4  A    between atoms: C_14  and  C_15
REMARK    5  A    between atoms: C_17  and  C_20
REMARK                            x       y       z     vdW  Elec       q    Type
REMARK                         _______ _______ _______ _____ _____    ______ ____
ROOT
ATOM      9  N   UNL     1      -0.502   1.211  24.642  0.00  0.00    -0.260 NA
ATOM     10  C   UNL     1       0.066   1.747  24.374  0.00  0.00    +0.105 C 
ATOM     11  C   UNL     1       0.695   1.484  23.909  0.00  0.00    +0.160 C 
ATOM     12  O   UNL     1       0.756   0.685  23.713  0.00  0.00    -0.350 OA
ATOM     13  C   UNL     1       0.189   0.149  23.982  0.00  0.00    +0.166 C 
ATOM     14  C   UNL     1      -0.439   0.412  24.446  0.00  0.00    +0.147 C 
ENDROOT
BRANCH  14  15
ATOM     15  C   UNL     1      -1.007  -0.124  24.715  0.00  0.00    +0.156 A 
ATOM     16  N   UNL     1      -1.629  -0.433  24.271  0.00  0.00    -0.228 NA
ATOM     17  C   UNL     1      -2.058  -0.945  24.756  0.00  0.00    +0.102 A 
ATOM     18  C   UNL     1      -1.700  -0.951  25.500  0.00  0.00    +0.119 A 
ATOM     19  N   UNL     1      -1.050  -0.443  25.474  0.00  0.00    -0.226 NA
BRANCH  17  20
ATOM     20  C   UNL     1      -2.727  -1.375  24.537  0.00  0.00    +0.019 A 
ATOM     21  C   UNL     1      -3.406  -0.979  24.284  0.00  0.00    +0.002 A 
ATOM     22  C   UNL     1      -4.075  -1.409  24.065  0.00  0.00    +0.011 A 
ATOM     23  C   UNL     1      -4.066  -2.233  24.098  0.00  0.00    +0.058 A 
ATOM     24 CL   UNL     1      -4.735  -2.663  23.878  0.00  0.00    -0.082 Cl
ATOM     25  C   UNL     1      -3.387  -2.629  24.351  0.00  0.00    +0.011 A 
ATOM     26  C   UNL     1      -2.717  -2.199  24.570  0.00  0.00    +0.002 A 
ENDBRANCH  17  20
ENDBRANCH  14  15
BRANCH   9   8
ATOM      8  C   UNL     1      -1.130   1.475  25.107  0.00  0.00    +0.100 C 
BRANCH   8   7
ATOM      4  C   UNL     1      -1.584   3.899  25.318  0.00  0.00    +0.080 A 
ATOM      5  C   UNL     1      -1.917   3.469  24.697  0.00  0.00    +0.006 A 
ATOM      6  C   UNL     1      -1.766   2.661  24.627  0.00  0.00    -0.003 A 
ATOM      7  C   UNL     1      -1.281   2.283  25.177  0.00  0.00    -0.006 A 
ATOM     27  C   UNL     1      -0.948   2.712  25.797  0.00  0.00    -0.003 A 
ATOM     28  C   UNL     1      -1.099   3.520  25.868  0.00  0.00    +0.006 A 
BRANCH   4   2
ATOM      1  O   UNL     1      -1.196   5.255  25.087  0.00  0.00    -0.241 OA
ATOM      2  C   UNL     1      -1.735   4.707  25.388  0.00  0.00    +0.388 C 
ATOM      3  O   UNL     1      -2.424   4.967  25.757  0.00  0.00    -0.241 OA
ENDBRANCH   4   2
ENDBRANCH   8   7
ENDBRANCH   9   8
TORSDOF 5
ENDMDL
MODEL 5
REMARK VINA RESULT:     -10.9      2.013      2.992
REMARK  Name = 
REMARK  5 active torsions:
REMARK  status: ('A' for Active; 'I' for Inactive)
REMARK    1  A    between atoms: C_2  and  C_4
REMARK    2  A    between atoms: C_7  and  C_8
REMARK    3  A    between atoms: C_8  and  N_9
REMARK    4  A    between atoms: C_14  and  C_15
REMARK    5  A    between atoms: C_17  and  C_20
REMARK                            x       y       z     vdW  Elec       q    Type
REMARK                         _______ _______ _______ _____ _____    ______ ____
ROOT
ATOM      9  N   UNL     1      -1.253   1.754  24.843  0.00  0.00    -0.260 NA
ATOM     10  C   UNL     1      -0.967   2.476  24.565  0.00  0.00    +0.105 C 
ATOM     11  C   UNL     1      -0.218   2.518  24.219  0.00  0.00    +0.160 C 
ATOM     12  O   UNL     1       0.243   1.837  24.152  0.00  0.00    -0.350 OA
ATOM     13  C   UNL     1      -0.043   1.116  24.431  0.00  0.00    +0.166 C 
ATOM     14  C   UNL     1      -0.790   1.074  24.776  0.00  0.00    +0.147 C 
ENDROOT
BRANCH  14  15
ATOM     15  C   UNL     1      -1.077   0.351  25.055  0.00  0.00    +0.156 A 
ATOM     16  N   UNL     1      -1.603  -0.145  24.660  0.00  0.00    -0.228 NA
ATOM     17  C   UNL     1      -1.738  -0.804  25.139  0.00  0.00    +0.102 A 
ATOM     18  C   UNL     1      -1.295  -0.714  25.828  0.00  0.00    +0.119 A 
ATOM     19  N   UNL     1      -0.885   0.001  25.777  0.00  0.00    -0.226 NA
BRANCH  17  20
ATOM     20  C   UNL     1      -2.230  -1.442  24.959  0.00  0.00    +0.019 A 
ATOM     21  C   UNL     1      -3.019  -1.435  25.201  0.00  0.00    +0.002 A 
ATOM     22  C   UNL     1      -3.511  -2.072  25.021  0.00  0.00    +0.011 A 
ATOM     23  C   UNL     1      -3.215  -2.716  24.600  0.00  0.00    +0.058 A 
ATOM     24 CL   UNL     1      -3.707  -3.353  24.420  0.00  0.00    -0.082 Cl
ATOM     25  C   UNL     1      -2.426  -2.723  24.357  0.00  0.00    +0.011 A 
ATOM     26  C   UNL     1      -1.934  -2.085  24.537  0.00  0.00    +0.002 A 
ENDBRANCH  17  20
ENDBRANCH  14  15
BRANCH   9   8
ATOM      8  C   UNL     1      -2.001   1.713  25.189  0.00  0.00    +0.100 C 
BRANCH   8   7
ATOM      4  C   UNL     1      -3.646   3.520  24.801  0.00  0.00    +0.080 A 
ATOM      5  C   UNL     1      -3.618   2.871  24.291  0.00  0.00    +0.006 A 
ATOM      6  C   UNL     1      -3.069   2.269  24.420  0.00  0.00    -0.003 A 
ATOM      7  C   UNL     1      -2.549   2.315  25.059  0.00  0.00    -0.006 A 
ATOM     27  C   UNL     1      -2.578   2.963  25.568  0.00  0.00    -0.003 A 
ATOM     28  C   UNL     1      -3.126   3.566  25.440  0.00  0.00    +0.006 A 
BRANCH   4   2
ATOM      1  O   UNL     1      -4.088   4.649  24.044  0.00  0.00    -0.241 OA
ATOM      2  C   UNL     1      -4.195   4.122  24.671  0.00  0.00    +0.388 C 
ATOM      3  O   UNL     1      -4.849   4.198  25.166  0.00  0.00    -0.241 OA
ENDBRANCH   4   2
ENDBRANCH   8   7
ENDBRANCH   9   8
TORSDOF 5
ENDMDL
MODEL 6
REMARK VINA RESULT:     -10.8      2.902      4.674
REMARK  Name = 
REMARK  5 active torsions:
REMARK  status: ('A' for Active; 'I' for Inactive)
REMARK    1  A    between atoms: C_2  and  C_4
REMARK    2  A    between atoms: C_7  and  C_8
REMARK    3  A    between atoms: C_8  and  N_9
REMARK    4  A    between atoms: C_14  and  C_15
REMARK    5  A    between atoms: C_17  and  C_20
REMARK                            x       y       z     vdW  Elec       q    Type
REMARK                         _______ _______ _______ _____ _____    ______ ____
ROOT
ATOM      9  N   UNL     1      -1.061   1.840  25.173  0.00  0.00    -0.260 NA
ATOM     10  C   UNL     1      -0.302   1.711  25.469  0.00  0.00    +0.105 C 
ATOM     11  C   UNL     1       0.090   2.311  25.880  0.00  0.00    +0.160 C 
ATOM     12  O   UNL     1      -0.279   3.040  25.993  0.00  0.00    -0.350 OA
ATOM     13  C   UNL     1      -1.038   3.169  25.697  0.00  0.00    +0.166 C 
ATOM     14  C   UNL     1      -1.428   2.570  25.287  0.00  0.00    +0.147 C 
ENDROOT
BRANCH  14  15
ATOM     15  C   UNL     1      -2.188   2.700  24.991  0.00  0.00    +0.156 A 
ATOM     16  N   UNL     1      -2.892   2.439  25.331  0.00  0.00    -0.228 NA
ATOM     17  C   UNL     1      -3.515   2.692  24.853  0.00  0.00    +0.102 A 
ATOM     18  C   UNL     1      -3.196   3.109  24.217  0.00  0.00    +0.119 A 
ATOM     19  N   UNL     1      -2.375   3.114  24.302  0.00  0.00    -0.226 NA
BRANCH  17  20
ATOM     20  C   UNL     1      -4.318   2.551  24.987  0.00  0.00    +0.019 A 
ATOM     21  C   UNL     1      -4.675   1.878  24.673  0.00  0.00    +0.002 A 
ATOM     22  C   UNL     1      -5.478   1.737  24.807  0.00  0.00    +0.011 A 
ATOM     23  C   UNL     1      -5.921   2.270  25.254  0.00  0.00    +0.058 A 
ATOM     24 CL   UNL     1      -6.723   2.130  25.388  0.00  0.00    -0.082 Cl
ATOM     25  C   UNL     1      -5.562   2.945  25.567  0.00  0.00    +0.011 A 
ATOM     26  C   UNL     1      -4.760   3.085  25.433  0.00  0.00    +0.002 A 
ENDBRANCH  17  20
ENDBRANCH  14  15
BRANCH   9   8
ATOM      8  C   UNL     1      -1.451   1.240  24.762  0.00  0.00    +0.100 C 
BRANCH   8   7
ATOM      4  C   UNL     1      -0.788  -1.121  25.093  0.00  0.00    +0.080 A 
ATOM      5  C   UNL     1      -0.507  -0.701  24.440  0.00  0.00    +0.006 A 
ATOM      6  C   UNL     1      -0.728   0.086  24.331  0.00  0.00    -0.003 A 
ATOM      7  C   UNL     1      -1.230   0.454  24.873  0.00  0.00    -0.006 A 
ATOM     27  C   UNL     1      -1.511   0.034  25.524  0.00  0.00    -0.003 A 
ATOM     28  C   UNL     1      -1.291  -0.754  25.635  0.00  0.00    +0.006 A 
BRANCH   4   2
ATOM      1  O   UNL     1      -1.068  -2.515  24.952  0.00  0.00    -0.241 OA
ATOM      2  C   UNL     1      -0.567  -1.908  25.202  0.00  0.00    +0.388 C 
ATOM      3  O   UNL     1       0.153  -2.088  25.561  0.00  0.00    -0.241 OA
ENDBRANCH   4   2
ENDBRANCH   8   7
ENDBRANCH   9   8
TORSDOF 5
ENDMDL
MODEL 7
REMARK VINA RESULT:     -10.7      2.760      5.375
REMARK  Name = 
REMARK  5 active torsions:
REMARK  status: ('A' for Active; 'I' for Inactive)
REMARK    1  A    between atoms: C_2  and  C_4
REMARK    2  A    between atoms: C_7  and  C_8
REMARK    3  A    between atoms: C_8  and  N_9
REMARK    4  A    between atoms: C_14  and  C_15
REMARK    5  A    between atoms: C_17  and  C_20
REMARK                            x       y       z     vdW  Elec       q    Type
REMARK                         _______ _______ _______ _____ _____    ______ ____
ROOT
ATOM      9  N   UNL     1      -2.060   0.458  24.497  0.00  0.00    -0.260 NA
ATOM     10  C   UNL     1      -1.446  -0.077  24.628  0.00  0.00    +0.105 C 
ATOM     11  C   UNL     1      -0.662   0.166  24.544  0.00  0.00    +0.160 C 
ATOM     12  O   UNL     1      -0.493   0.945  24.330  0.00  0.00    -0.350 OA
ATOM     13  C   UNL     1      -1.107   1.480  24.200  0.00  0.00    +0.166 C 
ATOM     14  C   UNL     1      -1.890   1.237  24.283  0.00  0.00    +0.147 C 
ENDROOT
BRANCH  14  15
ATOM     15  C   UNL     1      -2.505   1.773  24.153  0.00  0.00    +0.156 A 
ATOM     16  N   UNL     1      -3.017   2.070  24.726  0.00  0.00    -0.228 NA
ATOM     17  C   UNL     1      -3.544   2.586  24.354  0.00  0.00    +0.102 A 
ATOM     18  C   UNL     1      -3.355   2.606  23.551  0.00  0.00    +0.119 A 
ATOM     19  N   UNL     1      -2.713   2.103  23.426  0.00  0.00    -0.226 NA
BRANCH  17  20
ATOM     20  C   UNL     1      -4.151   3.007  24.720  0.00  0.00    +0.019 A 
ATOM     21  C   UNL     1      -4.022   3.782  24.971  0.00  0.00    +0.002 A 
ATOM     22  C   UNL     1      -4.630   4.203  25.337  0.00  0.00    +0.011 A 
ATOM     23  C   UNL     1      -5.365   3.850  25.453  0.00  0.00    +0.058 A 
ATOM     24 CL   UNL     1      -5.973   4.271  25.819  0.00  0.00    -0.082 Cl
ATOM     25  C   UNL     1      -5.495   3.074  25.202  0.00  0.00    +0.011 A 
ATOM     26  C   UNL     1      -4.887   2.652  24.835  0.00  0.00    +0.002 A 
ENDBRANCH  17  20
ENDBRANCH  14  15
BRANCH   9   8
ATOM      8  C   UNL     1      -2.844   0.214  24.581  0.00  0.00    +0.100 C 
BRANCH   8   7
ATOM      4  C   UNL     1      -3.379  -2.194  24.772  0.00  0.00    +0.080 A 
ATOM      5  C   UNL     1      -3.217  -1.752  25.450  0.00  0.00    +0.006 A 
ATOM      6  C   UNL     1      -3.039  -0.950  25.386  0.00  0.00    -0.003 A 
ATOM      7  C   UNL     1      -3.023  -0.588  24.645  0.00  0.00    -0.006 A 
ATOM     27  C   UNL     1      -3.184  -1.029  23.967  0.00  0.00    -0.003 A 
ATOM     28  C   UNL     1      -3.363  -1.833  24.030  0.00  0.00    +0.006 A 
BRANCH   4   2
ATOM      1  O   UNL     1      -3.381  -3.404  25.532  0.00  0.00    -0.241 OA
ATOM      2  C   UNL     1      -3.558  -2.997  24.836  0.00  0.00    +0.388 C 
ATOM      3  O   UNL     1      -3.912  -3.393  24.206  0.00  0.00    -0.241 OA
ENDBRANCH   4   2
ENDBRANCH   8   7
ENDBRANCH   9   8
TORSDOF 5
ENDMDL
