REMARK  Name = 
REMARK  3 active torsions:
REMARK  status: ('A' for Active; 'I' for Inactive)
REMARK    1  A    between atoms: O_2  and  C_3
REMARK    2  A    between atoms: C_5  and  N_6
REMARK    3  A    between atoms: N_15  and  C_16
REMARK                            x       y       z     vdW  Elec       q    Type
REMARK                         _______ _______ _______ _____ _____    ______ ____
ROOT
ATOM      6  N   UNL     1       4.781   1.935   0.000  0.00  0.00    -0.162 NA
ATOM      7  C   UNL     1       4.067   2.348   0.000  0.00  0.00    +0.328 C 
ATOM      8  O   UNL     1       4.067   3.173   0.000  0.00  0.00    -0.250 OA
ATOM      9  N   UNL     1       3.352   1.935   0.000  0.00  0.00    -0.259 N 
ATOM     10  C   UNL     1       3.352   1.110   0.000  0.00  0.00    +0.117 C 
ATOM     11  C   UNL     1       2.638   0.698   0.000  0.00  0.00    +0.117 C 
ATOM     12  N   UNL     1       1.923   1.110   0.000  0.00  0.00    -0.261 N 
ATOM     13  C   UNL     1       1.923   1.935   0.000  0.00  0.00    +0.117 C 
ATOM     14  C   UNL     1       1.139   2.190   0.000  0.00  0.00    +0.116 C 
ATOM     15  N   UNL     1       0.654   1.523   0.000  0.00  0.00    -0.264 N 
ATOM     22  C   UNL     1       1.139   0.856   0.000  0.00  0.00    +0.307 C 
ATOM     23  O   UNL     1       0.884   0.071   0.000  0.00  0.00    -0.252 OA
ATOM     24  C   UNL     1       2.638   2.348   0.000  0.00  0.00    +0.117 C 
ENDROOT
BRANCH   6   5
ATOM      3  C   UNL     1       6.925   2.348   0.000  0.00  0.00    +0.140 A 
ATOM      4  C   UNL     1       6.210   1.935   0.000  0.00  0.00    +0.054 A 
ATOM      5  C   UNL     1       5.496   2.348   0.000  0.00  0.00    +0.078 A 
ATOM     25  C   UNL     1       5.496   3.173   0.000  0.00  0.00    +0.017 A 
ATOM     26  C   UNL     1       6.210   3.585   0.000  0.00  0.00    +0.004 A 
ATOM     27  C   UNL     1       6.925   3.173   0.000  0.00  0.00    +0.037 A 
BRANCH   3   2
ATOM      1  C   UNL     1       8.354   2.348   0.000  0.00  0.00    +0.252 C 
ATOM      2  O   UNL     1       7.639   1.935   0.000  0.00  0.00    -0.471 OA
ENDBRANCH   3   2
ENDBRANCH   6   5
BRANCH  15  16
ATOM     16  C   UNL     1      -0.171   1.523   0.000  0.00  0.00    +0.077 C 
ATOM     17  C   UNL     1      -0.584   0.808   0.000  0.00  0.00    +0.020 C 
ATOM     18  C   UNL     1      -1.409   0.808   0.000  0.00  0.00    +0.002 C 
ATOM     19  C   UNL     1      -1.821   1.523   0.000  0.00  0.00    +0.000 C 
ATOM     20  C   UNL     1      -1.409   2.237   0.000  0.00  0.00    +0.002 C 
ATOM     21  C   UNL     1      -0.584   2.237   0.000  0.00  0.00    +0.020 C 
ENDBRANCH  15  16
TORSDOF 3
