REMARK  Name = 
REMARK  3 active torsions:
REMARK  status: ('A' for Active; 'I' for Inactive)
REMARK    1  A    between atoms: N_6  and  C_7
REMARK    2  A    between atoms: C_7  and  C_8
REMARK    3  A    between atoms: C_11  and  C_14
REMARK                            x       y       z     vdW  Elec       q    Type
REMARK                         _______ _______ _______ _____ _____    ______ ____
ROOT
ATOM      1  C   UNL     1      -0.171  -0.698   0.000  0.00  0.00    +0.117 C 
ATOM      2  N   UNL     1       0.654  -0.698   0.000  0.00  0.00    -0.261 N 
ATOM      3  C   UNL     1       1.139  -0.030   0.000  0.00  0.00    +0.116 C 
ATOM      4  C   UNL     1       1.923  -0.285   0.000  0.00  0.00    +0.113 C 
ATOM      5  C   UNL     1       2.638   0.127   0.000  0.00  0.00    +0.094 C 
ATOM      6  N   UNL     1       3.352  -0.285   0.000  0.00  0.00    -0.266 NA
ATOM     18  C   UNL     1       3.352  -1.110   0.000  0.00  0.00    +0.094 C 
ATOM     19  C   UNL     1       2.638  -1.523   0.000  0.00  0.00    +0.112 C 
ATOM     20  N   UNL     1       1.923  -1.110   0.000  0.00  0.00    -0.261 N 
ATOM     21  C   UNL     1       1.139  -1.365   0.000  0.00  0.00    +0.307 C 
ATOM     22  O   UNL     1       0.884  -2.150   0.000  0.00  0.00    -0.252 OA
ENDROOT
BRANCH   6   7
ATOM      7  C   UNL     1       4.067   0.127   0.000  0.00  0.00    +0.099 C 
BRANCH   7   8
ATOM      8  C   UNL     1       4.781  -0.285   0.000  0.00  0.00    -0.006 A 
ATOM      9  C   UNL     1       5.496   0.127   0.000  0.00  0.00    -0.003 A 
ATOM     10  C   UNL     1       6.210  -0.285   0.000  0.00  0.00    +0.004 A 
ATOM     11  C   UNL     1       6.210  -1.110   0.000  0.00  0.00    +0.071 A 
ATOM     12  C   UNL     1       5.496  -1.523   0.000  0.00  0.00    +0.004 A 
ATOM     13  C   UNL     1       4.781  -1.110   0.000  0.00  0.00    -0.003 A 
BRANCH  11  14
ATOM     14  C   UNL     1       6.925  -1.523   0.000  0.00  0.00    +0.419 C 
ATOM     15  F   UNL     1       7.639  -1.935   0.000  0.00  0.00    -0.166 F 
ATOM     16  F   UNL     1       6.512  -2.237   0.000  0.00  0.00    -0.166 F 
ATOM     17  F   UNL     1       7.337  -0.808   0.000  0.00  0.00    -0.166 F 
ENDBRANCH  11  14
ENDBRANCH   7   8
ENDBRANCH   6   7
TORSDOF 3
