MODEL 1
REMARK VINA RESULT:     -10.3      0.000      0.000
REMARK  Name = 
REMARK  4 active torsions:
REMARK  status: ('A' for Active; 'I' for Inactive)
REMARK    1  A    between atoms: C_4  and  C_8
REMARK    2  A    between atoms: N_13  and  C_14
REMARK    3  A    between atoms: C_18  and  N_22
REMARK    4  A    between atoms: C_23  and  C_25
REMARK                            x       y       z     vdW  Elec       q    Type
REMARK                         _______ _______ _______ _____ _____    ______ ____
ROOT
ATOM     14  C   UNL     1      -0.810   1.508  24.773  0.00  0.00    +0.154 C 
ATOM     15  C   UNL     1      -0.295   2.024  25.158  0.00  0.00    +0.166 C 
ATOM     16  O   UNL     1       0.464   1.892  24.863  0.00  0.00    -0.350 OA
ATOM     17  C   UNL     1       0.418   1.295  24.296  0.00  0.00    +0.166 C 
ATOM     18  C   UNL     1       0.857   0.844  23.763  0.00  0.00    +0.155 C 
ATOM     19  C   UNL     1       0.342   0.328  23.379  0.00  0.00    +0.166 C 
ATOM     20  O   UNL     1      -0.417   0.460  23.674  0.00  0.00    -0.350 OA
ATOM     21  C   UNL     1      -0.370   1.057  24.241  0.00  0.00    +0.166 C 
ENDROOT
BRANCH  14  13
ATOM      8  C   UNL     1      -3.377   2.750  24.965  0.00  0.00    +0.086 A 
ATOM      9  C   UNL     1      -3.034   3.484  24.808  0.00  0.00    +0.040 A 
ATOM     10  C   UNL     1      -2.220   3.540  24.682  0.00  0.00    +0.103 A 
ATOM     11  N   UNL     1      -1.750   2.863  24.713  0.00  0.00    -0.211 NA
ATOM     12  C   UNL     1      -2.094   2.129  24.869  0.00  0.00    +0.237 A 
ATOM     13  N   UNL     1      -1.624   1.451  24.899  0.00  0.00    -0.200 NA
ATOM     31  N   UNL     1      -2.907   2.073  24.995  0.00  0.00    -0.212 NA
BRANCH   8   4
ATOM      1  F   UNL     1      -5.881   1.474  24.445  0.00  0.00    -0.204 F 
ATOM      2  C   UNL     1      -5.442   2.057  24.831  0.00  0.00    +0.140 A 
ATOM      3  C   UNL     1      -4.629   2.112  24.705  0.00  0.00    +0.031 A 
ATOM      4  C   UNL     1      -4.190   2.695  25.091  0.00  0.00    +0.020 A 
ATOM      5  C   UNL     1      -4.565   3.222  25.603  0.00  0.00    +0.002 A 
ATOM      6  C   UNL     1      -5.379   3.166  25.729  0.00  0.00    +0.002 A 
ATOM      7  C   UNL     1      -5.818   2.584  25.343  0.00  0.00    +0.030 A 
ENDBRANCH   8   4
ENDBRANCH  14  13
BRANCH  18  22
ATOM     22  N   UNL     1       1.671   0.900  23.637  0.00  0.00    -0.198 NA
ATOM     23  C   UNL     1       2.042   0.393  23.103  0.00  0.00    +0.265 C 
ATOM     24  O   UNL     1       1.599  -0.170  22.694  0.00  0.00    -0.268 OA
BRANCH  23  25
ATOM     25  C   UNL     1       2.855   0.449  22.977  0.00  0.00    +0.055 A 
ATOM     26  C   UNL     1       3.183   1.155  22.703  0.00  0.00    +0.005 A 
ATOM     27  C   UNL     1       3.996   1.212  22.577  0.00  0.00    +0.000 A 
ATOM     28  C   UNL     1       4.482   0.561  22.725  0.00  0.00    +0.000 A 
ATOM     29  C   UNL     1       4.154  -0.144  22.998  0.00  0.00    +0.000 A 
ATOM     30  C   UNL     1       3.341  -0.201  23.125  0.00  0.00    +0.005 A 
ENDBRANCH  23  25
ENDBRANCH  18  22
TORSDOF 4
ENDMDL
MODEL 2
REMARK VINA RESULT:     -10.2      2.200      6.804
REMARK  Name = 
REMARK  4 active torsions:
REMARK  status: ('A' for Active; 'I' for Inactive)
REMARK    1  A    between atoms: C_4  and  C_8
REMARK    2  A    between atoms: N_13  and  C_14
REMARK    3  A    between atoms: C_18  and  N_22
REMARK    4  A    between atoms: C_23  and  C_25
REMARK                            x       y       z     vdW  Elec       q    Type
REMARK                         _______ _______ _______ _____ _____    ______ ____
ROOT
ATOM     14  C   UNL     1      -0.540   1.614  24.588  0.00  0.00    +0.154 C 
ATOM     15  C   UNL     1      -0.785   1.091  25.176  0.00  0.00    +0.166 C 
ATOM     16  O   UNL     1      -1.575   1.256  25.349  0.00  0.00    -0.350 OA
ATOM     17  C   UNL     1      -1.817   1.879  24.868  0.00  0.00    +0.166 C 
ATOM     18  C   UNL     1      -2.454   2.368  24.676  0.00  0.00    +0.155 C 
ATOM     19  C   UNL     1      -2.208   2.890  24.087  0.00  0.00    +0.166 C 
ATOM     20  O   UNL     1      -1.419   2.725  23.915  0.00  0.00    -0.350 OA
ATOM     21  C   UNL     1      -1.177   2.101  24.397  0.00  0.00    +0.166 C 
ENDROOT
BRANCH  14  13
ATOM      8  C   UNL     1       1.562   0.359  23.111  0.00  0.00    +0.086 A 
ATOM      9  C   UNL     1       1.109  -0.328  23.050  0.00  0.00    +0.040 A 
ATOM     10  C   UNL     1       0.357  -0.357  23.389  0.00  0.00    +0.103 A 
ATOM     11  N   UNL     1       0.058   0.299  23.789  0.00  0.00    -0.211 NA
ATOM     12  C   UNL     1       0.512   0.987  23.849  0.00  0.00    +0.237 A 
ATOM     13  N   UNL     1       0.212   1.644  24.249  0.00  0.00    -0.200 NA
ATOM     31  N   UNL     1       1.263   1.016  23.511  0.00  0.00    -0.212 NA
BRANCH   8   4
ATOM      1  F   UNL     1       4.306   1.147  23.240  0.00  0.00    -0.204 F 
ATOM      2  C   UNL     1       3.685   0.783  22.837  0.00  0.00    +0.140 A 
ATOM      3  C   UNL     1       2.934   0.753  23.176  0.00  0.00    +0.031 A 
ATOM      4  C   UNL     1       2.313   0.389  22.772  0.00  0.00    +0.020 A 
ATOM      5  C   UNL     1       2.444   0.054  22.030  0.00  0.00    +0.002 A 
ATOM      6  C   UNL     1       3.196   0.083  21.691  0.00  0.00    +0.002 A 
ATOM      7  C   UNL     1       3.817   0.448  22.094  0.00  0.00    +0.030 A 
ENDBRANCH   8   4
ENDBRANCH  14  13
BRANCH  18  22
ATOM     22  N   UNL     1      -3.206   2.338  25.015  0.00  0.00    -0.198 NA
ATOM     23  C   UNL     1      -3.873   2.492  24.554  0.00  0.00    +0.265 C 
ATOM     24  O   UNL     1      -3.788   2.675  23.754  0.00  0.00    -0.268 OA
BRANCH  23  25
ATOM     25  C   UNL     1      -4.625   2.462  24.893  0.00  0.00    +0.055 A 
ATOM     26  C   UNL     1      -4.888   3.082  25.368  0.00  0.00    +0.005 A 
ATOM     27  C   UNL     1      -5.640   3.053  25.707  0.00  0.00    +0.000 A 
ATOM     28  C   UNL     1      -6.128   2.402  25.570  0.00  0.00    +0.000 A 
ATOM     29  C   UNL     1      -5.865   1.782  25.095  0.00  0.00    +0.000 A 
ATOM     30  C   UNL     1      -5.113   1.811  24.756  0.00  0.00    +0.005 A 
ENDBRANCH  23  25
ENDBRANCH  18  22
TORSDOF 4
ENDMDL
MODEL 3
REMARK VINA RESULT:      -9.6      1.853      2.357
REMARK  Name = 
REMARK  4 active torsions:
REMARK  status: ('A' for Active; 'I' for Inactive)
REMARK    1  A    between atoms: C_4  and  C_8
REMARK    2  A    between atoms: N_13  and  C_14
REMARK    3  A    between atoms: C_18  and  N_22
REMARK    4  A    between atoms: C_23  and  C_25
REMARK                            x       y       z     vdW  Elec       q    Type
REMARK                         _______ _______ _______ _____ _____    ______ ____
ROOT
ATOM     14  C   UNL     1       0.102   0.844  23.657  0.00  0.00    +0.154 C 
ATOM     15  C   UNL     1       0.459   1.366  24.187  0.00  0.00    +0.166 C 
ATOM     16  O   UNL     1       1.276   1.305  24.091  0.00  0.00    -0.350 OA
ATOM     17  C   UNL     1       1.424   0.747  23.503  0.00  0.00    +0.166 C 
ATOM     18  C   UNL     1       2.019   0.363  23.080  0.00  0.00    +0.155 C 
ATOM     19  C   UNL     1       1.662  -0.158  22.550  0.00  0.00    +0.166 C 
ATOM     20  O   UNL     1       0.845  -0.098  22.646  0.00  0.00    -0.350 OA
ATOM     21  C   UNL     1       0.697   0.461  23.235  0.00  0.00    +0.166 C 
ENDROOT
BRANCH  14  13
ATOM      8  C   UNL     1      -2.416   0.025  24.735  0.00  0.00    +0.086 A 
ATOM      9  C   UNL     1      -2.052  -0.148  25.454  0.00  0.00    +0.040 A 
ATOM     10  C   UNL     1      -1.240  -0.030  25.545  0.00  0.00    +0.103 A 
ATOM     11  N   UNL     1      -0.793   0.261  24.916  0.00  0.00    -0.211 NA
ATOM     12  C   UNL     1      -1.158   0.434  24.196  0.00  0.00    +0.237 A 
ATOM     13  N   UNL     1      -0.710   0.726  23.567  0.00  0.00    -0.200 NA
ATOM     31  N   UNL     1      -1.969   0.316  24.106  0.00  0.00    -0.212 NA
BRANCH   8   4
ATOM      1  F   UNL     1      -4.604  -1.655  23.988  0.00  0.00    -0.204 F 
ATOM      2  C   UNL     1      -4.321  -0.934  24.271  0.00  0.00    +0.140 A 
ATOM      3  C   UNL     1      -3.510  -0.815  24.361  0.00  0.00    +0.031 A 
ATOM      4  C   UNL     1      -3.227  -0.094  24.644  0.00  0.00    +0.020 A 
ATOM      5  C   UNL     1      -3.756   0.509  24.837  0.00  0.00    +0.002 A 
ATOM      6  C   UNL     1      -4.568   0.391  24.747  0.00  0.00    +0.002 A 
ATOM      7  C   UNL     1      -4.851  -0.330  24.464  0.00  0.00    +0.030 A 
ENDBRANCH   8   4
ENDBRANCH  14  13
BRANCH  18  22
ATOM     22  N   UNL     1       2.831   0.482  23.170  0.00  0.00    -0.198 NA
ATOM     23  C   UNL     1       3.342  -0.165  23.192  0.00  0.00    +0.265 C 
ATOM     24  O   UNL     1       3.043  -0.931  23.123  0.00  0.00    -0.268 OA
BRANCH  23  25
ATOM     25  C   UNL     1       4.154  -0.047  23.283  0.00  0.00    +0.055 A 
ATOM     26  C   UNL     1       4.603  -0.583  23.721  0.00  0.00    +0.005 A 
ATOM     27  C   UNL     1       5.414  -0.465  23.812  0.00  0.00    +0.000 A 
ATOM     28  C   UNL     1       5.777   0.190  23.464  0.00  0.00    +0.000 A 
ATOM     29  C   UNL     1       5.328   0.725  23.026  0.00  0.00    +0.000 A 
ATOM     30  C   UNL     1       4.516   0.608  22.935  0.00  0.00    +0.005 A 
ENDBRANCH  23  25
ENDBRANCH  18  22
TORSDOF 4
ENDMDL
MODEL 4
REMARK VINA RESULT:      -8.5     15.596     17.032
REMARK  Name = 
REMARK  4 active torsions:
REMARK  status: ('A' for Active; 'I' for Inactive)
REMARK    1  A    between atoms: C_4  and  C_8
REMARK    2  A    between atoms: N_13  and  C_14
REMARK    3  A    between atoms: C_18  and  N_22
REMARK    4  A    between atoms: C_23  and  C_25
REMARK                            x       y       z     vdW  Elec       q    Type
REMARK                         _______ _______ _______ _____ _____    ______ ____
ROOT
ATOM     14  C   UNL     1      -5.398 -10.575  13.770  0.00  0.00    +0.154 C 
ATOM     15  C   UNL     1      -6.211 -10.638  13.897  0.00  0.00    +0.166 C 
ATOM     16  O   UNL     1      -6.340 -10.662  14.711  0.00  0.00    -0.350 OA
ATOM     17  C   UNL     1      -5.609 -10.613  15.087  0.00  0.00    +0.166 C 
ATOM     18  C   UNL     1      -5.235 -10.598  15.823  0.00  0.00    +0.155 C 
ATOM     19  C   UNL     1      -4.423 -10.535  15.696  0.00  0.00    +0.166 C 
ATOM     20  O   UNL     1      -4.294 -10.511  14.882  0.00  0.00    -0.350 OA
ATOM     21  C   UNL     1      -5.026 -10.559  14.506  0.00  0.00    +0.166 C 
ENDROOT
BRANCH  14  13
ATOM      8  C   UNL     1      -5.161  -9.402  11.174  0.00  0.00    +0.086 A 
ATOM      9  C   UNL     1      -5.791  -8.898  11.344  0.00  0.00    +0.040 A 
ATOM     10  C   UNL     1      -6.166  -8.939  12.078  0.00  0.00    +0.103 A 
ATOM     11  N   UNL     1      -5.910  -9.484  12.643  0.00  0.00    -0.211 NA
ATOM     12  C   UNL     1      -5.279  -9.988  12.472  0.00  0.00    +0.237 A 
ATOM     13  N   UNL     1      -5.024 -10.534  13.036  0.00  0.00    -0.200 NA
ATOM     31  N   UNL     1      -4.905  -9.947  11.738  0.00  0.00    -0.212 NA
BRANCH   8   4
ATOM      1  F   UNL     1      -2.820  -8.897   9.614  0.00  0.00    -0.204 F 
ATOM      2  C   UNL     1      -3.617  -9.108   9.660  0.00  0.00    +0.140 A 
ATOM      3  C   UNL     1      -3.991  -9.149  10.394  0.00  0.00    +0.031 A 
ATOM      4  C   UNL     1      -4.787  -9.361  10.440  0.00  0.00    +0.020 A 
ATOM      5  C   UNL     1      -5.209  -9.531   9.752  0.00  0.00    +0.002 A 
ATOM      6  C   UNL     1      -4.835  -9.490   9.018  0.00  0.00    +0.002 A 
ATOM      7  C   UNL     1      -4.038  -9.279   8.971  0.00  0.00    +0.030 A 
ENDBRANCH   8   4
ENDBRANCH  14  13
BRANCH  18  22
ATOM     22  N   UNL     1      -5.610 -10.639  16.557  0.00  0.00    -0.198 NA
ATOM     23  C   UNL     1      -5.202 -10.423  17.241  0.00  0.00    +0.265 C 
ATOM     24  O   UNL     1      -4.420 -10.167  17.191  0.00  0.00    -0.268 OA
BRANCH  23  25
ATOM     25  C   UNL     1      -5.577 -10.464  17.975  0.00  0.00    +0.055 A 
ATOM     26  C   UNL     1      -5.164 -10.740  18.634  0.00  0.00    +0.005 A 
ATOM     27  C   UNL     1      -5.538 -10.781  19.369  0.00  0.00    +0.000 A 
ATOM     28  C   UNL     1      -6.326 -10.546  19.443  0.00  0.00    +0.000 A 
ATOM     29  C   UNL     1      -6.738 -10.271  18.784  0.00  0.00    +0.000 A 
ATOM     30  C   UNL     1      -6.364 -10.230  18.050  0.00  0.00    +0.005 A 
ENDBRANCH  23  25
ENDBRANCH  18  22
TORSDOF 4
ENDMDL
MODEL 5
REMARK VINA RESULT:      -8.1     15.232     16.241
REMARK  Name = 
REMARK  4 active torsions:
REMARK  status: ('A' for Active; 'I' for Inactive)
REMARK    1  A    between atoms: C_4  and  C_8
REMARK    2  A    between atoms: N_13  and  C_14
REMARK    3  A    between atoms: C_18  and  N_22
REMARK    4  A    between atoms: C_23  and  C_25
REMARK                            x       y       z     vdW  Elec       q    Type
REMARK                         _______ _______ _______ _____ _____    ______ ____
ROOT
ATOM     14  C   UNL     1      -5.493 -10.494  14.645  0.00  0.00    +0.154 C 
ATOM     15  C   UNL     1      -4.731 -10.775  14.502  0.00  0.00    +0.166 C 
ATOM     16  O   UNL     1      -4.548 -10.623  13.713  0.00  0.00    -0.350 OA
ATOM     17  C   UNL     1      -5.196 -10.249  13.367  0.00  0.00    +0.166 C 
ATOM     18  C   UNL     1      -5.484  -9.923  12.666  0.00  0.00    +0.155 C 
ATOM     19  C   UNL     1      -6.246  -9.642  12.809  0.00  0.00    +0.166 C 
ATOM     20  O   UNL     1      -6.430  -9.794  13.598  0.00  0.00    -0.350 OA
ATOM     21  C   UNL     1      -5.780 -10.169  13.944  0.00  0.00    +0.166 C 
ENDROOT
BRANCH  14  13
ATOM      8  C   UNL     1      -5.465 -10.514  17.503  0.00  0.00    +0.086 A 
ATOM      9  C   UNL     1      -4.642 -10.448  17.495  0.00  0.00    +0.040 A 
ATOM     10  C   UNL     1      -4.238 -10.411  16.777  0.00  0.00    +0.103 A 
ATOM     11  N   UNL     1      -4.656 -10.438  16.066  0.00  0.00    -0.211 NA
ATOM     12  C   UNL     1      -5.479 -10.504  16.074  0.00  0.00    +0.237 A 
ATOM     13  N   UNL     1      -5.897 -10.532  15.363  0.00  0.00    -0.200 NA
ATOM     31  N   UNL     1      -5.883 -10.542  16.792  0.00  0.00    -0.212 NA
BRANCH   8   4
ATOM      1  F   UNL     1      -7.892 -10.283  18.993  0.00  0.00    -0.204 F 
ATOM      2  C   UNL     1      -7.082 -10.436  18.966  0.00  0.00    +0.140 A 
ATOM      3  C   UNL     1      -6.678 -10.398  18.248  0.00  0.00    +0.031 A 
ATOM      4  C   UNL     1      -5.868 -10.552  18.221  0.00  0.00    +0.020 A 
ATOM      5  C   UNL     1      -5.462 -10.743  18.913  0.00  0.00    +0.002 A 
ATOM      6  C   UNL     1      -5.865 -10.781  19.632  0.00  0.00    +0.002 A 
ATOM      7  C   UNL     1      -6.675 -10.628  19.659  0.00  0.00    +0.030 A 
ENDBRANCH   8   4
ENDBRANCH  14  13
BRANCH  18  22
ATOM     22  N   UNL     1      -5.080  -9.885  11.947  0.00  0.00    -0.198 NA
ATOM     23  C   UNL     1      -5.182  -9.235  11.451  0.00  0.00    +0.265 C 
ATOM     24  O   UNL     1      -5.687  -8.622  11.672  0.00  0.00    -0.268 OA
BRANCH  23  25
ATOM     25  C   UNL     1      -4.777  -9.197  10.732  0.00  0.00    +0.055 A 
ATOM     26  C   UNL     1      -5.160  -8.913  10.058  0.00  0.00    +0.005 A 
ATOM     27  C   UNL     1      -4.756  -8.875   9.340  0.00  0.00    +0.000 A 
ATOM     28  C   UNL     1      -3.969  -9.121   9.296  0.00  0.00    +0.000 A 
ATOM     29  C   UNL     1      -3.588  -9.405   9.969  0.00  0.00    +0.000 A 
ATOM     30  C   UNL     1      -3.991  -9.443  10.688  0.00  0.00    +0.005 A 
ENDBRANCH  23  25
ENDBRANCH  18  22
TORSDOF 4
ENDMDL
MODEL 6
REMARK VINA RESULT:      -7.7     15.492     16.321
REMARK  Name = 
REMARK  4 active torsions:
REMARK  status: ('A' for Active; 'I' for Inactive)
REMARK    1  A    between atoms: C_4  and  C_8
REMARK    2  A    between atoms: N_13  and  C_14
REMARK    3  A    between atoms: C_18  and  N_22
REMARK    4  A    between atoms: C_23  and  C_25
REMARK                            x       y       z     vdW  Elec       q    Type
REMARK                         _______ _______ _______ _____ _____    ______ ____
ROOT
ATOM     14  C   UNL     1      -6.980 -10.103  14.084  0.00  0.00    +0.154 C 
ATOM     15  C   UNL     1      -6.326 -10.583  14.233  0.00  0.00    +0.166 C 
ATOM     16  O   UNL     1      -5.807 -10.509  13.596  0.00  0.00    -0.350 OA
ATOM     17  C   UNL     1      -6.140  -9.986  13.054  0.00  0.00    +0.166 C 
ATOM     18  C   UNL     1      -6.026  -9.616  12.325  0.00  0.00    +0.155 C 
ATOM     19  C   UNL     1      -6.680  -9.137  12.176  0.00  0.00    +0.166 C 
ATOM     20  O   UNL     1      -7.199  -9.210  12.813  0.00  0.00    -0.350 OA
ATOM     21  C   UNL     1      -6.865  -9.735  13.356  0.00  0.00    +0.166 C 
ENDROOT
BRANCH  14  13
ATOM      8  C   UNL     1      -8.078  -9.495  16.652  0.00  0.00    +0.086 A 
ATOM      9  C   UNL     1      -7.317  -9.378  16.949  0.00  0.00    +0.040 A 
ATOM     10  C   UNL     1      -6.662  -9.471  16.456  0.00  0.00    +0.103 A 
ATOM     11  N   UNL     1      -6.768  -9.682  15.665  0.00  0.00    -0.211 NA
ATOM     12  C   UNL     1      -7.529  -9.799  15.368  0.00  0.00    +0.237 A 
ATOM     13  N   UNL     1      -7.635 -10.010  14.578  0.00  0.00    -0.200 NA
ATOM     31  N   UNL     1      -8.183  -9.706  15.861  0.00  0.00    -0.212 NA
BRANCH   8   4
ATOM      1  F   UNL     1     -10.189  -7.867  17.681  0.00  0.00    -0.204 F 
ATOM      2  C   UNL     1      -9.787  -8.587  17.660  0.00  0.00    +0.140 A 
ATOM      3  C   UNL     1      -9.133  -8.681  17.167  0.00  0.00    +0.031 A 
ATOM      4  C   UNL     1      -8.732  -9.401  17.145  0.00  0.00    +0.020 A 
ATOM      5  C   UNL     1      -8.985 -10.028  17.618  0.00  0.00    +0.002 A 
ATOM      6  C   UNL     1      -9.639  -9.935  18.112  0.00  0.00    +0.002 A 
ATOM      7  C   UNL     1     -10.041  -9.215  18.133  0.00  0.00    +0.030 A 
ENDBRANCH   8   4
ENDBRANCH  14  13
BRANCH  18  22
ATOM     22  N   UNL     1      -5.371  -9.709  11.832  0.00  0.00    -0.198 NA
ATOM     23  C   UNL     1      -5.133  -9.091  11.341  0.00  0.00    +0.265 C 
ATOM     24  O   UNL     1      -5.548  -8.378  11.343  0.00  0.00    -0.268 OA
BRANCH  23  25
ATOM     25  C   UNL     1      -4.478  -9.184  10.847  0.00  0.00    +0.055 A 
ATOM     26  C   UNL     1      -3.780  -9.510  11.145  0.00  0.00    +0.005 A 
ATOM     27  C   UNL     1      -3.125  -9.603  10.652  0.00  0.00    +0.000 A 
ATOM     28  C   UNL     1      -3.169  -9.371   9.861  0.00  0.00    +0.000 A 
ATOM     29  C   UNL     1      -3.866  -9.046   9.564  0.00  0.00    +0.000 A 
ATOM     30  C   UNL     1      -4.521  -8.953  10.057  0.00  0.00    +0.005 A 
ENDBRANCH  23  25
ENDBRANCH  18  22
TORSDOF 4
ENDMDL
MODEL 7
REMARK VINA RESULT:      -7.5     15.660     17.417
REMARK  Name = 
REMARK  4 active torsions:
REMARK  status: ('A' for Active; 'I' for Inactive)
REMARK    1  A    between atoms: C_4  and  C_8
REMARK    2  A    between atoms: N_13  and  C_14
REMARK    3  A    between atoms: C_18  and  N_22
REMARK    4  A    between atoms: C_23  and  C_25
REMARK                            x       y       z     vdW  Elec       q    Type
REMARK                         _______ _______ _______ _____ _____    ______ ____
ROOT
ATOM     14  C   UNL     1      -6.589 -10.176  13.823  0.00  0.00    +0.154 C 
ATOM     15  C   UNL     1      -7.353 -10.247  13.522  0.00  0.00    +0.166 C 
ATOM     16  O   UNL     1      -7.882 -10.142  14.146  0.00  0.00    -0.350 OA
ATOM     17  C   UNL     1      -7.445 -10.005  14.832  0.00  0.00    +0.166 C 
ATOM     18  C   UNL     1      -7.501  -9.856  15.641  0.00  0.00    +0.155 C 
ATOM     19  C   UNL     1      -6.736  -9.784  15.941  0.00  0.00    +0.166 C 
ATOM     20  O   UNL     1      -6.207  -9.890  15.318  0.00  0.00    -0.350 OA
ATOM     21  C   UNL     1      -6.645 -10.027  14.632  0.00  0.00    +0.166 C 
ENDROOT
BRANCH  14  13
ATOM      8  C   UNL     1      -4.977  -9.409  11.590  0.00  0.00    +0.086 A 
ATOM      9  C   UNL     1      -5.570  -8.892  11.340  0.00  0.00    +0.040 A 
ATOM     10  C   UNL     1      -6.269  -8.826  11.773  0.00  0.00    +0.103 A 
ATOM     11  N   UNL     1      -6.376  -9.276  12.457  0.00  0.00    -0.211 NA
ATOM     12  C   UNL     1      -5.782  -9.793  12.706  0.00  0.00    +0.237 A 
ATOM     13  N   UNL     1      -5.889 -10.243  13.389  0.00  0.00    -0.200 NA
ATOM     31  N   UNL     1      -5.084  -9.859  12.273  0.00  0.00    -0.212 NA
BRANCH   8   4
ATOM      1  F   UNL     1      -3.442  -8.794   9.259  0.00  0.00    -0.204 F 
ATOM      2  C   UNL     1      -3.511  -9.168   9.992  0.00  0.00    +0.140 A 
ATOM      3  C   UNL     1      -4.210  -9.101  10.425  0.00  0.00    +0.031 A 
ATOM      4  C   UNL     1      -4.279  -9.475  11.157  0.00  0.00    +0.020 A 
ATOM      5  C   UNL     1      -3.649  -9.916  11.456  0.00  0.00    +0.002 A 
ATOM      6  C   UNL     1      -2.949  -9.982  11.023  0.00  0.00    +0.002 A 
ATOM      7  C   UNL     1      -2.880  -9.609  10.290  0.00  0.00    +0.030 A 
ENDBRANCH   8   4
ENDBRANCH  14  13
BRANCH  18  22
ATOM     22  N   UNL     1      -8.200  -9.789  16.074  0.00  0.00    -0.198 NA
ATOM     23  C   UNL     1      -8.217  -9.337  16.764  0.00  0.00    +0.265 C 
ATOM     24  O   UNL     1      -7.534  -8.951  17.021  0.00  0.00    -0.268 OA
BRANCH  23  25
ATOM     25  C   UNL     1      -8.916  -9.270  17.197  0.00  0.00    +0.055 A 
ATOM     26  C   UNL     1      -9.160  -9.889  17.685  0.00  0.00    +0.005 A 
ATOM     27  C   UNL     1      -9.859  -9.824  18.118  0.00  0.00    +0.000 A 
ATOM     28  C   UNL     1     -10.314  -9.137  18.063  0.00  0.00    +0.000 A 
ATOM     29  C   UNL     1     -10.069  -8.518  17.576  0.00  0.00    +0.000 A 
ATOM     30  C   UNL     1      -9.371  -8.584  17.143  0.00  0.00    +0.005 A 
ENDBRANCH  23  25
ENDBRANCH  18  22
TORSDOF 4
ENDMDL
