REMARK  Name = 
REMARK  5 active torsions:
REMARK  status: ('A' for Active; 'I' for Inactive)
REMARK    1  A    between atoms: C_2  and  CA_3
REMARK    2  A    between atoms: C_9  and  C_10
REMARK    3  A    between atoms: C_13  and  N_14
REMARK    4  A    between atoms: C_15  and  C_17
REMARK    5  A    between atoms: C_17  and  C_18
REMARK                            x       y       z     vdW  Elec       q    Type
REMARK                         _______ _______ _______ _____ _____    ______ ____
ROOT
ATOM     10  C   UNL     1       3.572  -3.712   0.000  0.00  0.00    +0.006 A 
ATOM     11  C   UNL     1       2.858  -4.125   0.000  0.00  0.00    -0.001 A 
ATOM     12  C   UNL     1       2.143  -3.712   0.000  0.00  0.00    +0.016 A 
ATOM     13  C   UNL     1       2.143  -2.888   0.000  0.00  0.00    +0.073 A 
ATOM     24  C   UNL     1       2.858  -2.475   0.000  0.00  0.00    +0.016 A 
ATOM     25  C   UNL     1       3.572  -2.888   0.000  0.00  0.00    -0.001 A 
ENDROOT
BRANCH  10   9
ATOM      3  CA  UNL     1       5.001  -3.712   0.000  0.00  0.00    +0.159 C 
ATOM      4  N   UNL     1       5.716  -4.125   0.000  0.00  0.00    -0.199 NA
ATOM      5  C   UNL     1       5.716  -4.950   0.000  0.00  0.00    +0.272 C 
ATOM      6  O   UNL     1       6.430  -5.362   0.000  0.00  0.00    -0.271 OA
ATOM      7  C   UNL     1       5.001  -5.362   0.000  0.00  0.00    +0.229 C 
ATOM      8  O   UNL     1       4.287  -4.950   0.000  0.00  0.00    -0.341 OA
ATOM      9  C   UNL     1       4.287  -4.125   0.000  0.00  0.00    +0.160 C 
BRANCH   3   2
ATOM      1  O   UNL     1       4.287  -2.475   0.000  0.00  0.00    -0.218 OA
ATOM      2  C   UNL     1       5.001  -2.888   0.000  0.00  0.00    +0.206 C 
ENDBRANCH   3   2
ENDBRANCH  10   9
BRANCH  13  14
ATOM     14  N   UNL     1       1.429  -2.475   0.000  0.00  0.00    -0.179 NA
ATOM     15  C   UNL     1       1.429  -1.650   0.000  0.00  0.00    +0.250 C 
ATOM     16  O   UNL     1       2.143  -1.238   0.000  0.00  0.00    -0.273 OA
BRANCH  15  17
ATOM     17  C   UNL     1       0.715  -1.238   0.000  0.00  0.00    +0.113 C 
BRANCH  17  18
ATOM     18  C   UNL     1       0.715  -0.412   0.000  0.00  0.00    -0.013 A 
ATOM     19  C   UNL     1       0.000   0.000   0.000  0.00  0.00    -0.004 A 
ATOM     20  C   UNL     1       0.000   0.825   0.000  0.00  0.00    -0.000 A 
ATOM     21  C   UNL     1       0.715   1.238   0.000  0.00  0.00    -0.000 A 
ATOM     22  C   UNL     1       1.429   0.825   0.000  0.00  0.00    -0.000 A 
ATOM     23  C   UNL     1       1.429   0.000   0.000  0.00  0.00    -0.004 A 
ENDBRANCH  17  18
ENDBRANCH  15  17
ENDBRANCH  13  14
TORSDOF 5
