MODEL 1
REMARK VINA RESULT:     -11.7      0.000      0.000
REMARK  Name = 
REMARK  6 active torsions:
REMARK  status: ('A' for Active; 'I' for Inactive)
REMARK    1  A    between atoms: C_7  and  C_8
REMARK    2  A    between atoms: C_8  and  N_9
REMARK    3  A    between atoms: N_9  and  C_10
REMARK    4  A    between atoms: C_10  and  C_11
REMARK    5  A    between atoms: C_11  and  C_12
REMARK    6  A    between atoms: C_15  and  C_17
REMARK                            x       y       z     vdW  Elec       q    Type
REMARK                         _______ _______ _______ _____ _____    ______ ____
ROOT
ATOM     10  C   UNL     1      -4.807   1.541  24.820  0.00  0.00    +0.120 C 
ATOM     23  C   UNL     1      -5.453   1.196  25.198  0.00  0.00    +0.161 C 
ATOM     24  O   UNL     1      -5.905   1.868  25.041  0.00  0.00    -0.351 OA
ATOM     25  C   UNL     1      -5.258   2.214  24.662  0.00  0.00    +0.161 C 
ENDROOT
BRANCH  10   9
ATOM      9  N   UNL     1      -4.355   0.868  24.977  0.00  0.00    -0.211 NA
BRANCH   9   8
ATOM      8  C   UNL     1      -4.566   0.143  24.648  0.00  0.00    +0.117 C 
BRANCH   8   7
ATOM      1  F   UNL     1      -4.379  -1.039  23.511  0.00  0.00    -0.204 F 
ATOM      2  C   UNL     1      -4.035  -1.125  24.256  0.00  0.00    +0.137 A 
ATOM      3  C   UNL     1      -3.597  -1.801  24.434  0.00  0.00    +0.029 A 
ATOM      4  C   UNL     1      -3.253  -1.888  25.179  0.00  0.00    +0.002 A 
ATOM      5  C   UNL     1      -3.347  -1.297  25.746  0.00  0.00    -0.000 A 
ATOM      6  C   UNL     1      -3.785  -0.620  25.570  0.00  0.00    -0.001 A 
ATOM      7  C   UNL     1      -4.129  -0.534  24.825  0.00  0.00    +0.023 A 
ENDBRANCH   8   7
ENDBRANCH   9   8
ENDBRANCH  10   9
BRANCH  10  11
ATOM     11  C   UNL     1      -4.160   1.886  24.441  0.00  0.00    +0.070 C 
BRANCH  11  12
ATOM     12  C   UNL     1      -3.727   2.476  24.820  0.00  0.00    +0.102 A 
ATOM     13  N   UNL     1      -3.931   2.849  25.527  0.00  0.00    -0.081 NA
ATOM     14  O   UNL     1      -3.343   3.401  25.703  0.00  0.00    -0.352 OA
ATOM     15  C   UNL     1      -2.776   3.370  25.105  0.00  0.00    +0.194 A 
ATOM     16  C   UNL     1      -3.013   2.799  24.559  0.00  0.00    +0.060 A 
BRANCH  15  17
ATOM     17  C   UNL     1      -2.092   3.829  25.060  0.00  0.00    +0.118 A 
ATOM     18  N   UNL     1      -1.365   3.471  24.902  0.00  0.00    -0.241 NA
ATOM     19  C   UNL     1      -0.682   3.930  24.857  0.00  0.00    +0.099 A 
ATOM     20  C   UNL     1      -0.724   4.747  24.969  0.00  0.00    +0.021 A 
ATOM     21  C   UNL     1      -1.451   5.104  25.126  0.00  0.00    +0.003 A 
ATOM     22  C   UNL     1      -2.135   4.645  25.172  0.00  0.00    +0.022 A 
ENDBRANCH  15  17
ENDBRANCH  11  12
ENDBRANCH  10  11
TORSDOF 6
ENDMDL
MODEL 2
REMARK VINA RESULT:     -11.3      1.588      4.608
REMARK  Name = 
REMARK  6 active torsions:
REMARK  status: ('A' for Active; 'I' for Inactive)
REMARK    1  A    between atoms: C_7  and  C_8
REMARK    2  A    between atoms: C_8  and  N_9
REMARK    3  A    between atoms: N_9  and  C_10
REMARK    4  A    between atoms: C_10  and  C_11
REMARK    5  A    between atoms: C_11  and  C_12
REMARK    6  A    between atoms: C_15  and  C_17
REMARK                            x       y       z     vdW  Elec       q    Type
REMARK                         _______ _______ _______ _____ _____    ______ ____
ROOT
ATOM     10  C   UNL     1      -4.294   2.910  25.162  0.00  0.00    +0.120 C 
ATOM     23  C   UNL     1      -4.401   3.511  25.717  0.00  0.00    +0.161 C 
ATOM     24  O   UNL     1      -5.216   3.483  25.590  0.00  0.00    -0.351 OA
ATOM     25  C   UNL     1      -5.108   2.881  25.035  0.00  0.00    +0.161 C 
ENDROOT
BRANCH  10   9
ATOM      9  N   UNL     1      -3.479   2.939  25.289  0.00  0.00    -0.211 NA
BRANCH   9   8
ATOM      8  C   UNL     1      -3.091   3.665  25.327  0.00  0.00    +0.117 C 
BRANCH   8   7
ATOM      1  F   UNL     1      -2.279   4.945  24.675  0.00  0.00    -0.204 F 
ATOM      2  C   UNL     1      -1.861   4.333  25.038  0.00  0.00    +0.137 A 
ATOM      3  C   UNL     1      -1.037   4.360  25.075  0.00  0.00    +0.029 A 
ATOM      4  C   UNL     1      -0.620   3.748  25.437  0.00  0.00    +0.002 A 
ATOM      5  C   UNL     1      -1.027   3.108  25.763  0.00  0.00    -0.000 A 
ATOM      6  C   UNL     1      -1.851   3.080  25.726  0.00  0.00    -0.001 A 
ATOM      7  C   UNL     1      -2.268   3.693  25.363  0.00  0.00    +0.023 A 
ENDBRANCH   8   7
ENDBRANCH   9   8
ENDBRANCH  10   9
BRANCH  10  11
ATOM     11  C   UNL     1      -4.186   2.309  24.607  0.00  0.00    +0.070 C 
BRANCH  11  12
ATOM     12  C   UNL     1      -4.353   1.527  24.809  0.00  0.00    +0.102 A 
ATOM     13  N   UNL     1      -4.934   1.276  25.338  0.00  0.00    -0.081 NA
ATOM     14  O   UNL     1      -4.908   0.452  25.373  0.00  0.00    -0.352 OA
ATOM     15  C   UNL     1      -4.311   0.193  24.866  0.00  0.00    +0.194 A 
ATOM     16  C   UNL     1      -3.968   0.858  24.517  0.00  0.00    +0.060 A 
BRANCH  15  17
ATOM     17  C   UNL     1      -4.094  -0.591  24.731  0.00  0.00    +0.118 A 
ATOM     18  N   UNL     1      -4.365  -0.983  24.056  0.00  0.00    -0.241 NA
ATOM     19  C   UNL     1      -4.148  -1.767  23.921  0.00  0.00    +0.099 A 
ATOM     20  C   UNL     1      -3.662  -2.160  24.460  0.00  0.00    +0.021 A 
ATOM     21  C   UNL     1      -3.392  -1.768  25.133  0.00  0.00    +0.003 A 
ATOM     22  C   UNL     1      -3.608  -0.983  25.269  0.00  0.00    +0.022 A 
ENDBRANCH  15  17
ENDBRANCH  11  12
ENDBRANCH  10  11
TORSDOF 6
ENDMDL
MODEL 3
REMARK VINA RESULT:     -10.4      2.040      2.734
REMARK  Name = 
REMARK  6 active torsions:
REMARK  status: ('A' for Active; 'I' for Inactive)
REMARK    1  A    between atoms: C_7  and  C_8
REMARK    2  A    between atoms: C_8  and  N_9
REMARK    3  A    between atoms: N_9  and  C_10
REMARK    4  A    between atoms: C_10  and  C_11
REMARK    5  A    between atoms: C_11  and  C_12
REMARK    6  A    between atoms: C_15  and  C_17
REMARK                            x       y       z     vdW  Elec       q    Type
REMARK                         _______ _______ _______ _____ _____    ______ ____
ROOT
ATOM     10  C   UNL     1      -1.324  -0.148  24.762  0.00  0.00    +0.120 C 
ATOM     23  C   UNL     1      -0.924  -0.772  24.401  0.00  0.00    +0.161 C 
ATOM     24  O   UNL     1      -0.203  -0.449  24.638  0.00  0.00    -0.351 OA
ATOM     25  C   UNL     1      -0.604   0.177  25.000  0.00  0.00    +0.161 C 
ENDROOT
BRANCH  10   9
ATOM      9  N   UNL     1      -2.045  -0.472  24.525  0.00  0.00    -0.211 NA
BRANCH   9   8
ATOM      8  C   UNL     1      -2.298  -1.190  24.839  0.00  0.00    +0.117 C 
BRANCH   8   7
ATOM      1  F   UNL     1      -2.508  -2.821  24.984  0.00  0.00    -0.204 F 
ATOM      2  C   UNL     1      -3.093  -2.360  24.630  0.00  0.00    +0.137 A 
ATOM      3  C   UNL     1      -3.784  -2.713  24.348  0.00  0.00    +0.029 A 
ATOM      4  C   UNL     1      -4.369  -2.251  23.994  0.00  0.00    +0.002 A 
ATOM      5  C   UNL     1      -4.263  -1.436  23.922  0.00  0.00    -0.000 A 
ATOM      6  C   UNL     1      -3.573  -1.082  24.203  0.00  0.00    -0.001 A 
ATOM      7  C   UNL     1      -2.988  -1.544  24.557  0.00  0.00    +0.023 A 
ENDBRANCH   8   7
ENDBRANCH   9   8
ENDBRANCH  10   9
BRANCH  10  11
ATOM     11  C   UNL     1      -1.725   0.477  25.124  0.00  0.00    +0.070 C 
BRANCH  11  12
ATOM     12  C   UNL     1      -1.679   1.235  24.803  0.00  0.00    +0.102 A 
ATOM     13  N   UNL     1      -1.634   1.422  24.001  0.00  0.00    -0.081 NA
ATOM     14  O   UNL     1      -1.598   2.243  23.931  0.00  0.00    -0.352 OA
ATOM     15  C   UNL     1      -1.619   2.565  24.690  0.00  0.00    +0.194 A 
ATOM     16  C   UNL     1      -1.669   1.942  25.229  0.00  0.00    +0.060 A 
BRANCH  15  17
ATOM     17  C   UNL     1      -1.595   3.368  24.878  0.00  0.00    +0.118 A 
ATOM     18  N   UNL     1      -2.272   3.746  25.160  0.00  0.00    -0.241 NA
ATOM     19  C   UNL     1      -2.248   4.548  25.348  0.00  0.00    +0.099 A 
ATOM     20  C   UNL     1      -1.547   4.973  25.254  0.00  0.00    +0.021 A 
ATOM     21  C   UNL     1      -0.870   4.595  24.973  0.00  0.00    +0.003 A 
ATOM     22  C   UNL     1      -0.894   3.792  24.785  0.00  0.00    +0.022 A 
ENDBRANCH  15  17
ENDBRANCH  11  12
ENDBRANCH  10  11
TORSDOF 6
ENDMDL
MODEL 4
REMARK VINA RESULT:     -10.2      1.927      3.055
REMARK  Name = 
REMARK  6 active torsions:
REMARK  status: ('A' for Active; 'I' for Inactive)
REMARK    1  A    between atoms: C_7  and  C_8
REMARK    2  A    between atoms: C_8  and  N_9
REMARK    3  A    between atoms: N_9  and  C_10
REMARK    4  A    between atoms: C_10  and  C_11
REMARK    5  A    between atoms: C_11  and  C_12
REMARK    6  A    between atoms: C_15  and  C_17
REMARK                            x       y       z     vdW  Elec       q    Type
REMARK                         _______ _______ _______ _____ _____    ______ ____
ROOT
ATOM     10  C   UNL     1      -1.532   0.556  24.783  0.00  0.00    +0.120 C 
ATOM     23  C   UNL     1      -1.089   0.260  25.412  0.00  0.00    +0.161 C 
ATOM     24  O   UNL     1      -0.553   0.882  25.328  0.00  0.00    -0.351 OA
ATOM     25  C   UNL     1      -0.996   1.178  24.697  0.00  0.00    +0.161 C 
ENDROOT
BRANCH  10   9
ATOM      9  N   UNL     1      -2.068  -0.065  24.867  0.00  0.00    -0.211 NA
BRANCH   9   8
ATOM      8  C   UNL     1      -1.801  -0.844  24.869  0.00  0.00    +0.117 C 
BRANCH   8   7
ATOM      1  F   UNL     1      -1.506  -2.215  23.999  0.00  0.00    -0.204 F 
ATOM      2  C   UNL     1      -2.194  -2.153  24.449  0.00  0.00    +0.137 A 
ATOM      3  C   UNL     1      -2.736  -2.775  24.465  0.00  0.00    +0.029 A 
ATOM      4  C   UNL     1      -3.424  -2.712  24.916  0.00  0.00    +0.002 A 
ATOM      5  C   UNL     1      -3.571  -2.027  25.351  0.00  0.00    -0.000 A 
ATOM      6  C   UNL     1      -3.030  -1.404  25.336  0.00  0.00    -0.001 A 
ATOM      7  C   UNL     1      -2.342  -1.467  24.885  0.00  0.00    +0.023 A 
ENDBRANCH   8   7
ENDBRANCH   9   8
ENDBRANCH  10   9
BRANCH  10  11
ATOM     11  C   UNL     1      -1.975   0.853  24.152  0.00  0.00    +0.070 C 
BRANCH  11  12
ATOM     12  C   UNL     1      -2.431   1.532  24.252  0.00  0.00    +0.102 A 
ATOM     13  N   UNL     1      -2.230   2.293  24.007  0.00  0.00    -0.081 NA
ATOM     14  O   UNL     1      -2.844   2.801  24.219  0.00  0.00    -0.352 OA
ATOM     15  C   UNL     1      -3.426   2.354  24.597  0.00  0.00    +0.194 A 
ATOM     16  C   UNL     1      -3.170   1.570  24.617  0.00  0.00    +0.060 A 
BRANCH  15  17
ATOM     17  C   UNL     1      -4.137   2.640  24.901  0.00  0.00    +0.118 A 
ATOM     18  N   UNL     1      -4.159   3.374  25.278  0.00  0.00    -0.241 NA
ATOM     19  C   UNL     1      -4.870   3.660  25.582  0.00  0.00    +0.099 A 
ATOM     20  C   UNL     1      -5.560   3.213  25.508  0.00  0.00    +0.021 A 
ATOM     21  C   UNL     1      -5.538   2.480  25.132  0.00  0.00    +0.003 A 
ATOM     22  C   UNL     1      -4.826   2.194  24.828  0.00  0.00    +0.022 A 
ENDBRANCH  15  17
ENDBRANCH  11  12
ENDBRANCH  10  11
TORSDOF 6
ENDMDL
MODEL 5
REMARK VINA RESULT:     -10.1      2.372      5.087
REMARK  Name = 
REMARK  6 active torsions:
REMARK  status: ('A' for Active; 'I' for Inactive)
REMARK    1  A    between atoms: C_7  and  C_8
REMARK    2  A    between atoms: C_8  and  N_9
REMARK    3  A    between atoms: N_9  and  C_10
REMARK    4  A    between atoms: C_10  and  C_11
REMARK    5  A    between atoms: C_11  and  C_12
REMARK    6  A    between atoms: C_15  and  C_17
REMARK                            x       y       z     vdW  Elec       q    Type
REMARK                         _______ _______ _______ _____ _____    ______ ____
ROOT
ATOM     10  C   UNL     1      -1.048   1.775  24.934  0.00  0.00    +0.120 C 
ATOM     23  C   UNL     1      -0.764   2.399  24.476  0.00  0.00    +0.161 C 
ATOM     24  O   UNL     1       0.000   2.093  24.531  0.00  0.00    -0.351 OA
ATOM     25  C   UNL     1      -0.284   1.468  24.990  0.00  0.00    +0.161 C 
ENDROOT
BRANCH  10   9
ATOM      9  N   UNL     1      -1.812   2.081  24.880  0.00  0.00    -0.211 NA
BRANCH   9   8
ATOM      8  C   UNL     1      -1.963   2.858  25.109  0.00  0.00    +0.117 C 
BRANCH   8   7
ATOM      1  F   UNL     1      -2.511   3.803  26.346  0.00  0.00    -0.204 F 
ATOM      2  C   UNL     1      -3.009   3.623  25.713  0.00  0.00    +0.137 A 
ATOM      3  C   UNL     1      -3.780   3.915  25.697  0.00  0.00    +0.029 A 
ATOM      4  C   UNL     1      -4.278   3.735  25.064  0.00  0.00    +0.002 A 
ATOM      5  C   UNL     1      -4.003   3.262  24.447  0.00  0.00    -0.000 A 
ATOM      6  C   UNL     1      -3.232   2.970  24.461  0.00  0.00    -0.001 A 
ATOM      7  C   UNL     1      -2.735   3.150  25.095  0.00  0.00    +0.023 A 
ENDBRANCH   8   7
ENDBRANCH   9   8
ENDBRANCH  10   9
BRANCH  10  11
ATOM     11  C   UNL     1      -1.331   1.150  25.393  0.00  0.00    +0.070 C 
BRANCH  11  12
ATOM     12  C   UNL     1      -1.478   0.417  25.045  0.00  0.00    +0.102 A 
ATOM     13  N   UNL     1      -0.952  -0.012  24.576  0.00  0.00    -0.081 NA
ATOM     14  O   UNL     1      -1.327  -0.710  24.346  0.00  0.00    -0.352 OA
ATOM     15  C   UNL     1      -2.085  -0.713  24.672  0.00  0.00    +0.194 A 
ATOM     16  C   UNL     1      -2.179  -0.016  25.104  0.00  0.00    +0.060 A 
BRANCH  15  17
ATOM     17  C   UNL     1      -2.651  -1.307  24.582  0.00  0.00    +0.118 A 
ATOM     18  N   UNL     1      -2.454  -2.091  24.750  0.00  0.00    -0.241 NA
ATOM     19  C   UNL     1      -3.020  -2.685  24.660  0.00  0.00    +0.099 A 
ATOM     20  C   UNL     1      -3.780  -2.495  24.402  0.00  0.00    +0.021 A 
ATOM     21  C   UNL     1      -3.975  -1.712  24.234  0.00  0.00    +0.003 A 
ATOM     22  C   UNL     1      -3.410  -1.118  24.324  0.00  0.00    +0.022 A 
ENDBRANCH  15  17
ENDBRANCH  11  12
ENDBRANCH  10  11
TORSDOF 6
ENDMDL
