MODEL 1
REMARK VINA RESULT:     -10.0      0.000      0.000
REMARK  Name = 
REMARK  6 active torsions:
REMARK  status: ('A' for Active; 'I' for Inactive)
REMARK    1  A    between atoms: C_2  and  N_4
REMARK    2  A    between atoms: N_7  and  C_8
REMARK    3  A    between atoms: C_8  and  C_9
REMARK    4  A    between atoms: C_12  and  N_13
REMARK    5  A    between atoms: N_13  and  C_14
REMARK    6  A    between atoms: C_14  and  C_15
REMARK                            x       y       z     vdW  Elec       q    Type
REMARK                         _______ _______ _______ _____ _____    ______ ____
ROOT
ATOM      9  C   UNL     1      -3.748   2.074  24.601  0.00  0.00    +0.169 C 
ATOM     10  O   UNL     1      -4.335   1.929  25.163  0.00  0.00    -0.350 OA
ATOM     11  C   UNL     1      -4.530   1.128  25.127  0.00  0.00    +0.162 C 
ATOM     12  C   UNL     1      -4.064   0.778  24.544  0.00  0.00    +0.135 C 
ATOM     22  C   UNL     1      -3.581   1.362  24.218  0.00  0.00    +0.199 C 
ATOM     23  O   UNL     1      -3.028   1.253  23.616  0.00  0.00    -0.219 OA
ENDROOT
BRANCH   9   8
ATOM      8  C   UNL     1      -3.391   2.801  24.448  0.00  0.00    +0.149 C 
BRANCH   8   7
ATOM      4  N   UNL     1      -1.974   4.167  25.390  0.00  0.00    -0.189 NA
ATOM      5  C   UNL     1      -2.465   3.822  24.826  0.00  0.00    +0.339 C 
ATOM      6  O   UNL     1      -2.523   4.153  24.072  0.00  0.00    -0.249 OA
ATOM      7  N   UNL     1      -2.900   3.146  25.013  0.00  0.00    -0.185 NA
BRANCH   4   2
ATOM      1  C   UNL     1      -1.883   5.588  25.273  0.00  0.00    +0.023 C 
ATOM      2  C   UNL     1      -1.539   4.843  25.203  0.00  0.00    +0.097 C 
ATOM      3  C   UNL     1      -0.759   4.772  24.944  0.00  0.00    +0.023 C 
ENDBRANCH   4   2
ENDBRANCH   8   7
ENDBRANCH   9   8
BRANCH  12  13
ATOM     13  N   UNL     1      -4.080  -0.018  24.324  0.00  0.00    -0.209 NA
BRANCH  13  14
ATOM     14  C   UNL     1      -4.093  -0.605  24.903  0.00  0.00    +0.117 C 
BRANCH  14  15
ATOM     15  C   UNL     1      -3.958  -1.392  24.695  0.00  0.00    +0.023 A 
ATOM     16  C   UNL     1      -4.246  -1.685  23.980  0.00  0.00    -0.001 A 
ATOM     17  C   UNL     1      -4.111  -2.472  23.772  0.00  0.00    -0.000 A 
ATOM     18  C   UNL     1      -3.688  -2.966  24.280  0.00  0.00    +0.002 A 
ATOM     19  C   UNL     1      -3.399  -2.673  24.994  0.00  0.00    +0.029 A 
ATOM     20  C   UNL     1      -3.534  -1.886  25.202  0.00  0.00    +0.137 A 
ATOM     21  F   UNL     1      -3.246  -1.593  25.917  0.00  0.00    -0.204 F 
ENDBRANCH  14  15
ENDBRANCH  13  14
ENDBRANCH  12  13
TORSDOF 6
ENDMDL
MODEL 2
REMARK VINA RESULT:      -9.3      1.219      1.434
REMARK  Name = 
REMARK  6 active torsions:
REMARK  status: ('A' for Active; 'I' for Inactive)
REMARK    1  A    between atoms: C_2  and  N_4
REMARK    2  A    between atoms: N_7  and  C_8
REMARK    3  A    between atoms: C_8  and  C_9
REMARK    4  A    between atoms: C_12  and  N_13
REMARK    5  A    between atoms: N_13  and  C_14
REMARK    6  A    between atoms: C_14  and  C_15
REMARK                            x       y       z     vdW  Elec       q    Type
REMARK                         _______ _______ _______ _____ _____    ______ ____
ROOT
ATOM      9  C   UNL     1      -2.450   1.687  25.040  0.00  0.00    +0.169 C 
ATOM     10  O   UNL     1      -3.249   1.737  24.836  0.00  0.00    -0.350 OA
ATOM     11  C   UNL     1      -3.534   0.971  24.730  0.00  0.00    +0.162 C 
ATOM     12  C   UNL     1      -2.914   0.446  24.869  0.00  0.00    +0.135 C 
ATOM     22  C   UNL     1      -2.244   0.888  25.061  0.00  0.00    +0.199 C 
ATOM     23  O   UNL     1      -1.498   0.584  25.242  0.00  0.00    -0.219 OA
ENDROOT
BRANCH   9   8
ATOM      8  C   UNL     1      -1.948   2.322  25.197  0.00  0.00    +0.149 C 
BRANCH   8   7
ATOM      4  N   UNL     1      -1.748   4.422  24.640  0.00  0.00    -0.189 NA
ATOM      5  C   UNL     1      -1.655   3.712  25.049  0.00  0.00    +0.339 C 
ATOM      6  O   UNL     1      -1.174   3.682  25.718  0.00  0.00    -0.249 OA
ATOM      7  N   UNL     1      -2.042   3.031  24.788  0.00  0.00    -0.185 NA
BRANCH   4   2
ATOM      1  C   UNL     1      -0.553   5.195  24.767  0.00  0.00    +0.023 C 
ATOM      2  C   UNL     1      -1.361   5.103  24.900  0.00  0.00    +0.097 C 
ATOM      3  C   UNL     1      -1.784   5.692  25.295  0.00  0.00    +0.023 C 
ENDBRANCH   4   2
ENDBRANCH   8   7
ENDBRANCH   9   8
BRANCH  12  13
ATOM     13  N   UNL     1      -2.956  -0.377  24.825  0.00  0.00    -0.209 NA
BRANCH  13  14
ATOM     14  C   UNL     1      -3.651  -0.742  24.572  0.00  0.00    +0.117 C 
BRANCH  14  15
ATOM     15  C   UNL     1      -3.688  -1.564  24.514  0.00  0.00    +0.023 A 
ATOM     16  C   UNL     1      -3.339  -2.035  25.093  0.00  0.00    -0.001 A 
ATOM     17  C   UNL     1      -3.376  -2.857  25.034  0.00  0.00    -0.000 A 
ATOM     18  C   UNL     1      -3.762  -3.208  24.395  0.00  0.00    +0.002 A 
ATOM     19  C   UNL     1      -4.112  -2.736  23.816  0.00  0.00    +0.029 A 
ATOM     20  C   UNL     1      -4.075  -1.915  23.874  0.00  0.00    +0.137 A 
ATOM     21  F   UNL     1      -4.424  -1.443  23.295  0.00  0.00    -0.204 F 
ENDBRANCH  14  15
ENDBRANCH  13  14
ENDBRANCH  12  13
TORSDOF 6
ENDMDL
MODEL 3
REMARK VINA RESULT:      -9.3      2.118      5.829
REMARK  Name = 
REMARK  6 active torsions:
REMARK  status: ('A' for Active; 'I' for Inactive)
REMARK    1  A    between atoms: C_2  and  N_4
REMARK    2  A    between atoms: N_7  and  C_8
REMARK    3  A    between atoms: C_8  and  C_9
REMARK    4  A    between atoms: C_12  and  N_13
REMARK    5  A    between atoms: N_13  and  C_14
REMARK    6  A    between atoms: C_14  and  C_15
REMARK                            x       y       z     vdW  Elec       q    Type
REMARK                         _______ _______ _______ _____ _____    ______ ____
ROOT
ATOM      9  C   UNL     1      -1.449   0.369  24.948  0.00  0.00    +0.169 C 
ATOM     10  O   UNL     1      -1.120   0.476  25.698  0.00  0.00    -0.350 OA
ATOM     11  C   UNL     1      -0.937   1.276  25.784  0.00  0.00    +0.162 C 
ATOM     12  C   UNL     1      -1.154   1.664  25.090  0.00  0.00    +0.135 C 
ATOM     22  C   UNL     1      -1.470   1.104  24.573  0.00  0.00    +0.199 C 
ATOM     23  O   UNL     1      -1.756   1.252  23.814  0.00  0.00    -0.219 OA
ENDROOT
BRANCH   9   8
ATOM      8  C   UNL     1      -1.711  -0.345  24.632  0.00  0.00    +0.149 C 
BRANCH   8   7
ATOM      4  N   UNL     1      -3.347  -1.765  24.892  0.00  0.00    -0.189 NA
ATOM      5  C   UNL     1      -2.656  -1.416  24.608  0.00  0.00    +0.339 C 
ATOM      6  O   UNL     1      -2.218  -1.790  24.017  0.00  0.00    -0.249 OA
ATOM      7  N   UNL     1      -2.402  -0.694  24.915  0.00  0.00    -0.185 NA
BRANCH   4   2
ATOM      1  C   UNL     1      -3.330  -3.194  24.912  0.00  0.00    +0.023 C 
ATOM      2  C   UNL     1      -3.602  -2.488  24.585  0.00  0.00    +0.097 C 
ATOM      3  C   UNL     1      -4.129  -2.503  23.951  0.00  0.00    +0.023 C 
ENDBRANCH   4   2
ENDBRANCH   8   7
ENDBRANCH   9   8
BRANCH  12  13
ATOM     13  N   UNL     1      -1.069   2.471  24.938  0.00  0.00    -0.209 NA
BRANCH  13  14
ATOM     14  C   UNL     1      -1.287   3.024  25.509  0.00  0.00    +0.117 C 
BRANCH  14  15
ATOM     15  C   UNL     1      -1.286   3.828  25.328  0.00  0.00    +0.023 A 
ATOM     16  C   UNL     1      -0.652   4.156  24.914  0.00  0.00    -0.001 A 
ATOM     17  C   UNL     1      -0.651   4.961  24.732  0.00  0.00    -0.000 A 
ATOM     18  C   UNL     1      -1.284   5.437  24.964  0.00  0.00    +0.002 A 
ATOM     19  C   UNL     1      -1.917   5.109  25.378  0.00  0.00    +0.029 A 
ATOM     20  C   UNL     1      -1.918   4.304  25.560  0.00  0.00    +0.137 A 
ATOM     21  F   UNL     1      -2.552   3.976  25.973  0.00  0.00    -0.204 F 
ENDBRANCH  14  15
ENDBRANCH  13  14
ENDBRANCH  12  13
TORSDOF 6
ENDMDL
MODEL 4
REMARK VINA RESULT:      -8.1      3.362      4.558
REMARK  Name = 
REMARK  6 active torsions:
REMARK  status: ('A' for Active; 'I' for Inactive)
REMARK    1  A    between atoms: C_2  and  N_4
REMARK    2  A    between atoms: N_7  and  C_8
REMARK    3  A    between atoms: C_8  and  C_9
REMARK    4  A    between atoms: C_12  and  N_13
REMARK    5  A    between atoms: N_13  and  C_14
REMARK    6  A    between atoms: C_14  and  C_15
REMARK                            x       y       z     vdW  Elec       q    Type
REMARK                         _______ _______ _______ _____ _____    ______ ____
ROOT
ATOM      9  C   UNL     1      -1.343   0.965  23.980  0.00  0.00    +0.169 C 
ATOM     10  O   UNL     1      -1.522   1.611  23.499  0.00  0.00    -0.350 OA
ATOM     11  C   UNL     1      -2.262   1.899  23.723  0.00  0.00    +0.162 C 
ATOM     12  C   UNL     1      -2.540   1.432  24.343  0.00  0.00    +0.135 C 
ATOM     22  C   UNL     1      -1.973   0.855  24.502  0.00  0.00    +0.199 C 
ATOM     23  O   UNL     1      -2.026   0.270  25.081  0.00  0.00    -0.219 OA
ENDROOT
BRANCH   9   8
ATOM      8  C   UNL     1      -0.656   0.510  23.946  0.00  0.00    +0.149 C 
BRANCH   8   7
ATOM      4  N   UNL     1       1.242   0.540  22.869  0.00  0.00    -0.189 NA
ATOM      5  C   UNL     1       0.583   0.262  23.278  0.00  0.00    +0.339 C 
ATOM      6  O   UNL     1       0.502  -0.545  23.429  0.00  0.00    -0.249 OA
ATOM      7  N   UNL     1       0.003   0.789  23.537  0.00  0.00    -0.185 NA
BRANCH   4   2
ATOM      1  C   UNL     1       2.517  -0.081  23.043  0.00  0.00    +0.023 C 
ATOM      2  C   UNL     1       1.821   0.013  22.611  0.00  0.00    +0.097 C 
ATOM      3  C   UNL     1       1.704  -0.421  21.919  0.00  0.00    +0.023 C 
ENDBRANCH   4   2
ENDBRANCH   8   7
ENDBRANCH   9   8
BRANCH  12  13
ATOM     13  N   UNL     1      -3.261   1.526  24.735  0.00  0.00    -0.209 NA
BRANCH  13  14
ATOM     14  C   UNL     1      -3.680   2.232  24.664  0.00  0.00    +0.117 C 
BRANCH  14  15
ATOM     15  C   UNL     1      -4.432   2.301  24.996  0.00  0.00    +0.023 A 
ATOM     16  C   UNL     1      -4.979   1.689  24.909  0.00  0.00    -0.001 A 
ATOM     17  C   UNL     1      -5.730   1.758  25.241  0.00  0.00    -0.000 A 
ATOM     18  C   UNL     1      -5.936   2.438  25.660  0.00  0.00    +0.002 A 
ATOM     19  C   UNL     1      -5.389   3.050  25.747  0.00  0.00    +0.029 A 
ATOM     20  C   UNL     1      -4.638   2.981  25.415  0.00  0.00    +0.137 A 
ATOM     21  F   UNL     1      -4.091   3.593  25.502  0.00  0.00    -0.204 F 
ENDBRANCH  14  15
ENDBRANCH  13  14
ENDBRANCH  12  13
TORSDOF 6
ENDMDL
MODEL 5
REMARK VINA RESULT:      -6.7     17.799     19.414
REMARK  Name = 
REMARK  6 active torsions:
REMARK  status: ('A' for Active; 'I' for Inactive)
REMARK    1  A    between atoms: C_2  and  N_4
REMARK    2  A    between atoms: N_7  and  C_8
REMARK    3  A    between atoms: C_8  and  C_9
REMARK    4  A    between atoms: C_12  and  N_13
REMARK    5  A    between atoms: N_13  and  C_14
REMARK    6  A    between atoms: C_14  and  C_15
REMARK                            x       y       z     vdW  Elec       q    Type
REMARK                         _______ _______ _______ _____ _____    ______ ____
ROOT
ATOM      9  C   UNL     1      12.870   7.580  18.877  0.00  0.00    +0.169 C 
ATOM     10  O   UNL     1      12.722   6.845  19.222  0.00  0.00    -0.350 OA
ATOM     11  C   UNL     1      13.432   6.562  19.534  0.00  0.00    +0.162 C 
ATOM     12  C   UNL     1      14.018   7.122  19.383  0.00  0.00    +0.135 C 
ATOM     22  C   UNL     1      13.671   7.751  18.978  0.00  0.00    +0.199 C 
ATOM     23  O   UNL     1      14.058   8.432  18.718  0.00  0.00    -0.219 OA
ENDROOT
BRANCH   9   8
ATOM      8  C   UNL     1      12.315   8.059  18.500  0.00  0.00    +0.149 C 
BRANCH   8   7
ATOM      4  N   UNL     1      11.175   8.105  16.640  0.00  0.00    -0.189 NA
ATOM      5  C   UNL     1      11.502   8.340  17.359  0.00  0.00    +0.339 C 
ATOM      6  O   UNL     1      11.341   9.092  17.659  0.00  0.00    -0.249 OA
ATOM      7  N   UNL     1      11.989   7.824  17.781  0.00  0.00    -0.185 NA
BRANCH   4   2
ATOM      1  C   UNL     1       9.907   8.738  16.455  0.00  0.00    +0.023 C 
ATOM      2  C   UNL     1      10.688   8.622  16.219  0.00  0.00    +0.097 C 
ATOM      3  C   UNL     1      10.983   9.021  15.560  0.00  0.00    +0.023 C 
ENDBRANCH   4   2
ENDBRANCH   8   7
ENDBRANCH   9   8
BRANCH  12  13
ATOM     13  N   UNL     1      14.812   7.063  19.600  0.00  0.00    -0.209 NA
BRANCH  13  14
ATOM     14  C   UNL     1      15.020   6.697  20.309  0.00  0.00    +0.117 C 
BRANCH  14  15
ATOM     15  C   UNL     1      15.815   6.588  20.500  0.00  0.00    +0.023 A 
ATOM     16  C   UNL     1      16.362   6.420  19.906  0.00  0.00    -0.001 A 
ATOM     17  C   UNL     1      17.157   6.312  20.097  0.00  0.00    -0.000 A 
ATOM     18  C   UNL     1      17.405   6.371  20.882  0.00  0.00    +0.002 A 
ATOM     19  C   UNL     1      16.858   6.538  21.475  0.00  0.00    +0.029 A 
ATOM     20  C   UNL     1      16.063   6.647  21.285  0.00  0.00    +0.137 A 
ATOM     21  F   UNL     1      15.516   6.815  21.878  0.00  0.00    -0.204 F 
ENDBRANCH  14  15
ENDBRANCH  13  14
ENDBRANCH  12  13
TORSDOF 6
ENDMDL
