MODEL 1
REMARK VINA RESULT:     -13.5      0.000      0.000
REMARK  Name = 
REMARK  7 active torsions:
REMARK  status: ('A' for Active; 'I' for Inactive)
REMARK    1  A    between atoms: C_2  and  C_4
REMARK    2  A    between atoms: C_4  and  C_5
REMARK    3  A    between atoms: C_5  and  C_6
REMARK    4  A    between atoms: C_17  and  N_18
REMARK    5  A    between atoms: N_18  and  S_19
REMARK    6  A    between atoms: S_19  and  C_22
REMARK    7  A    between atoms: C_22  and  C_23
REMARK                            x       y       z     vdW  Elec       q    Type
REMARK                         _______ _______ _______ _____ _____    ______ ____
ROOT
ATOM      6  C   UNL     1      -1.933   2.585  25.100  0.00  0.00    +0.226 C 
ATOM      7  O   UNL     1      -2.348   1.888  24.948  0.00  0.00    -0.275 OA
ATOM      8  N   UNL     1      -2.342   3.290  25.228  0.00  0.00    -0.279 N 
ATOM      9  C   UNL     1      -2.467   4.101  25.385  0.00  0.00    +0.095 C 
ATOM     10  C   UNL     1      -3.455   4.124  25.360  0.00  0.00    +0.043 C 
ATOM     11  C   UNL     1      -4.248   4.309  25.372  0.00  0.00    +0.011 C 
ATOM     12  C   UNL     1      -3.849   3.740  25.271  0.00  0.00    +0.058 C 
ATOM     13  C   UNL     1      -2.895   3.734  25.299  0.00  0.00    +0.099 C 
ATOM     14  C   UNL     1      -3.909   2.841  25.090  0.00  0.00    +0.041 A 
ATOM     15  C   UNL     1      -4.468   2.250  24.956  0.00  0.00    +0.014 A 
ATOM     16  C   UNL     1      -4.224   1.476  24.809  0.00  0.00    +0.024 A 
ATOM     17  C   UNL     1      -3.419   1.293  24.797  0.00  0.00    +0.147 A 
ATOM     29  C   UNL     1      -2.860   1.883  24.932  0.00  0.00    +0.277 A 
ATOM     30  O   UNL     1      -2.151   1.466  24.870  0.00  0.00    -0.266 OA
ATOM     31  N   UNL     1      -3.104   2.657  25.079  0.00  0.00    -0.298 N 
ATOM     32  C   UNL     1      -3.507   3.184  25.171  0.00  0.00    +0.110 C 
ENDROOT
BRANCH   6   5
ATOM      5  C   UNL     1      -1.109   2.577  25.123  0.00  0.00    +0.097 C 
BRANCH   5   4
ATOM      4  C   UNL     1      -0.718   2.347  25.813  0.00  0.00    +0.124 C 
BRANCH   4   2
ATOM      1  O   UNL     1       0.467   2.610  26.566  0.00  0.00    -0.246 OA
ATOM      2  C   UNL     1       0.105   2.396  25.857  0.00  0.00    +0.365 C 
ATOM      3  O   UNL     1       0.564   2.231  25.192  0.00  0.00    -0.246 OA
ENDBRANCH   4   2
ENDBRANCH   5   4
ENDBRANCH   6   5
BRANCH  17  18
ATOM     18  N   UNL     1      -3.176   0.519  24.651  0.00  0.00    -0.095 NA
BRANCH  18  19
ATOM     19  S   UNL     1      -3.731  -0.090  24.617  0.00  0.00    +0.078 S 
ATOM     20  O   UNL     1      -3.766  -0.013  23.797  0.00  0.00    -0.153 OA
ATOM     21  O   UNL     1      -3.696  -0.167  25.438  0.00  0.00    -0.153 OA
BRANCH  19  22
ATOM     22  C   UNL     1      -4.288  -0.699  24.584  0.00  0.00    +0.201 C 
BRANCH  22  23
ATOM     23  C   UNL     1      -4.038  -1.481  24.505  0.00  0.00    +0.003 A 
ATOM     24  C   UNL     1      -4.220  -1.905  23.822  0.00  0.00    -0.003 A 
ATOM     25  C   UNL     1      -3.970  -2.688  23.742  0.00  0.00    -0.000 A 
ATOM     26  C   UNL     1      -3.538  -3.045  24.347  0.00  0.00    -0.000 A 
ATOM     27  C   UNL     1      -3.355  -2.621  25.030  0.00  0.00    -0.000 A 
ATOM     28  C   UNL     1      -3.605  -1.840  25.110  0.00  0.00    -0.003 A 
ENDBRANCH  22  23
ENDBRANCH  19  22
ENDBRANCH  18  19
ENDBRANCH  17  18
TORSDOF 7
ENDMDL
MODEL 2
REMARK VINA RESULT:     -12.8      1.317      2.616
REMARK  Name = 
REMARK  7 active torsions:
REMARK  status: ('A' for Active; 'I' for Inactive)
REMARK    1  A    between atoms: C_2  and  C_4
REMARK    2  A    between atoms: C_4  and  C_5
REMARK    3  A    between atoms: C_5  and  C_6
REMARK    4  A    between atoms: C_17  and  N_18
REMARK    5  A    between atoms: N_18  and  S_19
REMARK    6  A    between atoms: S_19  and  C_22
REMARK    7  A    between atoms: C_22  and  C_23
REMARK                            x       y       z     vdW  Elec       q    Type
REMARK                         _______ _______ _______ _____ _____    ______ ____
ROOT
ATOM      6  C   UNL     1      -3.437   3.107  25.096  0.00  0.00    +0.226 C 
ATOM      7  O   UNL     1      -3.312   2.298  24.991  0.00  0.00    -0.275 OA
ATOM      8  N   UNL     1      -2.793   3.612  25.208  0.00  0.00    -0.279 N 
ATOM      9  C   UNL     1      -2.374   4.324  25.334  0.00  0.00    +0.095 C 
ATOM     10  C   UNL     1      -1.451   3.972  25.344  0.00  0.00    +0.043 C 
ATOM     11  C   UNL     1      -0.647   3.845  25.377  0.00  0.00    +0.011 C 
ATOM     12  C   UNL     1      -1.229   3.464  25.287  0.00  0.00    +0.058 C 
ATOM     13  C   UNL     1      -2.116   3.819  25.280  0.00  0.00    +0.099 C 
ATOM     14  C   UNL     1      -1.510   2.600  25.148  0.00  0.00    +0.041 A 
ATOM     15  C   UNL     1      -1.213   1.836  25.061  0.00  0.00    +0.014 A 
ATOM     16  C   UNL     1      -1.729   1.204  24.940  0.00  0.00    +0.024 A 
ATOM     17  C   UNL     1      -2.543   1.336  24.906  0.00  0.00    +0.147 A 
ATOM     29  C   UNL     1      -2.840   2.100  24.994  0.00  0.00    +0.277 A 
ATOM     30  O   UNL     1      -3.653   1.977  24.925  0.00  0.00    -0.266 OA
ATOM     31  N   UNL     1      -2.324   2.732  25.115  0.00  0.00    -0.298 N 
ATOM     32  C   UNL     1      -1.754   3.073  25.199  0.00  0.00    +0.110 C 
ENDROOT
BRANCH   6   5
ATOM      5  C   UNL     1      -4.203   3.411  25.090  0.00  0.00    +0.097 C 
BRANCH   5   4
ATOM      4  C   UNL     1      -4.649   3.421  25.784  0.00  0.00    +0.124 C 
BRANCH   4   2
ATOM      1  O   UNL     1      -6.009   3.085  26.068  0.00  0.00    -0.246 OA
ATOM      2  C   UNL     1      -5.452   3.609  25.757  0.00  0.00    +0.365 C 
ATOM      3  O   UNL     1      -5.698   4.319  25.417  0.00  0.00    -0.246 OA
ENDBRANCH   4   2
ENDBRANCH   5   4
ENDBRANCH   6   5
BRANCH  17  18
ATOM     18  N   UNL     1      -3.058   0.704  24.785  0.00  0.00    -0.095 NA
BRANCH  18  19
ATOM     19  S   UNL     1      -2.759  -0.055  24.663  0.00  0.00    +0.078 S 
ATOM     20  O   UNL     1      -2.798  -0.201  25.473  0.00  0.00    -0.153 OA
ATOM     21  O   UNL     1      -2.720   0.091  23.852  0.00  0.00    -0.153 OA
BRANCH  19  22
ATOM     22  C   UNL     1      -2.460  -0.814  24.539  0.00  0.00    +0.201 C 
BRANCH  22  23
ATOM     23  C   UNL     1      -2.976  -1.454  24.469  0.00  0.00    +0.003 A 
ATOM     24  C   UNL     1      -3.605  -1.421  23.937  0.00  0.00    -0.003 A 
ATOM     25  C   UNL     1      -4.121  -2.061  23.867  0.00  0.00    -0.000 A 
ATOM     26  C   UNL     1      -4.007  -2.734  24.329  0.00  0.00    -0.000 A 
ATOM     27  C   UNL     1      -3.378  -2.768  24.862  0.00  0.00    -0.000 A 
ATOM     28  C   UNL     1      -2.862  -2.129  24.932  0.00  0.00    -0.003 A 
ENDBRANCH  22  23
ENDBRANCH  19  22
ENDBRANCH  18  19
ENDBRANCH  17  18
TORSDOF 7
ENDMDL
MODEL 3
REMARK VINA RESULT:     -12.4      1.697      4.431
REMARK  Name = 
REMARK  7 active torsions:
REMARK  status: ('A' for Active; 'I' for Inactive)
REMARK    1  A    between atoms: C_2  and  C_4
REMARK    2  A    between atoms: C_4  and  C_5
REMARK    3  A    between atoms: C_5  and  C_6
REMARK    4  A    between atoms: C_17  and  N_18
REMARK    5  A    between atoms: N_18  and  S_19
REMARK    6  A    between atoms: S_19  and  C_22
REMARK    7  A    between atoms: C_22  and  C_23
REMARK                            x       y       z     vdW  Elec       q    Type
REMARK                         _______ _______ _______ _____ _____    ______ ____
ROOT
ATOM      6  C   UNL     1      -1.688  -0.799  24.562  0.00  0.00    +0.226 C 
ATOM      7  O   UNL     1      -2.298  -0.245  24.615  0.00  0.00    -0.275 OA
ATOM      8  N   UNL     1      -1.865  -1.605  24.527  0.00  0.00    -0.279 N 
ATOM      9  C   UNL     1      -1.737  -2.429  24.478  0.00  0.00    +0.095 C 
ATOM     10  C   UNL     1      -2.673  -2.743  24.498  0.00  0.00    +0.043 C 
ATOM     11  C   UNL     1      -3.375  -3.157  24.503  0.00  0.00    +0.011 C 
ATOM     12  C   UNL     1      -3.168  -2.487  24.530  0.00  0.00    +0.058 C 
ATOM     13  C   UNL     1      -2.257  -2.199  24.510  0.00  0.00    +0.099 C 
ATOM     14  C   UNL     1      -3.499  -1.632  24.588  0.00  0.00    +0.041 A 
ATOM     15  C   UNL     1      -4.214  -1.224  24.637  0.00  0.00    +0.014 A 
ATOM     16  C   UNL     1      -4.216  -0.400  24.680  0.00  0.00    +0.024 A 
ATOM     17  C   UNL     1      -3.503   0.016  24.675  0.00  0.00    +0.147 A 
ATOM     29  C   UNL     1      -2.788  -0.392  24.626  0.00  0.00    +0.277 A 
ATOM     30  O   UNL     1      -2.239   0.222  24.637  0.00  0.00    -0.266 OA
ATOM     31  N   UNL     1      -2.786  -1.216  24.582  0.00  0.00    -0.298 N 
ATOM     32  C   UNL     1      -3.010  -1.846  24.558  0.00  0.00    +0.110 C 
ENDROOT
BRANCH   6   5
ATOM      5  C   UNL     1      -0.903  -0.548  24.545  0.00  0.00    +0.097 C 
BRANCH   5   4
ATOM      4  C   UNL     1      -0.592  -0.214  23.858  0.00  0.00    +0.124 C 
BRANCH   4   2
ATOM      1  O   UNL     1       0.750  -0.472  23.440  0.00  0.00    -0.246 OA
ATOM      2  C   UNL     1       0.203   0.007  23.830  0.00  0.00    +0.365 C 
ATOM      3  O   UNL     1       0.450   0.705  24.192  0.00  0.00    -0.246 OA
ENDBRANCH   4   2
ENDBRANCH   5   4
ENDBRANCH   6   5
BRANCH  17  18
ATOM     18  N   UNL     1      -3.507   0.839  24.718  0.00  0.00    -0.095 NA
BRANCH  18  19
ATOM     19  S   UNL     1      -4.220   1.251  24.689  0.00  0.00    +0.078 S 
ATOM     20  O   UNL     1      -4.329   1.121  25.496  0.00  0.00    -0.153 OA
ATOM     21  O   UNL     1      -4.112   1.381  23.881  0.00  0.00    -0.153 OA
BRANCH  19  22
ATOM     22  C   UNL     1      -4.935   1.664  24.659  0.00  0.00    +0.201 C 
BRANCH  22  23
ATOM     23  C   UNL     1      -4.968   2.449  24.910  0.00  0.00    +0.003 A 
ATOM     24  C   UNL     1      -4.446   3.005  24.596  0.00  0.00    -0.003 A 
ATOM     25  C   UNL     1      -4.479   3.790  24.847  0.00  0.00    -0.000 A 
ATOM     26  C   UNL     1      -5.034   4.019  25.412  0.00  0.00    -0.000 A 
ATOM     27  C   UNL     1      -5.557   3.463  25.726  0.00  0.00    -0.000 A 
ATOM     28  C   UNL     1      -5.524   2.679  25.475  0.00  0.00    -0.003 A 
ENDBRANCH  22  23
ENDBRANCH  19  22
ENDBRANCH  18  19
ENDBRANCH  17  18
TORSDOF 7
ENDMDL
