MODEL 1
REMARK VINA RESULT:     -14.9      0.000      0.000
REMARK  Name = 
REMARK  3 active torsions:
REMARK  status: ('A' for Active; 'I' for Inactive)
REMARK    1  A    between atoms: O_2  and  C_3
REMARK    2  A    between atoms: C_4  and  C_9
REMARK    3  A    between atoms: C_18  and  C_25
REMARK                            x       y       z     vdW  Elec       q    Type
REMARK                         _______ _______ _______ _____ _____    ______ ____
ROOT
ATOM      9  C   UNL     1      -4.033   3.317  24.407  0.00  0.00    +0.252 C 
ATOM     10  O   UNL     1      -4.289   4.180  24.491  0.00  0.00    -0.270 OA
ATOM     11  N   UNL     1      -4.600   2.749  24.779  0.00  0.00    -0.276 N 
ATOM     12  C   UNL     1      -5.304   2.595  25.201  0.00  0.00    +0.096 C 
ATOM     13  C   UNL     1      -5.256   1.609  25.247  0.00  0.00    +0.043 C 
ATOM     14  C   UNL     1      -5.364   0.811  25.369  0.00  0.00    +0.011 C 
ATOM     15  C   UNL     1      -4.891   1.230  25.063  0.00  0.00    +0.058 C 
ATOM     16  C   UNL     1      -4.952   2.182  25.027  0.00  0.00    +0.099 C 
ATOM     17  C   UNL     1      -4.096   1.204  24.603  0.00  0.00    +0.041 A 
ATOM     18  C   UNL     1      -3.538   0.668  24.319  0.00  0.00    +0.015 A 
ATOM     19  C   UNL     1      -2.874   0.940  23.912  0.00  0.00    +0.006 A 
ATOM     20  C   UNL     1      -2.768   1.750  23.790  0.00  0.00    +0.061 A 
ATOM     21  C   UNL     1      -3.327   2.286  24.074  0.00  0.00    +0.261 A 
ATOM     22  O   UNL     1      -3.242   3.303  23.948  0.00  0.00    -0.267 OA
ATOM     23  N   UNL     1      -3.991   2.013  24.481  0.00  0.00    -0.299 N 
ATOM     24  C   UNL     1      -4.426   1.592  24.765  0.00  0.00    +0.110 C 
ENDROOT
BRANCH   9   4
ATOM      3  C   UNL     1      -2.622   2.968  24.369  0.00  0.00    +0.143 A 
ATOM      4  C   UNL     1      -3.366   2.796  24.059  0.00  0.00    +0.087 A 
ATOM      5  C   UNL     1      -3.451   2.203  23.492  0.00  0.00    +0.008 A 
ATOM      6  C   UNL     1      -2.723   1.705  23.176  0.00  0.00    +0.000 A 
ATOM      7  C   UNL     1      -2.044   1.953  23.544  0.00  0.00    +0.003 A 
ATOM      8  C   UNL     1      -1.960   2.546  24.111  0.00  0.00    +0.037 A 
BRANCH   3   2
ATOM      1  C   UNL     1      -1.932   3.983  25.280  0.00  0.00    +0.252 C 
ATOM      2  O   UNL     1      -2.639   3.657  25.005  0.00  0.00    -0.471 OA
ENDBRANCH   3   2
ENDBRANCH   9   4
BRANCH  18  25
ATOM     25  C   UNL     1      -3.643  -0.142  24.441  0.00  0.00    +0.039 A 
ATOM     26  C   UNL     1      -3.343  -0.498  25.122  0.00  0.00    +0.102 A 
ATOM     27  N   UNL     1      -3.449  -1.308  25.244  0.00  0.00    -0.222 NA
ATOM     28  C   UNL     1      -3.854  -1.760  24.686  0.00  0.00    +0.199 A 
ATOM     29  N   UNL     1      -4.154  -1.403  24.005  0.00  0.00    -0.222 NA
ATOM     30  C   UNL     1      -4.049  -0.594  23.883  0.00  0.00    +0.102 A 
ENDBRANCH  18  25
TORSDOF 3
ENDMDL
MODEL 2
REMARK VINA RESULT:     -14.8      0.788      2.046
REMARK  Name = 
REMARK  3 active torsions:
REMARK  status: ('A' for Active; 'I' for Inactive)
REMARK    1  A    between atoms: O_2  and  C_3
REMARK    2  A    between atoms: C_4  and  C_9
REMARK    3  A    between atoms: C_18  and  C_25
REMARK                            x       y       z     vdW  Elec       q    Type
REMARK                         _______ _______ _______ _____ _____    ______ ____
ROOT
ATOM      9  C   UNL     1      -3.935   3.149  24.071  0.00  0.00    +0.252 C 
ATOM     10  O   UNL     1      -3.748   3.988  23.792  0.00  0.00    -0.270 OA
ATOM     11  N   UNL     1      -3.345   2.551  23.793  0.00  0.00    -0.276 N 
ATOM     12  C   UNL     1      -2.651   2.354  23.372  0.00  0.00    +0.096 C 
ATOM     13  C   UNL     1      -2.628   1.380  23.538  0.00  0.00    +0.043 C 
ATOM     14  C   UNL     1      -2.468   0.583  23.580  0.00  0.00    +0.011 C 
ATOM     15  C   UNL     1      -2.956   1.027  23.819  0.00  0.00    +0.058 C 
ATOM     16  C   UNL     1      -2.964   1.967  23.650  0.00  0.00    +0.099 C 
ATOM     17  C   UNL     1      -3.725   1.051  24.322  0.00  0.00    +0.041 A 
ATOM     18  C   UNL     1      -4.229   0.555  24.746  0.00  0.00    +0.015 A 
ATOM     19  C   UNL     1      -4.892   0.867  25.125  0.00  0.00    +0.006 A 
ATOM     20  C   UNL     1      -5.051   1.675  25.080  0.00  0.00    +0.061 A 
ATOM     21  C   UNL     1      -4.547   2.171  24.656  0.00  0.00    +0.261 A 
ATOM     22  O   UNL     1      -4.701   3.185  24.569  0.00  0.00    -0.267 OA
ATOM     23  N   UNL     1      -3.884   1.860  24.277  0.00  0.00    -0.299 N 
ATOM     24  C   UNL     1      -3.432   1.415  24.061  0.00  0.00    +0.110 C 
ENDROOT
BRANCH   9   4
ATOM      3  C   UNL     1      -4.604   2.928  25.343  0.00  0.00    +0.143 A 
ATOM      4  C   UNL     1      -4.545   2.674  24.561  0.00  0.00    +0.087 A 
ATOM      5  C   UNL     1      -5.012   2.049  24.293  0.00  0.00    +0.008 A 
ATOM      6  C   UNL     1      -5.619   1.605  24.850  0.00  0.00    +0.000 A 
ATOM      7  C   UNL     1      -5.597   1.931  25.592  0.00  0.00    +0.003 A 
ATOM      8  C   UNL     1      -5.130   2.556  25.859  0.00  0.00    +0.037 A 
BRANCH   3   2
ATOM      1  C   UNL     1      -4.076   4.019  26.275  0.00  0.00    +0.252 C 
ATOM      2  O   UNL     1      -4.030   3.644  25.542  0.00  0.00    -0.471 OA
ENDBRANCH   3   2
ENDBRANCH   9   4
BRANCH  18  25
ATOM     25  C   UNL     1      -4.069  -0.254  24.791  0.00  0.00    +0.039 A 
ATOM     26  C   UNL     1      -3.637  -0.554  25.426  0.00  0.00    +0.102 A 
ATOM     27  N   UNL     1      -3.478  -1.362  25.471  0.00  0.00    -0.222 NA
ATOM     28  C   UNL     1      -3.751  -1.870  24.881  0.00  0.00    +0.199 A 
ATOM     29  N   UNL     1      -4.183  -1.570  24.246  0.00  0.00    -0.222 NA
ATOM     30  C   UNL     1      -4.342  -0.762  24.201  0.00  0.00    +0.102 A 
ENDBRANCH  18  25
TORSDOF 3
ENDMDL
MODEL 3
REMARK VINA RESULT:     -14.2      1.659      2.914
REMARK  Name = 
REMARK  3 active torsions:
REMARK  status: ('A' for Active; 'I' for Inactive)
REMARK    1  A    between atoms: O_2  and  C_3
REMARK    2  A    between atoms: C_4  and  C_9
REMARK    3  A    between atoms: C_18  and  C_25
REMARK                            x       y       z     vdW  Elec       q    Type
REMARK                         _______ _______ _______ _____ _____    ______ ____
ROOT
ATOM      9  C   UNL     1      -4.595   3.451  25.167  0.00  0.00    +0.252 C 
ATOM     10  O   UNL     1      -5.322   3.947  25.373  0.00  0.00    -0.270 OA
ATOM     11  N   UNL     1      -3.846   3.774  25.507  0.00  0.00    -0.276 N 
ATOM     12  C   UNL     1      -3.439   4.349  25.955  0.00  0.00    +0.096 C 
ATOM     13  C   UNL     1      -2.518   3.998  25.878  0.00  0.00    +0.043 C 
ATOM     14  C   UNL     1      -1.719   3.844  25.909  0.00  0.00    +0.011 C 
ATOM     15  C   UNL     1      -2.292   3.556  25.623  0.00  0.00    +0.058 C 
ATOM     16  C   UNL     1      -3.176   3.908  25.708  0.00  0.00    +0.099 C 
ATOM     17  C   UNL     1      -2.561   2.845  25.108  0.00  0.00    +0.041 A 
ATOM     18  C   UNL     1      -2.257   2.183  24.721  0.00  0.00    +0.015 A 
ATOM     19  C   UNL     1      -2.762   1.681  24.304  0.00  0.00    +0.006 A 
ATOM     20  C   UNL     1      -3.571   1.841  24.274  0.00  0.00    +0.061 A 
ATOM     21  C   UNL     1      -3.875   2.503  24.661  0.00  0.00    +0.261 A 
ATOM     22  O   UNL     1      -4.875   2.746  24.654  0.00  0.00    -0.267 OA
ATOM     23  N   UNL     1      -3.370   3.005  25.078  0.00  0.00    -0.299 N 
ATOM     24  C   UNL     1      -2.809   3.258  25.339  0.00  0.00    +0.110 C 
ENDROOT
BRANCH   9   4
ATOM      3  C   UNL     1      -4.722   2.014  24.978  0.00  0.00    +0.143 A 
ATOM      4  C   UNL     1      -4.346   2.697  24.711  0.00  0.00    +0.087 A 
ATOM      5  C   UNL     1      -3.806   2.655  24.089  0.00  0.00    +0.008 A 
ATOM      6  C   UNL     1      -3.594   1.848  23.664  0.00  0.00    +0.000 A 
ATOM      7  C   UNL     1      -4.017   1.244  24.002  0.00  0.00    +0.003 A 
ATOM      8  C   UNL     1      -4.557   1.287  24.623  0.00  0.00    +0.037 A 
BRANCH   3   2
ATOM      1  C   UNL     1      -5.858   1.594  25.911  0.00  0.00    +0.252 C 
ATOM      2  O   UNL     1      -5.316   2.174  25.687  0.00  0.00    -0.471 OA
ENDBRANCH   3   2
ENDBRANCH   9   4
BRANCH  18  25
ATOM     25  C   UNL     1      -1.448   2.023  24.751  0.00  0.00    +0.039 A 
ATOM     26  C   UNL     1      -1.146   1.535  25.342  0.00  0.00    +0.102 A 
ATOM     27  N   UNL     1      -0.337   1.375  25.372  0.00  0.00    -0.222 NA
ATOM     28  C   UNL     1       0.170   1.703  24.810  0.00  0.00    +0.199 A 
ATOM     29  N   UNL     1      -0.133   2.192  24.219  0.00  0.00    -0.222 NA
ATOM     30  C   UNL     1      -0.942   2.352  24.189  0.00  0.00    +0.102 A 
ENDBRANCH  18  25
TORSDOF 3
ENDMDL
MODEL 4
REMARK VINA RESULT:     -14.1      1.482      2.361
REMARK  Name = 
REMARK  3 active torsions:
REMARK  status: ('A' for Active; 'I' for Inactive)
REMARK    1  A    between atoms: O_2  and  C_3
REMARK    2  A    between atoms: C_4  and  C_9
REMARK    3  A    between atoms: C_18  and  C_25
REMARK                            x       y       z     vdW  Elec       q    Type
REMARK                         _______ _______ _______ _____ _____    ______ ____
ROOT
ATOM      9  C   UNL     1      -5.233   1.681  24.678  0.00  0.00    +0.252 C 
ATOM     10  O   UNL     1      -6.126   1.596  24.793  0.00  0.00    -0.270 OA
ATOM     11  N   UNL     1      -4.786   0.944  24.872  0.00  0.00    -0.276 N 
ATOM     12  C   UNL     1      -4.768   0.149  25.128  0.00  0.00    +0.096 C 
ATOM     13  C   UNL     1      -3.794  -0.016  25.086  0.00  0.00    +0.043 C 
ATOM     14  C   UNL     1      -3.034  -0.308  25.106  0.00  0.00    +0.011 C 
ATOM     15  C   UNL     1      -3.354   0.295  24.942  0.00  0.00    +0.058 C 
ATOM     16  C   UNL     1      -4.297   0.439  24.988  0.00  0.00    +0.099 C 
ATOM     17  C   UNL     1      -3.179   1.148  24.649  0.00  0.00    +0.041 A 
ATOM     18  C   UNL     1      -2.548   1.633  24.430  0.00  0.00    +0.015 A 
ATOM     19  C   UNL     1      -2.689   2.410  24.192  0.00  0.00    +0.006 A 
ATOM     20  C   UNL     1      -3.461   2.702  24.173  0.00  0.00    +0.061 A 
ATOM     21  C   UNL     1      -4.091   2.217  24.392  0.00  0.00    +0.261 A 
ATOM     22  O   UNL     1      -5.070   2.533  24.386  0.00  0.00    -0.267 OA
ATOM     23  N   UNL     1      -3.950   1.440  24.630  0.00  0.00    -0.299 N 
ATOM     24  C   UNL     1      -3.620   0.877  24.780  0.00  0.00    +0.110 C 
ENDROOT
BRANCH   9   4
ATOM      3  C   UNL     1      -4.592   2.971  24.879  0.00  0.00    +0.143 A 
ATOM      4  C   UNL     1      -4.597   2.287  24.419  0.00  0.00    +0.087 A 
ATOM      5  C   UNL     1      -4.062   2.203  23.797  0.00  0.00    +0.008 A 
ATOM      6  C   UNL     1      -3.434   2.864  23.585  0.00  0.00    +0.000 A 
ATOM      7  C   UNL     1      -3.515   3.490  24.095  0.00  0.00    +0.003 A 
ATOM      8  C   UNL     1      -4.050   3.573  24.717  0.00  0.00    +0.037 A 
BRANCH   3   2
ATOM      1  C   UNL     1      -5.420   3.658  25.966  0.00  0.00    +0.252 C 
ATOM      2  O   UNL     1      -5.240   2.964  25.558  0.00  0.00    -0.471 OA
ENDBRANCH   3   2
ENDBRANCH   9   4
BRANCH  18  25
ATOM     25  C   UNL     1      -1.777   1.340  24.449  0.00  0.00    +0.039 A 
ATOM     26  C   UNL     1      -1.329   1.402  25.139  0.00  0.00    +0.102 A 
ATOM     27  N   UNL     1      -0.558   1.109  25.158  0.00  0.00    -0.222 NA
ATOM     28  C   UNL     1      -0.234   0.756  24.487  0.00  0.00    +0.199 A 
ATOM     29  N   UNL     1      -0.682   0.694  23.797  0.00  0.00    -0.222 NA
ATOM     30  C   UNL     1      -1.453   0.987  23.778  0.00  0.00    +0.102 A 
ENDBRANCH  18  25
TORSDOF 3
ENDMDL
