MODEL 1
REMARK VINA RESULT:     -13.0      0.000      0.000
REMARK  Name = 
REMARK  4 active torsions:
REMARK  status: ('A' for Active; 'I' for Inactive)
REMARK    1  A    between atoms: S_2  and  C_3
REMARK    2  A    between atoms: C_6  and  C_9
REMARK    3  A    between atoms: C_17  and  C_19
REMARK    4  A    between atoms: C_19  and  N_20
REMARK                            x       y       z     vdW  Elec       q    Type
REMARK                         _______ _______ _______ _____ _____    ______ ____
ROOT
ATOM      9  C   UNL     1      -3.956   0.561  24.785  0.00  0.00    +0.012 A 
ATOM     10  C   UNL     1      -3.296   1.031  24.631  0.00  0.00    +0.041 A 
ATOM     11  C   UNL     1      -2.419   0.965  24.367  0.00  0.00    +0.058 C 
ATOM     12  C   UNL     1      -1.933   0.492  24.184  0.00  0.00    +0.011 C 
ATOM     13  C   UNL     1      -1.985   1.301  24.268  0.00  0.00    +0.043 C 
ATOM     14  C   UNL     1      -1.850   2.279  24.311  0.00  0.00    +0.095 C 
ATOM     15  N   UNL     1      -2.613   2.515  24.556  0.00  0.00    -0.278 N 
ATOM     16  C   UNL     1      -2.272   1.908  24.404  0.00  0.00    +0.099 C 
ATOM     17  C   UNL     1      -3.228   3.017  24.780  0.00  0.00    +0.242 C 
ATOM     18  O   UNL     1      -3.968   2.704  24.971  0.00  0.00    -0.273 OA
ATOM     23  C   UNL     1      -2.901   1.380  24.544  0.00  0.00    +0.110 C 
ATOM     24  N   UNL     1      -3.345   1.851  24.715  0.00  0.00    -0.299 N 
ATOM     25  C   UNL     1      -4.054   2.200  24.954  0.00  0.00    +0.261 A 
ATOM     26  O   UNL     1      -4.344   2.957  25.104  0.00  0.00    -0.267 OA
ATOM     27  C   UNL     1      -4.713   1.729  25.108  0.00  0.00    +0.061 A 
ATOM     28  C   UNL     1      -4.664   0.910  25.024  0.00  0.00    +0.006 A 
ENDROOT
BRANCH   9   6
ATOM      3  C   UNL     1      -3.809  -1.897  24.533  0.00  0.00    +0.025 A 
ATOM      4  C   UNL     1      -3.619  -1.545  25.254  0.00  0.00    +0.006 A 
ATOM      5  C   UNL     1      -3.668  -0.725  25.338  0.00  0.00    +0.001 A 
ATOM      6  C   UNL     1      -3.907  -0.259  24.701  0.00  0.00    +0.001 A 
ATOM      7  C   UNL     1      -4.097  -0.611  23.980  0.00  0.00    +0.001 A 
ATOM      8  C   UNL     1      -4.048  -1.431  23.896  0.00  0.00    +0.006 A 
BRANCH   3   2
ATOM      1  C   UNL     1      -3.032  -3.096  24.523  0.00  0.00    +0.074 C 
ATOM      2  S   UNL     1      -3.761  -2.716  24.449  0.00  0.00    -0.113 S 
ENDBRANCH   3   2
ENDBRANCH   9   6
BRANCH  17  19
ATOM     19  C   UNL     1      -3.105   3.832  24.813  0.00  0.00    +0.159 C 
BRANCH  19  20
ATOM     20  N   UNL     1      -2.751   4.169  25.478  0.00  0.00    -0.263 NA
ATOM     21  C   UNL     1      -1.981   4.464  25.432  0.00  0.00    +0.090 C 
ATOM     22  C   UNL     1      -3.166   4.210  26.190  0.00  0.00    +0.090 C 
ENDBRANCH  19  20
ENDBRANCH  17  19
TORSDOF 4
ENDMDL
MODEL 2
REMARK VINA RESULT:     -11.9      2.199      4.493
REMARK  Name = 
REMARK  4 active torsions:
REMARK  status: ('A' for Active; 'I' for Inactive)
REMARK    1  A    between atoms: S_2  and  C_3
REMARK    2  A    between atoms: C_6  and  C_9
REMARK    3  A    between atoms: C_17  and  C_19
REMARK    4  A    between atoms: C_19  and  N_20
REMARK                            x       y       z     vdW  Elec       q    Type
REMARK                         _______ _______ _______ _____ _____    ______ ____
ROOT
ATOM      9  C   UNL     1      -1.738   1.274  25.173  0.00  0.00    +0.012 A 
ATOM     10  C   UNL     1      -2.519   1.060  25.015  0.00  0.00    +0.041 A 
ATOM     11  C   UNL     1      -3.322   1.427  24.760  0.00  0.00    +0.058 C 
ATOM     12  C   UNL     1      -3.617   2.040  24.591  0.00  0.00    +0.011 C 
ATOM     13  C   UNL     1      -3.844   1.261  24.657  0.00  0.00    +0.043 C 
ATOM     14  C   UNL     1      -4.304   0.386  24.681  0.00  0.00    +0.095 C 
ATOM     15  N   UNL     1      -3.666  -0.101  24.914  0.00  0.00    -0.278 N 
ATOM     16  C   UNL     1      -3.780   0.589  24.778  0.00  0.00    +0.099 C 
ATOM     17  C   UNL     1      -3.258  -0.787  25.122  0.00  0.00    +0.242 C 
ATOM     18  O   UNL     1      -2.456  -0.749  25.313  0.00  0.00    -0.273 OA
ATOM     23  C   UNL     1      -3.009   0.868  24.924  0.00  0.00    +0.110 C 
ATOM     24  N   UNL     1      -2.751   0.271  25.081  0.00  0.00    -0.299 N 
ATOM     25  C   UNL     1      -2.204  -0.304  25.306  0.00  0.00    +0.261 A 
ATOM     26  O   UNL     1      -2.189  -1.118  25.437  0.00  0.00    -0.267 OA
ATOM     27  C   UNL     1      -1.423  -0.089  25.464  0.00  0.00    +0.061 A 
ATOM     28  C   UNL     1      -1.190   0.699  25.398  0.00  0.00    +0.006 A 
ENDROOT
BRANCH   9   6
ATOM      3  C   UNL     1      -1.039   3.640  24.974  0.00  0.00    +0.025 A 
ATOM      4  C   UNL     1      -1.314   3.351  25.696  0.00  0.00    +0.006 A 
ATOM      5  C   UNL     1      -1.546   2.562  25.762  0.00  0.00    +0.001 A 
ATOM      6  C   UNL     1      -1.505   2.063  25.107  0.00  0.00    +0.001 A 
ATOM      7  C   UNL     1      -1.231   2.352  24.385  0.00  0.00    +0.001 A 
ATOM      8  C   UNL     1      -0.998   3.141  24.319  0.00  0.00    +0.006 A 
BRANCH   3   2
ATOM      1  C   UNL     1      -1.349   5.033  25.053  0.00  0.00    +0.074 C 
ATOM      2  S   UNL     1      -0.807   4.428  24.908  0.00  0.00    -0.113 S 
ENDBRANCH   3   2
ENDBRANCH   9   6
BRANCH  17  19
ATOM     19  C   UNL     1      -3.652  -1.512  25.139  0.00  0.00    +0.159 C 
BRANCH  19  20
ATOM     20  N   UNL     1      -3.599  -2.025  24.494  0.00  0.00    -0.263 NA
ATOM     21  C   UNL     1      -2.973  -2.561  24.443  0.00  0.00    +0.090 C 
ATOM     22  C   UNL     1      -4.173  -2.002  23.901  0.00  0.00    +0.090 C 
ENDBRANCH  19  20
ENDBRANCH  17  19
TORSDOF 4
ENDMDL
MODEL 3
REMARK VINA RESULT:     -11.0      1.408      2.404
REMARK  Name = 
REMARK  4 active torsions:
REMARK  status: ('A' for Active; 'I' for Inactive)
REMARK    1  A    between atoms: S_2  and  C_3
REMARK    2  A    between atoms: C_6  and  C_9
REMARK    3  A    between atoms: C_17  and  C_19
REMARK    4  A    between atoms: C_19  and  N_20
REMARK                            x       y       z     vdW  Elec       q    Type
REMARK                         _______ _______ _______ _____ _____    ______ ____
ROOT
ATOM      9  C   UNL     1      -2.266   0.855  24.916  0.00  0.00    +0.012 A 
ATOM     10  C   UNL     1      -3.084   0.765  24.867  0.00  0.00    +0.041 A 
ATOM     11  C   UNL     1      -3.729   0.111  24.841  0.00  0.00    +0.058 C 
ATOM     12  C   UNL     1      -3.807  -0.587  24.852  0.00  0.00    +0.011 C 
ATOM     13  C   UNL     1      -4.285   0.072  24.808  0.00  0.00    +0.043 C 
ATOM     14  C   UNL     1      -5.017   0.733  24.748  0.00  0.00    +0.095 C 
ATOM     15  N   UNL     1      -4.570   1.439  24.761  0.00  0.00    -0.278 N 
ATOM     16  C   UNL     1      -4.448   0.737  24.783  0.00  0.00    +0.099 C 
ATOM     17  C   UNL     1      -4.409   2.248  24.753  0.00  0.00    +0.242 C 
ATOM     18  O   UNL     1      -3.629   2.514  24.795  0.00  0.00    -0.273 OA
ATOM     23  C   UNL     1      -3.618   0.762  24.834  0.00  0.00    +0.110 C 
ATOM     24  N   UNL     1      -3.571   1.429  24.822  0.00  0.00    -0.299 N 
ATOM     25  C   UNL     1      -3.239   2.185  24.826  0.00  0.00    +0.261 A 
ATOM     26  O   UNL     1      -3.497   2.967  24.793  0.00  0.00    -0.267 OA
ATOM     27  C   UNL     1      -2.421   2.275  24.875  0.00  0.00    +0.061 A 
ATOM     28  C   UNL     1      -1.934   1.610  24.919  0.00  0.00    +0.006 A 
ENDROOT
BRANCH   9   6
ATOM      3  C   UNL     1      -0.806  -1.140  25.049  0.00  0.00    +0.025 A 
ATOM      4  C   UNL     1      -0.984  -0.807  24.316  0.00  0.00    +0.006 A 
ATOM      5  C   UNL     1      -1.471  -0.143  24.271  0.00  0.00    +0.001 A 
ATOM      6  C   UNL     1      -1.779   0.190  24.960  0.00  0.00    +0.001 A 
ATOM      7  C   UNL     1      -1.601  -0.142  25.694  0.00  0.00    +0.001 A 
ATOM      8  C   UNL     1      -1.114  -0.807  25.738  0.00  0.00    +0.006 A 
BRANCH   3   2
ATOM      1  C   UNL     1      -0.651  -2.560  25.085  0.00  0.00    +0.074 C 
ATOM      2  S   UNL     1      -0.320  -1.804  25.094  0.00  0.00    -0.113 S 
ENDBRANCH   3   2
ENDBRANCH   9   6
BRANCH  17  19
ATOM     19  C   UNL     1      -5.028   2.791  24.703  0.00  0.00    +0.159 C 
BRANCH  19  20
ATOM     20  N   UNL     1      -5.297   3.174  25.382  0.00  0.00    -0.263 NA
ATOM     21  C   UNL     1      -4.977   3.904  25.598  0.00  0.00    +0.090 C 
ATOM     22  C   UNL     1      -5.885   2.828  25.846  0.00  0.00    +0.090 C 
ENDBRANCH  19  20
ENDBRANCH  17  19
TORSDOF 4
ENDMDL
