MODEL 1
REMARK VINA RESULT:     -10.4      0.000      0.000
REMARK  Name = 
REMARK  5 active torsions:
REMARK  status: ('A' for Active; 'I' for Inactive)
REMARK    1  A    between atoms: S_2  and  N_5
REMARK    2  A    between atoms: C_10  and  C_12
REMARK    3  A    between atoms: C_15  and  C_17
REMARK    4  A    between atoms: N_21  and  C_22
REMARK    5  A    between atoms: C_22  and  C_23
REMARK                            x       y       z     vdW  Elec       q    Type
REMARK                         _______ _______ _______ _____ _____    ______ ____
ROOT
ATOM     12  C   UNL     1      -3.973   1.465  24.814  0.00  0.00    +0.203 A 
ATOM     13  N   UNL     1      -4.571   1.209  25.323  0.00  0.00    -0.056 NA
ATOM     14  O   UNL     1      -4.634   0.390  25.250  0.00  0.00    -0.336 OA
ATOM     15  C   UNL     1      -4.075   0.140  24.696  0.00  0.00    +0.251 A 
ATOM     16  N   UNL     1      -3.667   0.804  24.427  0.00  0.00    -0.190 NA
ENDROOT
BRANCH  12  10
ATOM      5  N   UNL     1      -2.135   3.575  25.392  0.00  0.00    -0.081 NA
ATOM      6  C   UNL     1      -2.807   3.301  24.999  0.00  0.00    +0.171 A 
ATOM      7  N   UNL     1      -3.231   3.806  24.504  0.00  0.00    -0.226 NA
ATOM      8  C   UNL     1      -3.903   3.531  24.112  0.00  0.00    +0.101 A 
ATOM      9  C   UNL     1      -4.151   2.751  24.215  0.00  0.00    +0.024 A 
ATOM     10  C   UNL     1      -3.726   2.245  24.711  0.00  0.00    +0.044 A 
ATOM     11  C   UNL     1      -3.054   2.521  25.102  0.00  0.00    +0.041 A 
BRANCH   5   2
ATOM      1  C   UNL     1      -1.640   5.136  25.185  0.00  0.00    +0.202 C 
ATOM      2  S   UNL     1      -1.887   4.356  25.288  0.00  0.00    +0.076 S 
ATOM      3  O   UNL     1      -2.395   4.597  25.892  0.00  0.00    -0.153 OA
ATOM      4  O   UNL     1      -1.379   4.115  24.685  0.00  0.00    -0.153 OA
ENDBRANCH   5   2
ENDBRANCH  12  10
BRANCH  15  17
ATOM     17  C   UNL     1      -3.947  -0.639  24.455  0.00  0.00    +0.138 C 
ATOM     18  C   UNL     1      -4.445  -1.084  23.971  0.00  0.00    +0.027 C 
ATOM     19  C   UNL     1      -4.104  -1.829  23.872  0.00  0.00    +0.019 C 
ATOM     20  C   UNL     1      -3.396  -1.844  24.295  0.00  0.00    +0.073 C 
ATOM     21  N   UNL     1      -3.299  -1.108  24.655  0.00  0.00    -0.260 NA
BRANCH  21  22
ATOM     22  C   UNL     1      -2.665  -0.881  25.132  0.00  0.00    +0.139 C 
BRANCH  22  23
ATOM     23  C   UNL     1      -1.919  -1.212  25.012  0.00  0.00    +0.155 A 
ATOM     24  N   UNL     1      -1.313  -0.891  24.555  0.00  0.00    -0.226 NA
ATOM     25  C   UNL     1      -0.667  -1.403  24.589  0.00  0.00    +0.121 A 
ATOM     26  C   UNL     1      -0.875  -2.043  25.068  0.00  0.00    +0.121 A 
ATOM     27  N   UNL     1      -1.648  -1.924  25.330  0.00  0.00    -0.226 NA
ENDBRANCH  22  23
ENDBRANCH  21  22
ENDBRANCH  15  17
TORSDOF 5
ENDMDL
MODEL 2
REMARK VINA RESULT:     -10.1      2.066      5.289
REMARK  Name = 
REMARK  5 active torsions:
REMARK  status: ('A' for Active; 'I' for Inactive)
REMARK    1  A    between atoms: S_2  and  N_5
REMARK    2  A    between atoms: C_10  and  C_12
REMARK    3  A    between atoms: C_15  and  C_17
REMARK    4  A    between atoms: N_21  and  C_22
REMARK    5  A    between atoms: C_22  and  C_23
REMARK                            x       y       z     vdW  Elec       q    Type
REMARK                         _______ _______ _______ _____ _____    ______ ____
ROOT
ATOM     12  C   UNL     1      -1.891   0.821  24.473  0.00  0.00    +0.203 A 
ATOM     13  N   UNL     1      -1.638   1.237  23.807  0.00  0.00    -0.056 NA
ATOM     14  O   UNL     1      -1.702   2.042  23.970  0.00  0.00    -0.336 OA
ATOM     15  C   UNL     1      -1.995   2.124  24.737  0.00  0.00    +0.251 A 
ATOM     16  N   UNL     1      -2.112   1.370  25.047  0.00  0.00    -0.190 NA
ENDROOT
BRANCH  12  10
ATOM      5  N   UNL     1      -3.401  -1.600  24.643  0.00  0.00    -0.081 NA
ATOM      6  C   UNL     1      -2.673  -1.211  24.636  0.00  0.00    +0.171 A 
ATOM      7  N   UNL     1      -1.974  -1.642  24.705  0.00  0.00    -0.226 NA
ATOM      8  C   UNL     1      -1.246  -1.253  24.698  0.00  0.00    +0.101 A 
ATOM      9  C   UNL     1      -1.219  -0.432  24.620  0.00  0.00    +0.024 A 
ATOM     10  C   UNL     1      -1.919  -0.000  24.550  0.00  0.00    +0.044 A 
ATOM     11  C   UNL     1      -2.646  -0.390  24.558  0.00  0.00    +0.041 A 
BRANCH   5   2
ATOM      1  C   UNL     1      -3.456  -3.242  24.798  0.00  0.00    +0.202 C 
ATOM      2  S   UNL     1      -3.428  -2.421  24.721  0.00  0.00    +0.076 S 
ATOM      3  O   UNL     1      -3.448  -2.343  25.542  0.00  0.00    -0.153 OA
ATOM      4  O   UNL     1      -3.408  -2.499  23.900  0.00  0.00    -0.153 OA
ENDBRANCH   5   2
ENDBRANCH  12  10
BRANCH  15  17
ATOM     17  C   UNL     1      -2.146   2.837  25.125  0.00  0.00    +0.138 C 
ATOM     18  C   UNL     1      -1.598   3.282  25.551  0.00  0.00    +0.027 C 
ATOM     19  C   UNL     1      -1.984   3.950  25.844  0.00  0.00    +0.019 C 
ATOM     20  C   UNL     1      -2.771   3.917  25.598  0.00  0.00    +0.073 C 
ATOM     21  N   UNL     1      -2.871   3.230  25.154  0.00  0.00    -0.260 NA
BRANCH  21  22
ATOM     22  C   UNL     1      -3.573   2.979  24.800  0.00  0.00    +0.139 C 
BRANCH  22  23
ATOM     23  C   UNL     1      -4.299   3.190  25.128  0.00  0.00    +0.155 A 
ATOM     24  N   UNL     1      -4.689   3.909  25.023  0.00  0.00    -0.226 NA
ATOM     25  C   UNL     1      -5.394   3.882  25.450  0.00  0.00    +0.121 A 
ATOM     26  C   UNL     1      -5.440   3.146  25.820  0.00  0.00    +0.121 A 
ATOM     27  N   UNL     1      -4.763   2.718  25.621  0.00  0.00    -0.226 NA
ENDBRANCH  22  23
ENDBRANCH  21  22
ENDBRANCH  15  17
TORSDOF 5
ENDMDL
MODEL 3
REMARK VINA RESULT:      -9.8      1.850      2.964
REMARK  Name = 
REMARK  5 active torsions:
REMARK  status: ('A' for Active; 'I' for Inactive)
REMARK    1  A    between atoms: S_2  and  N_5
REMARK    2  A    between atoms: C_10  and  C_12
REMARK    3  A    between atoms: C_15  and  C_17
REMARK    4  A    between atoms: N_21  and  C_22
REMARK    5  A    between atoms: C_22  and  C_23
REMARK                            x       y       z     vdW  Elec       q    Type
REMARK                         _______ _______ _______ _____ _____    ______ ____
ROOT
ATOM     12  C   UNL     1      -1.336   2.352  25.326  0.00  0.00    +0.203 A 
ATOM     13  N   UNL     1      -0.687   2.272  25.830  0.00  0.00    -0.056 NA
ATOM     14  O   UNL     1      -0.203   1.677  25.529  0.00  0.00    -0.336 OA
ATOM     15  C   UNL     1      -0.551   1.390  24.838  0.00  0.00    +0.251 A 
ATOM     16  N   UNL     1      -1.251   1.807  24.713  0.00  0.00    -0.190 NA
ENDROOT
BRANCH  12  10
ATOM      5  N   UNL     1      -4.137   2.917  25.275  0.00  0.00    -0.081 NA
ATOM      6  C   UNL     1      -3.360   3.168  25.393  0.00  0.00    +0.171 A 
ATOM      7  N   UNL     1      -3.206   3.950  25.605  0.00  0.00    -0.226 NA
ATOM      8  C   UNL     1      -2.428   4.201  25.723  0.00  0.00    +0.101 A 
ATOM      9  C   UNL     1      -1.805   3.668  25.630  0.00  0.00    +0.024 A 
ATOM     10  C   UNL     1      -1.959   2.885  25.419  0.00  0.00    +0.044 A 
ATOM     11  C   UNL     1      -2.736   2.636  25.300  0.00  0.00    +0.041 A 
BRANCH   5   2
ATOM      1  C   UNL     1      -5.383   3.982  25.461  0.00  0.00    +0.202 C 
ATOM      2  S   UNL     1      -4.760   3.450  25.368  0.00  0.00    +0.076 S 
ATOM      3  O   UNL     1      -4.669   3.693  24.585  0.00  0.00    -0.153 OA
ATOM      4  O   UNL     1      -4.851   3.206  26.151  0.00  0.00    -0.153 OA
ENDBRANCH   5   2
ENDBRANCH  12  10
BRANCH  15  17
ATOM     17  C   UNL     1      -0.251   0.790  24.357  0.00  0.00    +0.138 C 
ATOM     18  C   UNL     1       0.252   0.892  23.712  0.00  0.00    +0.027 C 
ATOM     19  C   UNL     1       0.412   0.148  23.393  0.00  0.00    +0.019 C 
ATOM     20  C   UNL     1       0.007  -0.414  23.841  0.00  0.00    +0.073 C 
ATOM     21  N   UNL     1      -0.403  -0.017  24.437  0.00  0.00    -0.260 NA
BRANCH  21  22
ATOM     22  C   UNL     1      -0.881  -0.366  25.012  0.00  0.00    +0.139 C 
BRANCH  22  23
ATOM     23  C   UNL     1      -1.176  -1.127  24.897  0.00  0.00    +0.155 A 
ATOM     24  N   UNL     1      -0.802  -1.830  25.114  0.00  0.00    -0.226 NA
ATOM     25  C   UNL     1      -1.292  -2.457  24.896  0.00  0.00    +0.121 A 
ATOM     26  C   UNL     1      -1.969  -2.142  24.545  0.00  0.00    +0.121 A 
ATOM     27  N   UNL     1      -1.897  -1.321  24.546  0.00  0.00    -0.226 NA
ENDBRANCH  22  23
ENDBRANCH  21  22
ENDBRANCH  15  17
TORSDOF 5
ENDMDL
MODEL 4
REMARK VINA RESULT:      -9.8      1.908      4.785
REMARK  Name = 
REMARK  5 active torsions:
REMARK  status: ('A' for Active; 'I' for Inactive)
REMARK    1  A    between atoms: S_2  and  N_5
REMARK    2  A    between atoms: C_10  and  C_12
REMARK    3  A    between atoms: C_15  and  C_17
REMARK    4  A    between atoms: N_21  and  C_22
REMARK    5  A    between atoms: C_22  and  C_23
REMARK                            x       y       z     vdW  Elec       q    Type
REMARK                         _______ _______ _______ _____ _____    ______ ____
ROOT
ATOM     12  C   UNL     1      -3.932   0.465  24.823  0.00  0.00    +0.203 A 
ATOM     13  N   UNL     1      -4.388   0.593  24.147  0.00  0.00    -0.056 NA
ATOM     14  O   UNL     1      -4.698   1.356  24.189  0.00  0.00    -0.336 OA
ATOM     15  C   UNL     1      -4.434   1.700  24.891  0.00  0.00    +0.251 A 
ATOM     16  N   UNL     1      -3.961   1.150  25.283  0.00  0.00    -0.190 NA
ENDROOT
BRANCH  12  10
ATOM      5  N   UNL     1      -1.571  -1.134  24.635  0.00  0.00    -0.081 NA
ATOM      6  C   UNL     1      -2.340  -1.026  24.913  0.00  0.00    +0.171 A 
ATOM      7  N   UNL     1      -2.698  -1.608  25.375  0.00  0.00    -0.226 NA
ATOM      8  C   UNL     1      -3.467  -1.500  25.653  0.00  0.00    +0.101 A 
ATOM      9  C   UNL     1      -3.879  -0.809  25.469  0.00  0.00    +0.024 A 
ATOM     10  C   UNL     1      -3.521  -0.226  25.007  0.00  0.00    +0.044 A 
ATOM     11  C   UNL     1      -2.752  -0.335  24.729  0.00  0.00    +0.041 A 
BRANCH   5   2
ATOM      1  C   UNL     1      -0.748  -2.516  25.002  0.00  0.00    +0.202 C 
ATOM      2  S   UNL     1      -1.160  -1.825  24.819  0.00  0.00    +0.076 S 
ATOM      3  O   UNL     1      -1.508  -2.204  24.174  0.00  0.00    -0.153 OA
ATOM      4  O   UNL     1      -0.811  -1.446  25.463  0.00  0.00    -0.153 OA
ENDBRANCH   5   2
ENDBRANCH  12  10
BRANCH  15  17
ATOM     17  C   UNL     1      -4.612   2.462  25.155  0.00  0.00    +0.138 C 
ATOM     18  C   UNL     1      -5.324   2.704  25.491  0.00  0.00    +0.027 C 
ATOM     19  C   UNL     1      -5.260   3.507  25.673  0.00  0.00    +0.019 C 
ATOM     20  C   UNL     1      -4.508   3.760  25.448  0.00  0.00    +0.073 C 
ATOM     21  N   UNL     1      -4.107   3.114  25.128  0.00  0.00    -0.260 NA
BRANCH  21  22
ATOM     22  C   UNL     1      -3.336   3.119  24.833  0.00  0.00    +0.139 C 
BRANCH  22  23
ATOM     23  C   UNL     1      -2.804   3.698  25.080  0.00  0.00    +0.155 A 
ATOM     24  N   UNL     1      -2.622   4.395  24.678  0.00  0.00    -0.226 NA
ATOM     25  C   UNL     1      -2.065   4.809  25.123  0.00  0.00    +0.121 A 
ATOM     26  C   UNL     1      -1.902   4.368  25.802  0.00  0.00    +0.121 A 
ATOM     27  N   UNL     1      -2.358   3.682  25.775  0.00  0.00    -0.226 NA
ENDBRANCH  22  23
ENDBRANCH  21  22
ENDBRANCH  15  17
TORSDOF 5
ENDMDL
