REMARK  Name = 
REMARK  5 active torsions:
REMARK  status: ('A' for Active; 'I' for Inactive)
REMARK    1  A    between atoms: C_2  and  C_4
REMARK    2  A    between atoms: C_6  and  C_7
REMARK    3  A    between atoms: C_7  and  C_8
REMARK    4  A    between atoms: C_11  and  C_13
REMARK    5  A    between atoms: C_22  and  C_23
REMARK                            x       y       z     vdW  Elec       q    Type
REMARK                         _______ _______ _______ _____ _____    ______ ____
ROOT
ATOM      4  C   UNL     1      -2.143   5.941   0.000  0.00  0.00    +0.007 C 
ATOM      5  C   UNL     1      -1.429   5.529   0.000  0.00  0.00    +0.005 C 
ATOM      6  C   UNL     1      -1.429   4.704   0.000  0.00  0.00    +0.027 C 
ATOM     19  C   UNL     1      -2.143   4.291   0.000  0.00  0.00    -0.048 C 
ATOM     20  C   UNL     1      -2.143   3.466   0.000  0.00  0.00    +0.026 C 
ATOM     21  C   UNL     1      -2.858   4.704   0.000  0.00  0.00    -0.032 C 
ATOM     22  C   UNL     1      -2.858   5.529   0.000  0.00  0.00    +0.054 C 
ENDROOT
BRANCH   4   2
ATOM      1  C   UNL     1      -2.858   7.179   0.000  0.00  0.00    +0.000 C 
ATOM      2  C   UNL     1      -2.143   6.766   0.000  0.00  0.00    +0.000 C 
ATOM      3  C   UNL     1      -1.429   7.179   0.000  0.00  0.00    +0.000 C 
ENDBRANCH   4   2
BRANCH  22  23
ATOM     23  C   UNL     1      -3.572   5.941   0.000  0.00  0.00    +0.186 C 
ATOM     24  O   UNL     1      -4.287   5.529   0.000  0.00  0.00    -0.220 OA
ENDBRANCH  22  23
BRANCH   6   7
ATOM      7  C   UNL     1      -0.715   4.291   0.000  0.00  0.00    +0.091 C 
BRANCH   7   8
ATOM      8  C   UNL     1      -0.715   3.466   0.000  0.00  0.00    +0.227 A 
ATOM      9  N   UNL     1      -0.047   2.981   0.000  0.00  0.00    -0.111 NA
ATOM     10  N   UNL     1      -0.302   2.196   0.000  0.00  0.00    -0.106 NA
ATOM     11  C   UNL     1      -1.127   2.196   0.000  0.00  0.00    +0.267 A 
ATOM     12  O   UNL     1      -1.382   2.981   0.000  0.00  0.00    -0.418 OA
BRANCH  11  13
ATOM     13  C   UNL     1      -1.612   1.529   0.000  0.00  0.00    +0.136 A 
ATOM     14  C   UNL     1      -1.357   0.745   0.000  0.00  0.00    +0.123 A 
ATOM     15  N   UNL     1      -2.024   0.260   0.000  0.00  0.00    -0.222 NA
ATOM     16  C   UNL     1      -2.692   0.745   0.000  0.00  0.00    +0.179 A 
ATOM     17  N   UNL     1      -2.437   1.529   0.000  0.00  0.00    -0.303 N 
ATOM     18  C   UNL     1      -2.922   2.196   0.000  0.00  0.00    +0.132 C 
ENDBRANCH  11  13
ENDBRANCH   7   8
ENDBRANCH   6   7
TORSDOF 5
