MODEL 1
REMARK VINA RESULT:     -11.2      0.000      0.000
REMARK  Name = 
REMARK  7 active torsions:
REMARK  status: ('A' for Active; 'I' for Inactive)
REMARK    1  A    between atoms: C_2  and  N_4
REMARK    2  A    between atoms: C_5  and  C_7
REMARK    3  A    between atoms: C_7  and  C_8
REMARK    4  A    between atoms: C_10  and  C_11
REMARK    5  A    between atoms: C_11  and  N_12
REMARK    6  A    between atoms: N_12  and  C_13
REMARK    7  A    between atoms: C_13  and  C_14
REMARK                            x       y       z     vdW  Elec       q    Type
REMARK                         _______ _______ _______ _____ _____    ______ ____
ROOT
ATOM      8  C   UNL     1      -4.377   3.053  25.487  0.00  0.00    +0.157 C 
ATOM      9  O   UNL     1      -4.104   2.371  25.111  0.00  0.00    -0.351 OA
ATOM     10  C   UNL     1      -4.759   1.906  24.923  0.00  0.00    +0.165 C 
ATOM     21  C   UNL     1      -5.436   2.300  25.183  0.00  0.00    +0.213 C 
ATOM     22  O   UNL     1      -6.212   2.032  25.108  0.00  0.00    -0.218 OA
ATOM     23  C   UNL     1      -5.199   3.009  25.532  0.00  0.00    +0.212 C 
ATOM     24  O   UNL     1      -5.697   3.575  25.866  0.00  0.00    -0.218 OA
ENDROOT
BRANCH   8   7
ATOM      7  C   UNL     1      -3.908   3.671  25.769  0.00  0.00    +0.119 C 
BRANCH   7   5
ATOM      4  N   UNL     1      -2.506   3.929  25.869  0.00  0.00    -0.207 NA
ATOM      5  C   UNL     1      -3.185   3.838  25.409  0.00  0.00    +0.244 C 
ATOM      6  O   UNL     1      -3.141   3.913  24.588  0.00  0.00    -0.273 OA
BRANCH   4   2
ATOM      1  C   UNL     1      -1.619   4.862  25.247  0.00  0.00    +0.023 C 
ATOM      2  C   UNL     1      -1.783   4.095  25.508  0.00  0.00    +0.095 C 
ATOM      3  C   UNL     1      -1.224   3.497  25.408  0.00  0.00    +0.023 C 
ENDBRANCH   4   2
ENDBRANCH   7   5
ENDBRANCH   8   7
BRANCH  10  11
ATOM     11  C   UNL     1      -4.740   1.174  24.542  0.00  0.00    +0.121 C 
BRANCH  11  12
ATOM     12  N   UNL     1      -4.251   0.573  24.825  0.00  0.00    -0.211 NA
BRANCH  12  13
ATOM     13  C   UNL     1      -3.929   0.023  24.303  0.00  0.00    +0.115 C 
BRANCH  13  14
ATOM     14  C   UNL     1      -3.809  -0.756  24.546  0.00  0.00    -0.005 A 
ATOM     15  C   UNL     1      -4.052  -1.381  24.064  0.00  0.00    -0.001 A 
ATOM     16  C   UNL     1      -3.932  -2.160  24.309  0.00  0.00    +0.029 A 
ATOM     17  C   UNL     1      -3.570  -2.315  25.033  0.00  0.00    +0.140 A 
ATOM     18  F   UNL     1      -3.450  -3.094  25.276  0.00  0.00    -0.204 F 
ATOM     19  C   UNL     1      -3.327  -1.691  25.514  0.00  0.00    +0.029 A 
ATOM     20  C   UNL     1      -3.447  -0.912  25.271  0.00  0.00    -0.001 A 
ENDBRANCH  13  14
ENDBRANCH  12  13
ENDBRANCH  11  12
ENDBRANCH  10  11
TORSDOF 7
ENDMDL
MODEL 2
REMARK VINA RESULT:     -10.5      1.977      4.727
REMARK  Name = 
REMARK  7 active torsions:
REMARK  status: ('A' for Active; 'I' for Inactive)
REMARK    1  A    between atoms: C_2  and  N_4
REMARK    2  A    between atoms: C_5  and  C_7
REMARK    3  A    between atoms: C_7  and  C_8
REMARK    4  A    between atoms: C_10  and  C_11
REMARK    5  A    between atoms: C_11  and  N_12
REMARK    6  A    between atoms: N_12  and  C_13
REMARK    7  A    between atoms: C_13  and  C_14
REMARK                            x       y       z     vdW  Elec       q    Type
REMARK                         _______ _______ _______ _____ _____    ______ ____
ROOT
ATOM      8  C   UNL     1      -5.003   1.680  24.933  0.00  0.00    +0.157 C 
ATOM      9  O   UNL     1      -4.339   2.109  25.167  0.00  0.00    -0.351 OA
ATOM     10  C   UNL     1      -4.599   2.806  25.522  0.00  0.00    +0.165 C 
ATOM     21  C   UNL     1      -5.424   2.809  25.508  0.00  0.00    +0.213 C 
ATOM     22  O   UNL     1      -5.913   3.402  25.804  0.00  0.00    -0.218 OA
ATOM     23  C   UNL     1      -5.674   2.112  25.143  0.00  0.00    +0.212 C 
ATOM     24  O   UNL     1      -6.456   1.887  25.012  0.00  0.00    -0.218 OA
ENDROOT
BRANCH   8   7
ATOM      7  C   UNL     1      -4.998   0.946  24.555  0.00  0.00    +0.119 C 
BRANCH   7   5
ATOM      4  N   UNL     1      -3.966   0.019  24.211  0.00  0.00    -0.207 NA
ATOM      5  C   UNL     1      -4.451   0.371  24.779  0.00  0.00    +0.244 C 
ATOM      6  O   UNL     1      -4.387   0.148  25.571  0.00  0.00    -0.273 OA
BRANCH   4   2
ATOM      1  C   UNL     1      -2.634  -0.344  24.578  0.00  0.00    +0.023 C 
ATOM      2  C   UNL     1      -3.419  -0.556  24.435  0.00  0.00    +0.095 C 
ATOM      3  C   UNL     1      -3.656  -1.342  24.516  0.00  0.00    +0.023 C 
ENDBRANCH   4   2
ENDBRANCH   7   5
ENDBRANCH   8   7
BRANCH  10  11
ATOM     11  C   UNL     1      -4.119   3.399  25.838  0.00  0.00    +0.121 C 
BRANCH  11  12
ATOM     12  N   UNL     1      -3.357   3.514  25.542  0.00  0.00    -0.211 NA
BRANCH  12  13
ATOM     13  C   UNL     1      -2.807   3.948  25.976  0.00  0.00    +0.115 C 
BRANCH  13  14
ATOM     14  C   UNL     1      -2.135   4.249  25.607  0.00  0.00    -0.005 A 
ATOM     15  C   UNL     1      -1.484   3.760  25.470  0.00  0.00    -0.001 A 
ATOM     16  C   UNL     1      -0.812   4.063  25.100  0.00  0.00    +0.029 A 
ATOM     17  C   UNL     1      -0.789   4.853  24.867  0.00  0.00    +0.140 A 
ATOM     18  F   UNL     1      -0.115   5.155  24.497  0.00  0.00    -0.204 F 
ATOM     19  C   UNL     1      -1.438   5.343  25.003  0.00  0.00    +0.029 A 
ATOM     20  C   UNL     1      -2.111   5.041  25.374  0.00  0.00    -0.001 A 
ENDBRANCH  13  14
ENDBRANCH  12  13
ENDBRANCH  11  12
ENDBRANCH  10  11
TORSDOF 7
ENDMDL
MODEL 3
REMARK VINA RESULT:     -10.0      2.248      3.234
REMARK  Name = 
REMARK  7 active torsions:
REMARK  status: ('A' for Active; 'I' for Inactive)
REMARK    1  A    between atoms: C_2  and  N_4
REMARK    2  A    between atoms: C_5  and  C_7
REMARK    3  A    between atoms: C_7  and  C_8
REMARK    4  A    between atoms: C_10  and  C_11
REMARK    5  A    between atoms: C_11  and  N_12
REMARK    6  A    between atoms: N_12  and  C_13
REMARK    7  A    between atoms: C_13  and  C_14
REMARK                            x       y       z     vdW  Elec       q    Type
REMARK                         _______ _______ _______ _____ _____    ______ ____
ROOT
ATOM      8  C   UNL     1      -0.736   1.893  24.507  0.00  0.00    +0.157 C 
ATOM      9  O   UNL     1      -1.353   1.496  24.882  0.00  0.00    -0.351 OA
ATOM     10  C   UNL     1      -1.140   0.703  24.953  0.00  0.00    +0.165 C 
ATOM     21  C   UNL     1      -0.390   0.609  24.621  0.00  0.00    +0.213 C 
ATOM     22  O   UNL     1       0.035  -0.096  24.573  0.00  0.00    -0.218 OA
ATOM     23  C   UNL     1      -0.141   1.346  24.345  0.00  0.00    +0.212 C 
ATOM     24  O   UNL     1       0.578   1.506  23.973  0.00  0.00    -0.218 OA
ENDROOT
BRANCH   8   7
ATOM      7  C   UNL     1      -0.717   2.698  24.324  0.00  0.00    +0.119 C 
BRANCH   7   5
ATOM      4  N   UNL     1      -1.596   3.769  24.675  0.00  0.00    -0.207 NA
ATOM      5  C   UNL     1      -0.984   3.251  24.875  0.00  0.00    +0.244 C 
ATOM      6  O   UNL     1      -0.642   3.287  25.624  0.00  0.00    -0.273 OA
BRANCH   4   2
ATOM      1  C   UNL     1      -1.519   5.072  25.256  0.00  0.00    +0.023 C 
ATOM      2  C   UNL     1      -1.863   4.322  25.225  0.00  0.00    +0.095 C 
ATOM      3  C   UNL     1      -2.474   4.127  25.744  0.00  0.00    +0.023 C 
ENDBRANCH   4   2
ENDBRANCH   7   5
ENDBRANCH   8   7
BRANCH  10  11
ATOM     11  C   UNL     1      -1.596   0.106  25.296  0.00  0.00    +0.121 C 
BRANCH  11  12
ATOM     12  N   UNL     1      -2.288  -0.149  24.926  0.00  0.00    -0.211 NA
BRANCH  12  13
ATOM     13  C   UNL     1      -2.792  -0.674  25.312  0.00  0.00    +0.115 C 
BRANCH  13  14
ATOM     14  C   UNL     1      -3.257  -1.196  24.875  0.00  0.00    -0.005 A 
ATOM     15  C   UNL     1      -3.112  -2.008  24.910  0.00  0.00    -0.001 A 
ATOM     16  C   UNL     1      -3.578  -2.529  24.472  0.00  0.00    +0.029 A 
ATOM     17  C   UNL     1      -4.189  -2.241  24.000  0.00  0.00    +0.140 A 
ATOM     18  F   UNL     1      -4.654  -2.763  23.562  0.00  0.00    -0.204 F 
ATOM     19  C   UNL     1      -4.335  -1.430  23.964  0.00  0.00    +0.029 A 
ATOM     20  C   UNL     1      -3.869  -0.908  24.402  0.00  0.00    -0.001 A 
ENDBRANCH  13  14
ENDBRANCH  12  13
ENDBRANCH  11  12
ENDBRANCH  10  11
TORSDOF 7
ENDMDL
MODEL 4
REMARK VINA RESULT:      -9.9      1.556      2.944
REMARK  Name = 
REMARK  7 active torsions:
REMARK  status: ('A' for Active; 'I' for Inactive)
REMARK    1  A    between atoms: C_2  and  N_4
REMARK    2  A    between atoms: C_5  and  C_7
REMARK    3  A    between atoms: C_7  and  C_8
REMARK    4  A    between atoms: C_10  and  C_11
REMARK    5  A    between atoms: C_11  and  N_12
REMARK    6  A    between atoms: N_12  and  C_13
REMARK    7  A    between atoms: C_13  and  C_14
REMARK                            x       y       z     vdW  Elec       q    Type
REMARK                         _______ _______ _______ _____ _____    ______ ____
ROOT
ATOM      8  C   UNL     1      -2.344   2.640  24.779  0.00  0.00    +0.157 C 
ATOM      9  O   UNL     1      -2.410   1.845  24.986  0.00  0.00    -0.351 OA
ATOM     10  C   UNL     1      -1.648   1.539  25.069  0.00  0.00    +0.165 C 
ATOM     21  C   UNL     1      -1.111   2.146  24.913  0.00  0.00    +0.213 C 
ATOM     22  O   UNL     1      -0.290   2.084  24.932  0.00  0.00    -0.218 OA
ATOM     23  C   UNL     1      -1.542   2.827  24.733  0.00  0.00    +0.212 C 
ATOM     24  O   UNL     1      -1.225   3.564  24.542  0.00  0.00    -0.218 OA
ENDROOT
BRANCH   8   7
ATOM      7  C   UNL     1      -2.971   3.159  24.641  0.00  0.00    +0.119 C 
BRANCH   7   5
ATOM      4  N   UNL     1      -4.375   2.893  24.662  0.00  0.00    -0.207 NA
ATOM      5  C   UNL     1      -3.675   3.074  25.062  0.00  0.00    +0.244 C 
ATOM      6  O   UNL     1      -3.681   3.171  25.881  0.00  0.00    -0.273 OA
BRANCH   4   2
ATOM      1  C   UNL     1      -5.447   2.071  25.127  0.00  0.00    +0.023 C 
ATOM      2  C   UNL     1      -5.079   2.809  25.084  0.00  0.00    +0.095 C 
ATOM      3  C   UNL     1      -5.416   3.461  25.461  0.00  0.00    +0.023 C 
ENDBRANCH   4   2
ENDBRANCH   7   5
ENDBRANCH   8   7
BRANCH  10  11
ATOM     11  C   UNL     1      -1.456   0.763  25.272  0.00  0.00    +0.121 C 
BRANCH  11  12
ATOM     12  N   UNL     1      -1.997   0.155  25.138  0.00  0.00    -0.211 NA
BRANCH  12  13
ATOM     13  C   UNL     1      -1.865  -0.593  25.458  0.00  0.00    +0.115 C 
BRANCH  13  14
ATOM     14  C   UNL     1      -2.345  -1.227  25.239  0.00  0.00    -0.005 A 
ATOM     15  C   UNL     1      -3.107  -1.294  25.547  0.00  0.00    -0.001 A 
ATOM     16  C   UNL     1      -3.586  -1.929  25.327  0.00  0.00    +0.029 A 
ATOM     17  C   UNL     1      -3.305  -2.495  24.799  0.00  0.00    +0.140 A 
ATOM     18  F   UNL     1      -3.784  -3.130  24.578  0.00  0.00    -0.204 F 
ATOM     19  C   UNL     1      -2.543  -2.429  24.490  0.00  0.00    +0.029 A 
ATOM     20  C   UNL     1      -2.063  -1.794  24.710  0.00  0.00    -0.001 A 
ENDBRANCH  13  14
ENDBRANCH  12  13
ENDBRANCH  11  12
ENDBRANCH  10  11
TORSDOF 7
ENDMDL
MODEL 5
REMARK VINA RESULT:      -9.9      2.720      5.228
REMARK  Name = 
REMARK  7 active torsions:
REMARK  status: ('A' for Active; 'I' for Inactive)
REMARK    1  A    between atoms: C_2  and  N_4
REMARK    2  A    between atoms: C_5  and  C_7
REMARK    3  A    between atoms: C_7  and  C_8
REMARK    4  A    between atoms: C_10  and  C_11
REMARK    5  A    between atoms: C_11  and  N_12
REMARK    6  A    between atoms: N_12  and  C_13
REMARK    7  A    between atoms: C_13  and  C_14
REMARK                            x       y       z     vdW  Elec       q    Type
REMARK                         _______ _______ _______ _____ _____    ______ ____
ROOT
ATOM      8  C   UNL     1      -1.327  -0.395  24.597  0.00  0.00    +0.157 C 
ATOM      9  O   UNL     1      -1.854   0.239  24.627  0.00  0.00    -0.351 OA
ATOM     10  C   UNL     1      -1.461   0.910  24.350  0.00  0.00    +0.165 C 
ATOM     21  C   UNL     1      -0.691   0.690  24.149  0.00  0.00    +0.213 C 
ATOM     22  O   UNL     1      -0.107   1.189  23.849  0.00  0.00    -0.218 OA
ATOM     23  C   UNL     1      -0.609  -0.116  24.302  0.00  0.00    +0.212 C 
ATOM     24  O   UNL     1       0.072  -0.566  24.180  0.00  0.00    -0.218 OA
ENDROOT
BRANCH   8   7
ATOM      7  C   UNL     1      -1.491  -1.172  24.822  0.00  0.00    +0.119 C 
BRANCH   7   5
ATOM      4  N   UNL     1      -2.616  -1.913  24.346  0.00  0.00    -0.207 NA
ATOM      5  C   UNL     1      -2.272  -1.419  24.912  0.00  0.00    +0.244 C 
ATOM      6  O   UNL     1      -2.712  -1.172  25.565  0.00  0.00    -0.273 OA
BRANCH   4   2
ATOM      1  C   UNL     1      -3.575  -2.796  24.932  0.00  0.00    +0.023 C 
ATOM      2  C   UNL     1      -3.397  -2.160  24.436  0.00  0.00    +0.095 C 
ATOM      3  C   UNL     1      -4.002  -1.773  24.030  0.00  0.00    +0.023 C 
ENDBRANCH   4   2
ENDBRANCH   7   5
ENDBRANCH   8   7
BRANCH  10  11
ATOM     11  C   UNL     1      -1.781   1.668  24.286  0.00  0.00    +0.121 C 
BRANCH  11  12
ATOM     12  N   UNL     1      -2.555   1.811  24.531  0.00  0.00    -0.211 NA
BRANCH  12  13
ATOM     13  C   UNL     1      -2.921   2.527  24.346  0.00  0.00    +0.115 C 
BRANCH  13  14
ATOM     14  C   UNL     1      -3.643   2.723  24.692  0.00  0.00    -0.005 A 
ATOM     15  C   UNL     1      -4.333   2.338  24.454  0.00  0.00    -0.001 A 
ATOM     16  C   UNL     1      -5.055   2.535  24.801  0.00  0.00    +0.029 A 
ATOM     17  C   UNL     1      -5.088   3.116  25.385  0.00  0.00    +0.140 A 
ATOM     18  F   UNL     1      -5.811   3.312  25.732  0.00  0.00    -0.204 F 
ATOM     19  C   UNL     1      -4.399   3.501  25.624  0.00  0.00    +0.029 A 
ATOM     20  C   UNL     1      -3.676   3.304  25.277  0.00  0.00    -0.001 A 
ENDBRANCH  13  14
ENDBRANCH  12  13
ENDBRANCH  11  12
ENDBRANCH  10  11
TORSDOF 7
ENDMDL
