MODEL 1
REMARK VINA RESULT:     -11.2      0.000      0.000
REMARK  Name = 
REMARK  5 active torsions:
REMARK  status: ('A' for Active; 'I' for Inactive)
REMARK    1  A    between atoms: O_2  and  C_3
REMARK    2  A    between atoms: C_6  and  C_9
REMARK    3  A    between atoms: C_12  and  C_14
REMARK    4  A    between atoms: N_18  and  C_19
REMARK    5  A    between atoms: C_19  and  C_20
REMARK                            x       y       z     vdW  Elec       q    Type
REMARK                         _______ _______ _______ _____ _____    ______ ____
ROOT
ATOM      9  C   UNL     1      -4.180   0.335  24.972  0.00  0.00    +0.205 A 
ATOM     10  N   UNL     1      -4.641   0.704  25.549  0.00  0.00    -0.056 NA
ATOM     11  O   UNL     1      -4.686   1.507  25.365  0.00  0.00    -0.336 OA
ATOM     12  C   UNL     1      -4.253   1.635  24.675  0.00  0.00    +0.251 A 
ATOM     13  N   UNL     1      -3.940   0.911  24.432  0.00  0.00    -0.190 NA
ENDROOT
BRANCH   9   6
ATOM      3  C   UNL     1      -3.616  -2.073  24.879  0.00  0.00    +0.225 A 
ATOM      4  N   UNL     1      -3.429  -1.631  25.550  0.00  0.00    -0.210 NA
ATOM      5  C   UNL     1      -3.617  -0.828  25.581  0.00  0.00    +0.105 A 
ATOM      6  C   UNL     1      -3.992  -0.468  24.941  0.00  0.00    +0.058 A 
ATOM      7  C   UNL     1      -4.179  -0.909  24.270  0.00  0.00    +0.010 A 
ATOM      8  C   UNL     1      -3.992  -1.712  24.239  0.00  0.00    +0.058 A 
BRANCH   3   2
ATOM      1  C   UNL     1      -2.796  -3.133  24.384  0.00  0.00    +0.254 C 
ATOM      2  O   UNL     1      -3.428  -2.876  24.848  0.00  0.00    -0.456 OA
ENDBRANCH   3   2
ENDBRANCH   9   6
BRANCH  12  14
ATOM     14  C   UNL     1      -4.150   2.359  24.294  0.00  0.00    +0.138 C 
ATOM     15  C   UNL     1      -4.622   2.659  23.687  0.00  0.00    +0.027 C 
ATOM     16  C   UNL     1      -4.322   3.396  23.470  0.00  0.00    +0.019 C 
ATOM     17  C   UNL     1      -3.664   3.552  23.944  0.00  0.00    +0.073 C 
ATOM     18  N   UNL     1      -3.558   2.911  24.453  0.00  0.00    -0.263 NA
BRANCH  18  19
ATOM     19  C   UNL     1      -2.965   2.836  25.020  0.00  0.00    +0.099 C 
BRANCH  19  20
ATOM     20  C   UNL     1      -2.335   3.368  25.032  0.00  0.00    -0.006 A 
ATOM     21  C   UNL     1      -1.621   3.170  24.670  0.00  0.00    -0.003 A 
ATOM     22  C   UNL     1      -0.990   3.703  24.682  0.00  0.00    -0.005 A 
ATOM     23  C   UNL     1      -1.075   4.434  25.055  0.00  0.00    -0.022 A 
ATOM     24  C   UNL     1      -0.444   4.966  25.067  0.00  0.00    +0.031 C 
ATOM     25  C   UNL     1      -1.789   4.632  25.417  0.00  0.00    -0.005 A 
ATOM     26  C   UNL     1      -2.419   4.100  25.405  0.00  0.00    -0.003 A 
ENDBRANCH  19  20
ENDBRANCH  18  19
ENDBRANCH  12  14
TORSDOF 5
ENDMDL
MODEL 2
REMARK VINA RESULT:     -11.2      1.425      5.139
REMARK  Name = 
REMARK  5 active torsions:
REMARK  status: ('A' for Active; 'I' for Inactive)
REMARK    1  A    between atoms: O_2  and  C_3
REMARK    2  A    between atoms: C_6  and  C_9
REMARK    3  A    between atoms: C_12  and  C_14
REMARK    4  A    between atoms: N_18  and  C_19
REMARK    5  A    between atoms: C_19  and  C_20
REMARK                            x       y       z     vdW  Elec       q    Type
REMARK                         _______ _______ _______ _____ _____    ______ ____
ROOT
ATOM      9  C   UNL     1      -3.262   3.100  24.535  0.00  0.00    +0.205 A 
ATOM     10  N   UNL     1      -3.699   3.118  23.835  0.00  0.00    -0.056 NA
ATOM     11  O   UNL     1      -4.306   2.562  23.900  0.00  0.00    -0.336 OA
ATOM     12  C   UNL     1      -4.243   2.201  24.639  0.00  0.00    +0.251 A 
ATOM     13  N   UNL     1      -3.598   2.534  25.031  0.00  0.00    -0.190 NA
ENDROOT
BRANCH   9   6
ATOM      3  C   UNL     1      -1.288   4.501  25.052  0.00  0.00    +0.225 A 
ATOM      4  N   UNL     1      -1.198   3.807  24.617  0.00  0.00    -0.210 NA
ATOM      5  C   UNL     1      -1.856   3.340  24.444  0.00  0.00    +0.105 A 
ATOM      6  C   UNL     1      -2.604   3.567  24.707  0.00  0.00    +0.058 A 
ATOM      7  C   UNL     1      -2.694   4.262  25.143  0.00  0.00    +0.010 A 
ATOM      8  C   UNL     1      -2.037   4.729  25.316  0.00  0.00    +0.058 A 
BRANCH   3   2
ATOM      1  C   UNL     1      -0.284   5.427  24.633  0.00  0.00    +0.254 C 
ATOM      2  O   UNL     1      -0.630   4.968  25.225  0.00  0.00    -0.456 OA
ENDBRANCH   3   2
ENDBRANCH   9   6
BRANCH  12  14
ATOM     14  C   UNL     1      -4.738   1.612  24.934  0.00  0.00    +0.138 C 
ATOM     15  C   UNL     1      -5.454   1.731  25.328  0.00  0.00    +0.027 C 
ATOM     16  C   UNL     1      -5.763   0.993  25.525  0.00  0.00    +0.019 C 
ATOM     17  C   UNL     1      -5.240   0.416  25.253  0.00  0.00    +0.073 C 
ATOM     18  N   UNL     1      -4.606   0.799  24.887  0.00  0.00    -0.263 NA
BRANCH  18  19
ATOM     19  C   UNL     1      -3.955   0.432  24.537  0.00  0.00    +0.099 C 
BRANCH  19  20
ATOM     20  C   UNL     1      -3.881  -0.388  24.561  0.00  0.00    -0.006 A 
ATOM     21  C   UNL     1      -3.511  -0.751  25.203  0.00  0.00    -0.003 A 
ATOM     22  C   UNL     1      -3.436  -1.572  25.227  0.00  0.00    -0.005 A 
ATOM     23  C   UNL     1      -3.733  -2.031  24.609  0.00  0.00    -0.022 A 
ATOM     24  C   UNL     1      -3.659  -2.853  24.633  0.00  0.00    +0.031 C 
ATOM     25  C   UNL     1      -4.104  -1.669  23.967  0.00  0.00    -0.005 A 
ATOM     26  C   UNL     1      -4.178  -0.848  23.943  0.00  0.00    -0.003 A 
ENDBRANCH  19  20
ENDBRANCH  18  19
ENDBRANCH  12  14
TORSDOF 5
ENDMDL
MODEL 3
REMARK VINA RESULT:     -10.7      2.302      5.651
REMARK  Name = 
REMARK  5 active torsions:
REMARK  status: ('A' for Active; 'I' for Inactive)
REMARK    1  A    between atoms: O_2  and  C_3
REMARK    2  A    between atoms: C_6  and  C_9
REMARK    3  A    between atoms: C_12  and  C_14
REMARK    4  A    between atoms: N_18  and  C_19
REMARK    5  A    between atoms: C_19  and  C_20
REMARK                            x       y       z     vdW  Elec       q    Type
REMARK                         _______ _______ _______ _____ _____    ______ ____
ROOT
ATOM      9  C   UNL     1      -1.011   2.026  25.480  0.00  0.00    +0.205 A 
ATOM     10  N   UNL     1      -0.807   1.637  26.179  0.00  0.00    -0.056 NA
ATOM     11  O   UNL     1      -0.691   0.839  26.002  0.00  0.00    -0.336 OA
ATOM     12  C   UNL     1      -0.822   0.735  25.195  0.00  0.00    +0.251 A 
ATOM     13  N   UNL     1      -1.021   1.469  24.872  0.00  0.00    -0.190 NA
ENDROOT
BRANCH   9   6
ATOM      3  C   UNL     1      -1.508   4.439  25.250  0.00  0.00    +0.225 A 
ATOM      4  N   UNL     1      -0.773   4.145  25.018  0.00  0.00    -0.210 NA
ATOM      5  C   UNL     1      -0.607   3.340  25.095  0.00  0.00    +0.105 A 
ATOM      6  C   UNL     1      -1.177   2.830  25.403  0.00  0.00    +0.058 A 
ATOM      7  C   UNL     1      -1.912   3.124  25.636  0.00  0.00    +0.010 A 
ATOM      8  C   UNL     1      -2.078   3.928  25.559  0.00  0.00    +0.058 A 
BRANCH   3   2
ATOM      1  C   UNL     1      -1.116   5.749  24.833  0.00  0.00    +0.254 C 
ATOM      2  O   UNL     1      -1.673   5.244  25.173  0.00  0.00    -0.456 OA
ENDBRANCH   3   2
ENDBRANCH   9   6
BRANCH  12  14
ATOM     14  C   UNL     1      -0.766   0.023  24.782  0.00  0.00    +0.138 C 
ATOM     15  C   UNL     1      -0.109  -0.241  24.359  0.00  0.00    +0.027 C 
ATOM     16  C   UNL     1      -0.293  -0.977  24.035  0.00  0.00    +0.019 C 
ATOM     17  C   UNL     1      -1.065  -1.167  24.257  0.00  0.00    +0.073 C 
ATOM     18  N   UNL     1      -1.357  -0.549  24.719  0.00  0.00    -0.263 NA
BRANCH  18  19
ATOM     19  C   UNL     1      -2.108  -0.510  25.057  0.00  0.00    +0.099 C 
BRANCH  19  20
ATOM     20  C   UNL     1      -2.713  -0.994  24.776  0.00  0.00    -0.006 A 
ATOM     21  C   UNL     1      -3.239  -0.710  24.207  0.00  0.00    -0.003 A 
ATOM     22  C   UNL     1      -3.844  -1.195  23.926  0.00  0.00    -0.005 A 
ATOM     23  C   UNL     1      -3.924  -1.964  24.214  0.00  0.00    -0.022 A 
ATOM     24  C   UNL     1      -4.530  -2.449  23.932  0.00  0.00    +0.031 C 
ATOM     25  C   UNL     1      -3.399  -2.248  24.783  0.00  0.00    -0.005 A 
ATOM     26  C   UNL     1      -2.794  -1.764  25.064  0.00  0.00    -0.003 A 
ENDBRANCH  19  20
ENDBRANCH  18  19
ENDBRANCH  12  14
TORSDOF 5
ENDMDL
MODEL 4
REMARK VINA RESULT:     -10.3      1.927      2.669
REMARK  Name = 
REMARK  5 active torsions:
REMARK  status: ('A' for Active; 'I' for Inactive)
REMARK    1  A    between atoms: O_2  and  C_3
REMARK    2  A    between atoms: C_6  and  C_9
REMARK    3  A    between atoms: C_12  and  C_14
REMARK    4  A    between atoms: N_18  and  C_19
REMARK    5  A    between atoms: C_19  and  C_20
REMARK                            x       y       z     vdW  Elec       q    Type
REMARK                         _______ _______ _______ _____ _____    ______ ____
ROOT
ATOM      9  C   UNL     1      -1.652  -0.619  25.159  0.00  0.00    +0.205 A 
ATOM     10  N   UNL     1      -1.275  -0.501  25.884  0.00  0.00    -0.056 NA
ATOM     11  O   UNL     1      -0.750   0.130  25.799  0.00  0.00    -0.336 OA
ATOM     12  C   UNL     1      -0.803   0.402  25.022  0.00  0.00    +0.251 A 
ATOM     13  N   UNL     1      -1.360  -0.061  24.627  0.00  0.00    -0.190 NA
ENDROOT
BRANCH   9   6
ATOM      3  C   UNL     1      -3.357  -2.345  24.671  0.00  0.00    +0.225 A 
ATOM      4  N   UNL     1      -2.568  -2.476  24.471  0.00  0.00    -0.210 NA
ATOM      5  C   UNL     1      -2.000  -1.901  24.633  0.00  0.00    +0.105 A 
ATOM      6  C   UNL     1      -2.220  -1.194  24.996  0.00  0.00    +0.058 A 
ATOM      7  C   UNL     1      -3.010  -1.062  25.197  0.00  0.00    +0.010 A 
ATOM      8  C   UNL     1      -3.578  -1.637  25.035  0.00  0.00    +0.058 A 
BRANCH   3   2
ATOM      1  C   UNL     1      -4.342  -2.898  23.796  0.00  0.00    +0.254 C 
ATOM      2  O   UNL     1      -3.926  -2.920  24.508  0.00  0.00    -0.456 OA
ENDBRANCH   3   2
ENDBRANCH   9   6
BRANCH  12  14
ATOM     14  C   UNL     1      -0.374   1.027  24.696  0.00  0.00    +0.138 C 
ATOM     15  C   UNL     1       0.256   0.960  24.168  0.00  0.00    +0.027 C 
ATOM     16  C   UNL     1       0.520   1.720  23.987  0.00  0.00    +0.019 C 
ATOM     17  C   UNL     1       0.052   2.258  24.403  0.00  0.00    +0.073 C 
ATOM     18  N   UNL     1      -0.500   1.830  24.842  0.00  0.00    -0.263 NA
BRANCH  18  19
ATOM     19  C   UNL     1      -1.076   2.148  25.339  0.00  0.00    +0.099 C 
BRANCH  19  20
ATOM     20  C   UNL     1      -1.264   2.949  25.292  0.00  0.00    -0.006 A 
ATOM     21  C   UNL     1      -0.737   3.514  25.581  0.00  0.00    -0.003 A 
ATOM     22  C   UNL     1      -0.925   4.317  25.534  0.00  0.00    -0.005 A 
ATOM     23  C   UNL     1      -1.641   4.553  25.199  0.00  0.00    -0.022 A 
ATOM     24  C   UNL     1      -1.829   5.356  25.153  0.00  0.00    +0.031 C 
ATOM     25  C   UNL     1      -2.168   3.988  24.911  0.00  0.00    -0.005 A 
ATOM     26  C   UNL     1      -1.980   3.187  24.957  0.00  0.00    -0.003 A 
ENDBRANCH  19  20
ENDBRANCH  18  19
ENDBRANCH  12  14
TORSDOF 5
ENDMDL
MODEL 5
REMARK VINA RESULT:      -9.8      1.976      5.204
REMARK  Name = 
REMARK  5 active torsions:
REMARK  status: ('A' for Active; 'I' for Inactive)
REMARK    1  A    between atoms: O_2  and  C_3
REMARK    2  A    between atoms: C_6  and  C_9
REMARK    3  A    between atoms: C_12  and  C_14
REMARK    4  A    between atoms: N_18  and  C_19
REMARK    5  A    between atoms: C_19  and  C_20
REMARK                            x       y       z     vdW  Elec       q    Type
REMARK                         _______ _______ _______ _____ _____    ______ ____
ROOT
ATOM      9  C   UNL     1      -3.642   2.278  24.477  0.00  0.00    +0.205 A 
ATOM     10  N   UNL     1      -3.421   2.288  23.682  0.00  0.00    -0.056 NA
ATOM     11  O   UNL     1      -2.851   1.703  23.568  0.00  0.00    -0.336 OA
ATOM     12  C   UNL     1      -2.719   1.331  24.293  0.00  0.00    +0.251 A 
ATOM     13  N   UNL     1      -3.208   1.687  24.855  0.00  0.00    -0.190 NA
ENDROOT
BRANCH   9   6
ATOM      3  C   UNL     1      -5.312   3.763  25.541  0.00  0.00    +0.225 A 
ATOM      4  N   UNL     1      -4.543   4.032  25.413  0.00  0.00    -0.210 NA
ATOM      5  C   UNL     1      -3.986   3.537  25.059  0.00  0.00    +0.105 A 
ATOM      6  C   UNL     1      -4.199   2.773  24.832  0.00  0.00    +0.058 A 
ATOM      7  C   UNL     1      -4.968   2.504  24.959  0.00  0.00    +0.010 A 
ATOM      8  C   UNL     1      -5.525   2.999  25.313  0.00  0.00    +0.058 A 
BRANCH   3   2
ATOM      1  C   UNL     1      -6.105   4.952  25.516  0.00  0.00    +0.254 C 
ATOM      2  O   UNL     1      -5.869   4.258  25.895  0.00  0.00    -0.456 OA
ENDBRANCH   3   2
ENDBRANCH   9   6
BRANCH  12  14
ATOM     14  C   UNL     1      -2.192   0.712  24.433  0.00  0.00    +0.138 C 
ATOM     15  C   UNL     1      -1.370   0.752  24.367  0.00  0.00    +0.027 C 
ATOM     16  C   UNL     1      -1.063   0.010  24.556  0.00  0.00    +0.019 C 
ATOM     17  C   UNL     1      -1.696  -0.489  24.738  0.00  0.00    +0.073 C 
ATOM     18  N   UNL     1      -2.393  -0.054  24.662  0.00  0.00    -0.263 NA
BRANCH  18  19
ATOM     19  C   UNL     1      -3.157  -0.337  24.793  0.00  0.00    +0.099 C 
BRANCH  19  20
ATOM     20  C   UNL     1      -3.321  -1.139  24.699  0.00  0.00    -0.006 A 
ATOM     21  C   UNL     1      -3.157  -1.668  25.311  0.00  0.00    -0.003 A 
ATOM     22  C   UNL     1      -3.322  -2.471  25.217  0.00  0.00    -0.005 A 
ATOM     23  C   UNL     1      -3.651  -2.745  24.512  0.00  0.00    -0.022 A 
ATOM     24  C   UNL     1      -3.816  -3.549  24.418  0.00  0.00    +0.031 C 
ATOM     25  C   UNL     1      -3.815  -2.216  23.901  0.00  0.00    -0.005 A 
ATOM     26  C   UNL     1      -3.651  -1.414  23.994  0.00  0.00    -0.003 A 
ENDBRANCH  19  20
ENDBRANCH  18  19
ENDBRANCH  12  14
TORSDOF 5
ENDMDL
