MODEL 1
REMARK VINA RESULT:     -15.6      0.000      0.000
REMARK  Name = 
REMARK  4 active torsions:
REMARK  status: ('A' for Active; 'I' for Inactive)
REMARK    1  A    between atoms: C_2  and  C_3
REMARK    2  A    between atoms: C_6  and  C_7
REMARK    3  A    between atoms: C_7  and  N_8
REMARK    4  A    between atoms: C_17  and  C_18
REMARK                            x       y       z     vdW  Elec       q    Type
REMARK                         _______ _______ _______ _____ _____    ______ ____
ROOT
ATOM      8  N   UNL     1      -3.334   2.807  24.921  0.00  0.00    -0.266 NA
ATOM      9  C   UNL     1      -3.435   3.632  25.003  0.00  0.00    +0.074 C 
ATOM     10  C   UNL     1      -4.402   3.662  25.204  0.00  0.00    +0.039 C 
ATOM     11  C   UNL     1      -5.174   3.854  25.378  0.00  0.00    +0.011 C 
ATOM     12  C   UNL     1      -4.798   3.273  25.257  0.00  0.00    +0.054 C 
ATOM     13  C   UNL     1      -3.863   3.262  25.064  0.00  0.00    +0.078 C 
ATOM     14  C   UNL     1      -4.880   2.359  25.207  0.00  0.00    +0.041 A 
ATOM     15  C   UNL     1      -5.445   1.762  25.279  0.00  0.00    +0.013 A 
ATOM     16  C   UNL     1      -5.225   0.974  25.175  0.00  0.00    +0.006 A 
ATOM     17  C   UNL     1      -4.442   0.782  25.000  0.00  0.00    +0.062 A 
ATOM     27  C   UNL     1      -3.878   1.380  24.928  0.00  0.00    +0.261 A 
ATOM     28  O   UNL     1      -3.095   1.189  24.752  0.00  0.00    -0.267 OA
ATOM     29  N   UNL     1      -4.097   2.168  25.031  0.00  0.00    -0.299 N 
ATOM     30  C   UNL     1      -4.478   2.706  25.149  0.00  0.00    +0.110 C 
ENDROOT
BRANCH  17  18
ATOM     18  C   UNL     1      -4.224  -0.006  24.896  0.00  0.00    +0.034 A 
ATOM     19  C   UNL     1      -3.867  -0.489  25.462  0.00  0.00    +0.007 A 
ATOM     20  C   UNL     1      -3.747  -1.232  25.124  0.00  0.00    +0.006 A 
ATOM     21  C   UNL     1      -4.030  -1.208  24.348  0.00  0.00    +0.029 A 
ATOM     22  S   UNL     1      -4.324  -0.451  24.208  0.00  0.00    -0.087 S 
ATOM     23  C   UNL     1      -3.982  -1.880  23.871  0.00  0.00    +0.006 A 
ATOM     24  C   UNL     1      -3.652  -2.574  24.168  0.00  0.00    +0.001 A 
ATOM     25  C   UNL     1      -3.370  -2.598  24.943  0.00  0.00    +0.000 A 
ATOM     26  C   UNL     1      -3.417  -1.927  25.420  0.00  0.00    +0.001 A 
ENDBRANCH  17  18
BRANCH   8   7
ATOM      7  C   UNL     1      -2.951   2.088  24.789  0.00  0.00    +0.138 C 
BRANCH   7   6
ATOM      3  C   UNL     1      -0.820   2.041  24.887  0.00  0.00    +0.156 A 
ATOM      4  C   UNL     1      -0.941   2.049  24.071  0.00  0.00    +0.038 A 
ATOM      5  C   UNL     1      -1.754   2.067  23.935  0.00  0.00    +0.037 A 
ATOM      6  C   UNL     1      -2.136   2.071  24.667  0.00  0.00    +0.139 A 
ATOM     31  O   UNL     1      -1.558   2.054  25.256  0.00  0.00    -0.458 OA
BRANCH   3   2
ATOM      1  O   UNL     1       0.606   1.976  24.826  0.00  0.00    -0.212 OA
ATOM      2  C   UNL     1      -0.087   2.022  25.268  0.00  0.00    +0.246 C 
ENDBRANCH   3   2
ENDBRANCH   7   6
ENDBRANCH   8   7
TORSDOF 4
ENDMDL
MODEL 2
REMARK VINA RESULT:     -14.3      1.677      3.997
REMARK  Name = 
REMARK  4 active torsions:
REMARK  status: ('A' for Active; 'I' for Inactive)
REMARK    1  A    between atoms: C_2  and  C_3
REMARK    2  A    between atoms: C_6  and  C_7
REMARK    3  A    between atoms: C_7  and  N_8
REMARK    4  A    between atoms: C_17  and  C_18
REMARK                            x       y       z     vdW  Elec       q    Type
REMARK                         _______ _______ _______ _____ _____    ______ ____
ROOT
ATOM      8  N   UNL     1      -2.241  -1.334  24.544  0.00  0.00    -0.266 NA
ATOM      9  C   UNL     1      -2.071  -2.152  24.539  0.00  0.00    +0.074 C 
ATOM     10  C   UNL     1      -2.989  -2.511  24.465  0.00  0.00    +0.039 C 
ATOM     11  C   UNL     1      -3.667  -2.959  24.407  0.00  0.00    +0.011 C 
ATOM     12  C   UNL     1      -3.495  -2.279  24.434  0.00  0.00    +0.054 C 
ATOM     13  C   UNL     1      -2.602  -1.947  24.505  0.00  0.00    +0.078 C 
ATOM     14  C   UNL     1      -3.869  -1.439  24.426  0.00  0.00    +0.041 A 
ATOM     15  C   UNL     1      -4.603  -1.066  24.381  0.00  0.00    +0.013 A 
ATOM     16  C   UNL     1      -4.647  -0.242  24.396  0.00  0.00    +0.006 A 
ATOM     17  C   UNL     1      -3.958   0.208  24.455  0.00  0.00    +0.062 A 
ATOM     27  C   UNL     1      -3.224  -0.166  24.499  0.00  0.00    +0.261 A 
ATOM     28  O   UNL     1      -2.535   0.284  24.558  0.00  0.00    -0.267 OA
ATOM     29  N   UNL     1      -3.180  -0.990  24.485  0.00  0.00    -0.299 N 
ATOM     30  C   UNL     1      -3.370  -1.631  24.457  0.00  0.00    +0.110 C 
ENDROOT
BRANCH  17  18
ATOM     18  C   UNL     1      -4.004   1.031  24.469  0.00  0.00    +0.034 A 
ATOM     19  C   UNL     1      -3.832   1.538  23.842  0.00  0.00    +0.007 A 
ATOM     20  C   UNL     1      -3.951   2.312  24.099  0.00  0.00    +0.006 A 
ATOM     21  C   UNL     1      -4.197   2.284  24.887  0.00  0.00    +0.029 A 
ATOM     22  S   UNL     1      -4.229   1.493  25.115  0.00  0.00    -0.087 S 
ATOM     23  C   UNL     1      -4.360   2.984  25.293  0.00  0.00    +0.006 A 
ATOM     24  C   UNL     1      -4.277   3.711  24.913  0.00  0.00    +0.001 A 
ATOM     25  C   UNL     1      -4.031   3.739  24.126  0.00  0.00    +0.000 A 
ATOM     26  C   UNL     1      -3.868   3.040  23.720  0.00  0.00    +0.001 A 
ENDBRANCH  17  18
BRANCH   8   7
ATOM      7  C   UNL     1      -2.107  -0.520  24.572  0.00  0.00    +0.138 C 
BRANCH   7   6
ATOM      3  C   UNL     1      -0.154   0.184  24.077  0.00  0.00    +0.156 A 
ATOM      4  C   UNL     1      -0.146   0.258  24.898  0.00  0.00    +0.038 A 
ATOM      5  C   UNL     1      -0.876   0.003  25.184  0.00  0.00    +0.037 A 
ATOM      6  C   UNL     1      -1.336  -0.229  24.538  0.00  0.00    +0.139 A 
ATOM     31  O   UNL     1      -0.889  -0.117  23.854  0.00  0.00    -0.458 OA
BRANCH   3   2
ATOM      1  O   UNL     1       0.782  -0.195  23.066  0.00  0.00    -0.212 OA
ATOM      2  C   UNL     1       0.466   0.377  23.567  0.00  0.00    +0.246 C 
ENDBRANCH   3   2
ENDBRANCH   7   6
ENDBRANCH   8   7
TORSDOF 4
ENDMDL
MODEL 3
REMARK VINA RESULT:     -14.1      1.722      4.487
REMARK  Name = 
REMARK  4 active torsions:
REMARK  status: ('A' for Active; 'I' for Inactive)
REMARK    1  A    between atoms: C_2  and  C_3
REMARK    2  A    between atoms: C_6  and  C_7
REMARK    3  A    between atoms: C_7  and  N_8
REMARK    4  A    between atoms: C_17  and  C_18
REMARK                            x       y       z     vdW  Elec       q    Type
REMARK                         _______ _______ _______ _____ _____    ______ ____
ROOT
ATOM      8  N   UNL     1      -3.978  -0.652  24.460  0.00  0.00    -0.266 NA
ATOM      9  C   UNL     1      -4.537  -1.252  24.297  0.00  0.00    +0.074 C 
ATOM     10  C   UNL     1      -3.937  -2.037  24.284  0.00  0.00    +0.039 C 
ATOM     11  C   UNL     1      -3.586  -2.770  24.239  0.00  0.00    +0.011 C 
ATOM     12  C   UNL     1      -3.389  -2.107  24.356  0.00  0.00    +0.054 C 
ATOM     13  C   UNL     1      -3.981  -1.358  24.367  0.00  0.00    +0.078 C 
ATOM     14  C   UNL     1      -2.646  -1.597  24.535  0.00  0.00    +0.041 A 
ATOM     15  C   UNL     1      -1.832  -1.668  24.647  0.00  0.00    +0.013 A 
ATOM     16  C   UNL     1      -1.377  -0.997  24.804  0.00  0.00    +0.006 A 
ATOM     17  C   UNL     1      -1.736  -0.256  24.848  0.00  0.00    +0.062 A 
ATOM     27  C   UNL     1      -2.550  -0.185  24.735  0.00  0.00    +0.261 A 
ATOM     28  O   UNL     1      -2.910   0.557  24.779  0.00  0.00    -0.267 OA
ATOM     29  N   UNL     1      -3.005  -0.855  24.579  0.00  0.00    -0.299 N 
ATOM     30  C   UNL     1      -3.167  -1.495  24.470  0.00  0.00    +0.110 C 
ENDROOT
BRANCH  17  18
ATOM     18  C   UNL     1      -1.281   0.414  25.004  0.00  0.00    +0.034 A 
ATOM     19  C   UNL     1      -1.186   0.775  25.740  0.00  0.00    +0.007 A 
ATOM     20  C   UNL     1      -0.687   1.424  25.642  0.00  0.00    +0.006 A 
ATOM     21  C   UNL     1      -0.473   1.465  24.845  0.00  0.00    +0.029 A 
ATOM     22  S   UNL     1      -0.841   0.840  24.452  0.00  0.00    -0.087 S 
ATOM     23  C   UNL     1       0.028   2.066  24.583  0.00  0.00    +0.006 A 
ATOM     24  C   UNL     1       0.316   2.625  25.116  0.00  0.00    +0.001 A 
ATOM     25  C   UNL     1       0.103   2.585  25.912  0.00  0.00    +0.000 A 
ATOM     26  C   UNL     1      -0.398   1.985  26.174  0.00  0.00    +0.001 A 
ENDBRANCH  17  18
BRANCH   8   7
ATOM      7  C   UNL     1      -3.681   0.104  24.604  0.00  0.00    +0.138 C 
BRANCH   7   6
ATOM      3  C   UNL     1      -5.109   1.592  25.156  0.00  0.00    +0.156 A 
ATOM      4  C   UNL     1      -4.875   1.864  24.413  0.00  0.00    +0.038 A 
ATOM      5  C   UNL     1      -4.312   1.340  24.115  0.00  0.00    +0.037 A 
ATOM      6  C   UNL     1      -4.197   0.743  24.676  0.00  0.00    +0.139 A 
ATOM     31  O   UNL     1      -4.690   0.900  25.319  0.00  0.00    -0.458 OA
BRANCH   3   2
ATOM      1  O   UNL     1      -5.496   2.677  26.002  0.00  0.00    -0.212 OA
ATOM      2  C   UNL     1      -5.664   1.951  25.650  0.00  0.00    +0.246 C 
ENDBRANCH   3   2
ENDBRANCH   7   6
ENDBRANCH   8   7
TORSDOF 4
ENDMDL
MODEL 4
REMARK VINA RESULT:     -13.9      1.355      3.050
REMARK  Name = 
REMARK  4 active torsions:
REMARK  status: ('A' for Active; 'I' for Inactive)
REMARK    1  A    between atoms: C_2  and  C_3
REMARK    2  A    between atoms: C_6  and  C_7
REMARK    3  A    between atoms: C_7  and  N_8
REMARK    4  A    between atoms: C_17  and  C_18
REMARK                            x       y       z     vdW  Elec       q    Type
REMARK                         _______ _______ _______ _____ _____    ______ ____
ROOT
ATOM      8  N   UNL     1      -2.293   2.921  25.144  0.00  0.00    -0.266 NA
ATOM      9  C   UNL     1      -1.980   3.692  25.211  0.00  0.00    +0.074 C 
ATOM     10  C   UNL     1      -1.030   3.473  25.366  0.00  0.00    +0.039 C 
ATOM     11  C   UNL     1      -0.226   3.461  25.500  0.00  0.00    +0.011 C 
ATOM     12  C   UNL     1      -0.743   2.996  25.405  0.00  0.00    +0.054 C 
ATOM     13  C   UNL     1      -1.658   3.224  25.256  0.00  0.00    +0.078 C 
ATOM     14  C   UNL     1      -0.900   2.092  25.362  0.00  0.00    +0.041 A 
ATOM     15  C   UNL     1      -0.505   1.370  25.414  0.00  0.00    +0.013 A 
ATOM     16  C   UNL     1      -0.923   0.664  25.331  0.00  0.00    +0.006 A 
ATOM     17  C   UNL     1      -1.737   0.680  25.195  0.00  0.00    +0.062 A 
ATOM     27  C   UNL     1      -2.132   1.402  25.142  0.00  0.00    +0.261 A 
ATOM     28  O   UNL     1      -2.946   1.417  25.006  0.00  0.00    -0.267 OA
ATOM     29  N   UNL     1      -1.714   2.108  25.226  0.00  0.00    -0.299 N 
ATOM     30  C   UNL     1      -1.203   2.530  25.319  0.00  0.00    +0.110 C 
ENDROOT
BRANCH  17  18
ATOM     18  C   UNL     1      -2.154  -0.027  25.112  0.00  0.00    +0.034 A 
ATOM     19  C   UNL     1      -2.548  -0.432  25.713  0.00  0.00    +0.007 A 
ATOM     20  C   UNL     1      -2.888  -1.108  25.385  0.00  0.00    +0.006 A 
ATOM     21  C   UNL     1      -2.704  -1.120  24.580  0.00  0.00    +0.029 A 
ATOM     22  S   UNL     1      -2.251  -0.453  24.412  0.00  0.00    -0.087 S 
ATOM     23  C   UNL     1      -2.975  -1.739  24.105  0.00  0.00    +0.006 A 
ATOM     24  C   UNL     1      -3.427  -2.344  24.435  0.00  0.00    +0.001 A 
ATOM     25  C   UNL     1      -3.611  -2.332  25.239  0.00  0.00    +0.000 A 
ATOM     26  C   UNL     1      -3.341  -1.714  25.713  0.00  0.00    +0.001 A 
ENDBRANCH  17  18
BRANCH   8   7
ATOM      7  C   UNL     1      -2.853   2.323  25.039  0.00  0.00    +0.138 C 
BRANCH   7   6
ATOM      3  C   UNL     1      -4.917   2.829  25.237  0.00  0.00    +0.156 A 
ATOM      4  C   UNL     1      -4.839   2.795  24.417  0.00  0.00    +0.038 A 
ATOM      5  C   UNL     1      -4.057   2.602  24.242  0.00  0.00    +0.037 A 
ATOM      6  C   UNL     1      -3.650   2.516  24.956  0.00  0.00    +0.139 A 
ATOM     31  O   UNL     1      -4.182   2.656  25.571  0.00  0.00    -0.458 OA
BRANCH   3   2
ATOM      1  O   UNL     1      -5.853   3.787  25.733  0.00  0.00    -0.212 OA
ATOM      2  C   UNL     1      -5.609   3.004  25.652  0.00  0.00    +0.246 C 
ENDBRANCH   3   2
ENDBRANCH   7   6
ENDBRANCH   8   7
TORSDOF 4
ENDMDL
MODEL 5
REMARK VINA RESULT:     -13.5      1.668      2.152
REMARK  Name = 
REMARK  4 active torsions:
REMARK  status: ('A' for Active; 'I' for Inactive)
REMARK    1  A    between atoms: C_2  and  C_3
REMARK    2  A    between atoms: C_6  and  C_7
REMARK    3  A    between atoms: C_7  and  N_8
REMARK    4  A    between atoms: C_17  and  C_18
REMARK                            x       y       z     vdW  Elec       q    Type
REMARK                         _______ _______ _______ _____ _____    ______ ____
ROOT
ATOM      8  N   UNL     1      -4.132   2.741  25.179  0.00  0.00    -0.266 NA
ATOM      9  C   UNL     1      -4.806   3.232  25.221  0.00  0.00    +0.074 C 
ATOM     10  C   UNL     1      -5.512   2.558  25.066  0.00  0.00    +0.039 C 
ATOM     11  C   UNL     1      -6.199   2.135  24.955  0.00  0.00    +0.011 C 
ATOM     12  C   UNL     1      -5.509   2.008  24.975  0.00  0.00    +0.054 C 
ATOM     13  C   UNL     1      -4.839   2.671  25.126  0.00  0.00    +0.078 C 
ATOM     14  C   UNL     1      -4.900   1.325  24.898  0.00  0.00    +0.041 A 
ATOM     15  C   UNL     1      -4.863   0.512  24.765  0.00  0.00    +0.013 A 
ATOM     16  C   UNL     1      -4.132   0.130  24.745  0.00  0.00    +0.006 A 
ATOM     17  C   UNL     1      -3.437   0.562  24.858  0.00  0.00    +0.062 A 
ATOM     27  C   UNL     1      -3.474   1.375  24.991  0.00  0.00    +0.261 A 
ATOM     28  O   UNL     1      -2.780   1.806  25.105  0.00  0.00    -0.267 OA
ATOM     29  N   UNL     1      -4.206   1.756  25.011  0.00  0.00    -0.299 N 
ATOM     30  C   UNL     1      -4.868   1.851  24.987  0.00  0.00    +0.110 C 
ENDROOT
BRANCH  17  18
ATOM     18  C   UNL     1      -2.707   0.179  24.838  0.00  0.00    +0.034 A 
ATOM     19  C   UNL     1      -2.159   0.212  24.223  0.00  0.00    +0.007 A 
ATOM     20  C   UNL     1      -1.509  -0.250  24.435  0.00  0.00    +0.006 A 
ATOM     21  C   UNL     1      -1.656  -0.569  25.183  0.00  0.00    +0.029 A 
ATOM     22  S   UNL     1      -2.396  -0.303  25.431  0.00  0.00    -0.087 S 
ATOM     23  C   UNL     1      -1.096  -1.059  25.539  0.00  0.00    +0.006 A 
ATOM     24  C   UNL     1      -0.391  -1.231  25.149  0.00  0.00    +0.001 A 
ATOM     25  C   UNL     1      -0.244  -0.913  24.402  0.00  0.00    +0.000 A 
ATOM     26  C   UNL     1      -0.803  -0.423  24.046  0.00  0.00    +0.001 A 
ENDBRANCH  17  18
BRANCH   8   7
ATOM      7  C   UNL     1      -3.336   2.524  25.191  0.00  0.00    +0.138 C 
BRANCH   7   6
ATOM      3  C   UNL     1      -1.829   4.034  25.113  0.00  0.00    +0.156 A 
ATOM      4  C   UNL     1      -1.892   3.914  25.926  0.00  0.00    +0.038 A 
ATOM      5  C   UNL     1      -2.463   3.333  26.055  0.00  0.00    +0.037 A 
ATOM      6  C   UNL     1      -2.755   3.095  25.320  0.00  0.00    +0.139 A 
ATOM     31  O   UNL     1      -2.362   3.528  24.738  0.00  0.00    -0.458 OA
BRANCH   3   2
ATOM      1  O   UNL     1      -1.164   5.298  25.086  0.00  0.00    -0.212 OA
ATOM      2  C   UNL     1      -1.321   4.567  24.739  0.00  0.00    +0.246 C 
ENDBRANCH   3   2
ENDBRANCH   7   6
ENDBRANCH   8   7
TORSDOF 4
ENDMDL
MODEL 6
REMARK VINA RESULT:     -13.5      1.216      3.577
REMARK  Name = 
REMARK  4 active torsions:
REMARK  status: ('A' for Active; 'I' for Inactive)
REMARK    1  A    between atoms: C_2  and  C_3
REMARK    2  A    between atoms: C_6  and  C_7
REMARK    3  A    between atoms: C_7  and  N_8
REMARK    4  A    between atoms: C_17  and  C_18
REMARK                            x       y       z     vdW  Elec       q    Type
REMARK                         _______ _______ _______ _____ _____    ______ ____
ROOT
ATOM      8  N   UNL     1      -4.881   1.252  25.043  0.00  0.00    -0.266 NA
ATOM      9  C   UNL     1      -5.712   1.242  25.127  0.00  0.00    +0.074 C 
ATOM     10  C   UNL     1      -5.872   2.198  25.316  0.00  0.00    +0.039 C 
ATOM     11  C   UNL     1      -6.166   2.940  25.480  0.00  0.00    +0.011 C 
ATOM     12  C   UNL     1      -5.541   2.645  25.362  0.00  0.00    +0.054 C 
ATOM     13  C   UNL     1      -5.403   1.717  25.181  0.00  0.00    +0.078 C 
ATOM     14  C   UNL     1      -4.646   2.849  25.307  0.00  0.00    +0.041 A 
ATOM     15  C   UNL     1      -4.131   3.490  25.369  0.00  0.00    +0.013 A 
ATOM     16  C   UNL     1      -3.320   3.378  25.265  0.00  0.00    +0.006 A 
ATOM     17  C   UNL     1      -3.025   2.626  25.099  0.00  0.00    +0.062 A 
ATOM     27  C   UNL     1      -3.540   1.985  25.037  0.00  0.00    +0.261 A 
ATOM     28  O   UNL     1      -3.245   1.232  24.871  0.00  0.00    -0.267 OA
ATOM     29  N   UNL     1      -4.351   2.097  25.141  0.00  0.00    -0.299 N 
ATOM     30  C   UNL     1      -4.935   2.402  25.256  0.00  0.00    +0.110 C 
ENDROOT
BRANCH  17  18
ATOM     18  C   UNL     1      -2.214   2.515  24.995  0.00  0.00    +0.034 A 
ATOM     19  C   UNL     1      -1.672   2.315  25.584  0.00  0.00    +0.007 A 
ATOM     20  C   UNL     1      -0.926   2.261  25.237  0.00  0.00    +0.006 A 
ATOM     21  C   UNL     1      -1.007   2.428  24.432  0.00  0.00    +0.029 A 
ATOM     22  S   UNL     1      -1.802   2.585  24.284  0.00  0.00    -0.087 S 
ATOM     23  C   UNL     1      -0.344   2.415  23.940  0.00  0.00    +0.006 A 
ATOM     24  C   UNL     1       0.397   2.236  24.252  0.00  0.00    +0.001 A 
ATOM     25  C   UNL     1       0.478   2.069  25.055  0.00  0.00    +0.000 A 
ATOM     26  C   UNL     1      -0.183   2.082  25.548  0.00  0.00    +0.001 A 
ENDBRANCH  17  18
BRANCH   8   7
ATOM      7  C   UNL     1      -4.117   0.969  24.913  0.00  0.00    +0.138 C 
BRANCH   7   6
ATOM      3  C   UNL     1      -3.735  -1.128  25.029  0.00  0.00    +0.156 A 
ATOM      4  C   UNL     1      -3.855  -1.033  24.219  0.00  0.00    +0.038 A 
ATOM      5  C   UNL     1      -4.013  -0.236  24.076  0.00  0.00    +0.037 A 
ATOM      6  C   UNL     1      -3.990   0.162  24.800  0.00  0.00    +0.139 A 
ATOM     31  O   UNL     1      -3.818  -0.390  25.388  0.00  0.00    -0.458 OA
BRANCH   3   2
ATOM      1  O   UNL     1      -3.566  -2.546  24.992  0.00  0.00    -0.212 OA
ATOM      2  C   UNL     1      -3.562  -1.838  25.413  0.00  0.00    +0.246 C 
ENDBRANCH   3   2
ENDBRANCH   7   6
ENDBRANCH   8   7
TORSDOF 4
ENDMDL
