MODEL 1
REMARK VINA RESULT:     -10.8      0.000      0.000
REMARK  Name = 
REMARK  3 active torsions:
REMARK  status: ('A' for Active; 'I' for Inactive)
REMARK    1  A    between atoms: C_1  and  N_2
REMARK    2  A    between atoms: C_1  and  C_16
REMARK    3  A    between atoms: C_5  and  C_7
REMARK                            x       y       z     vdW  Elec       q    Type
REMARK                         _______ _______ _______ _____ _____    ______ ____
ROOT
ATOM      2  N   UNL     1      -4.258   2.236  24.647  0.00  0.00    -0.266 NA
ATOM      3  C   UNL     1      -4.999   2.063  24.968  0.00  0.00    +0.073 C 
ATOM      4  C   UNL     1      -5.063   1.243  25.034  0.00  0.00    +0.026 C 
ATOM      5  C   UNL     1      -4.361   0.909  24.754  0.00  0.00    +0.076 C 
ATOM      6  C   UNL     1      -3.865   1.522  24.515  0.00  0.00    +0.080 C 
ENDROOT
BRANCH   5   7
ATOM      7  C   UNL     1      -4.188   0.103  24.720  0.00  0.00    +0.140 A 
ATOM      8  N   UNL     1      -4.393  -0.411  24.109  0.00  0.00    -0.229 NA
ATOM      9  C   UNL     1      -4.111  -1.162  24.302  0.00  0.00    +0.100 A 
ATOM     10  C   UNL     1      -3.732  -1.112  25.033  0.00  0.00    +0.100 A 
ATOM     11  N   UNL     1      -3.779  -0.330  25.291  0.00  0.00    -0.229 NA
ATOM     12  C   UNL     1      -3.392  -1.785  25.368  0.00  0.00    +0.021 A 
ATOM     13  C   UNL     1      -3.432  -2.507  24.973  0.00  0.00    +0.002 A 
ATOM     14  C   UNL     1      -3.811  -2.558  24.242  0.00  0.00    +0.002 A 
ATOM     15  C   UNL     1      -4.151  -1.885  23.906  0.00  0.00    +0.021 A 
ENDBRANCH   5   7
BRANCH   2   1
ATOM      1  C   UNL     1      -3.963   2.989  24.487  0.00  0.00    +0.139 C 
BRANCH   1  16
ATOM     16  C   UNL     1      -3.473   3.365  25.034  0.00  0.00    +0.155 A 
ATOM     17  N   UNL     1      -3.721   3.794  25.694  0.00  0.00    -0.226 NA
ATOM     18  C   UNL     1      -3.050   4.072  26.084  0.00  0.00    +0.121 A 
ATOM     19  C   UNL     1      -2.387   3.817  25.665  0.00  0.00    +0.121 A 
ATOM     20  N   UNL     1      -2.648   3.380  25.016  0.00  0.00    -0.226 NA
ENDBRANCH   1  16
ENDBRANCH   2   1
TORSDOF 3
ENDMDL
MODEL 2
REMARK VINA RESULT:      -9.5      1.290      4.423
REMARK  Name = 
REMARK  3 active torsions:
REMARK  status: ('A' for Active; 'I' for Inactive)
REMARK    1  A    between atoms: C_1  and  N_2
REMARK    2  A    between atoms: C_1  and  C_16
REMARK    3  A    between atoms: C_5  and  C_7
REMARK                            x       y       z     vdW  Elec       q    Type
REMARK                         _______ _______ _______ _____ _____    ______ ____
ROOT
ATOM      2  N   UNL     1      -3.719  -1.131  24.926  0.00  0.00    -0.266 NA
ATOM      3  C   UNL     1      -4.162  -1.124  24.230  0.00  0.00    +0.073 C 
ATOM      4  C   UNL     1      -4.487  -0.371  24.142  0.00  0.00    +0.026 C 
ATOM      5  C   UNL     1      -4.243   0.089  24.783  0.00  0.00    +0.076 C 
ATOM      6  C   UNL     1      -3.769  -0.381  25.267  0.00  0.00    +0.080 C 
ENDROOT
BRANCH   5   7
ATOM      7  C   UNL     1      -4.440   0.879  24.916  0.00  0.00    +0.140 A 
ATOM      8  N   UNL     1      -5.115   1.152  25.303  0.00  0.00    -0.229 NA
ATOM      9  C   UNL     1      -5.089   1.976  25.311  0.00  0.00    +0.100 A 
ATOM     10  C   UNL     1      -4.397   2.213  24.929  0.00  0.00    +0.100 A 
ATOM     11  N   UNL     1      -3.996   1.535  24.684  0.00  0.00    -0.229 NA
ATOM     12  C   UNL     1      -4.222   3.015  24.853  0.00  0.00    +0.021 A 
ATOM     13  C   UNL     1      -4.738   3.581  25.159  0.00  0.00    +0.002 A 
ATOM     14  C   UNL     1      -5.430   3.344  25.541  0.00  0.00    +0.002 A 
ATOM     15  C   UNL     1      -5.606   2.542  25.618  0.00  0.00    +0.021 A 
ENDBRANCH   5   7
BRANCH   2   1
ATOM      1  C   UNL     1      -3.299  -1.773  25.227  0.00  0.00    +0.139 C 
BRANCH   1  16
ATOM     16  C   UNL     1      -2.525  -1.914  24.978  0.00  0.00    +0.155 A 
ATOM     17  N   UNL     1      -1.846  -1.542  25.264  0.00  0.00    -0.226 NA
ATOM     18  C   UNL     1      -1.196  -1.850  24.861  0.00  0.00    +0.121 A 
ATOM     19  C   UNL     1      -1.473  -2.413  24.326  0.00  0.00    +0.121 A 
ATOM     20  N   UNL     1      -2.293  -2.453  24.398  0.00  0.00    -0.226 NA
ENDBRANCH   1  16
ENDBRANCH   2   1
TORSDOF 3
ENDMDL
MODEL 3
REMARK VINA RESULT:      -9.3      1.059      4.732
REMARK  Name = 
REMARK  3 active torsions:
REMARK  status: ('A' for Active; 'I' for Inactive)
REMARK    1  A    between atoms: C_1  and  N_2
REMARK    2  A    between atoms: C_1  and  C_16
REMARK    3  A    between atoms: C_5  and  C_7
REMARK                            x       y       z     vdW  Elec       q    Type
REMARK                         _______ _______ _______ _____ _____    ______ ____
ROOT
ATOM      2  N   UNL     1      -3.812   0.706  24.416  0.00  0.00    -0.266 NA
ATOM      3  C   UNL     1      -3.551   0.772  23.636  0.00  0.00    +0.073 C 
ATOM      4  C   UNL     1      -3.070   1.440  23.584  0.00  0.00    +0.026 C 
ATOM      5  C   UNL     1      -3.033   1.788  24.332  0.00  0.00    +0.076 C 
ATOM      6  C   UNL     1      -3.492   1.334  24.845  0.00  0.00    +0.080 C 
ENDROOT
BRANCH   5   7
ATOM      7  C   UNL     1      -2.612   2.469  24.530  0.00  0.00    +0.140 A 
ATOM      8  N   UNL     1      -1.793   2.559  24.499  0.00  0.00    -0.229 NA
ATOM      9  C   UNL     1      -1.611   3.324  24.744  0.00  0.00    +0.100 A 
ATOM     10  C   UNL     1      -2.318   3.708  24.927  0.00  0.00    +0.100 A 
ATOM     11  N   UNL     1      -2.937   3.180  24.795  0.00  0.00    -0.229 NA
ATOM     12  C   UNL     1      -2.306   4.490  25.190  0.00  0.00    +0.021 A 
ATOM     13  C   UNL     1      -1.588   4.888  25.271  0.00  0.00    +0.002 A 
ATOM     14  C   UNL     1      -0.882   4.504  25.088  0.00  0.00    +0.002 A 
ATOM     15  C   UNL     1      -0.892   3.723  24.824  0.00  0.00    +0.021 A 
ENDBRANCH   5   7
BRANCH   2   1
ATOM      1  C   UNL     1      -4.307   0.117  24.714  0.00  0.00    +0.139 C 
BRANCH   1  16
ATOM     16  C   UNL     1      -4.004  -0.633  24.874  0.00  0.00    +0.155 A 
ATOM     17  N   UNL     1      -3.995  -1.275  24.355  0.00  0.00    -0.226 NA
ATOM     18  C   UNL     1      -3.642  -1.912  24.743  0.00  0.00    +0.121 A 
ATOM     19  C   UNL     1      -3.433  -1.664  25.501  0.00  0.00    +0.121 A 
ATOM     20  N   UNL     1      -3.656  -0.875  25.582  0.00  0.00    -0.226 NA
ENDBRANCH   1  16
ENDBRANCH   2   1
TORSDOF 3
ENDMDL
MODEL 4
REMARK VINA RESULT:      -9.2      1.903      2.434
REMARK  Name = 
REMARK  3 active torsions:
REMARK  status: ('A' for Active; 'I' for Inactive)
REMARK    1  A    between atoms: C_1  and  N_2
REMARK    2  A    between atoms: C_1  and  C_16
REMARK    3  A    between atoms: C_5  and  C_7
REMARK                            x       y       z     vdW  Elec       q    Type
REMARK                         _______ _______ _______ _____ _____    ______ ____
ROOT
ATOM      2  N   UNL     1      -0.869   1.490  25.363  0.00  0.00    -0.266 NA
ATOM      3  C   UNL     1      -0.412   1.195  24.742  0.00  0.00    +0.073 C 
ATOM      4  C   UNL     1      -0.809   0.547  24.420  0.00  0.00    +0.026 C 
ATOM      5  C   UNL     1      -1.510   0.442  24.842  0.00  0.00    +0.076 C 
ATOM      6  C   UNL     1      -1.547   1.024  25.425  0.00  0.00    +0.080 C 
ENDROOT
BRANCH   5   7
ATOM      7  C   UNL     1      -2.075  -0.144  24.705  0.00  0.00    +0.140 A 
ATOM      8  N   UNL     1      -2.815  -0.033  24.357  0.00  0.00    -0.229 NA
ATOM      9  C   UNL     1      -3.196  -0.763  24.329  0.00  0.00    +0.100 A 
ATOM     10  C   UNL     1      -2.692  -1.326  24.660  0.00  0.00    +0.100 A 
ATOM     11  N   UNL     1      -2.000  -0.944  24.893  0.00  0.00    -0.229 NA
ATOM     12  C   UNL     1      -2.930  -2.115  24.707  0.00  0.00    +0.021 A 
ATOM     13  C   UNL     1      -3.671  -2.340  24.423  0.00  0.00    +0.002 A 
ATOM     14  C   UNL     1      -4.174  -1.777  24.091  0.00  0.00    +0.002 A 
ATOM     15  C   UNL     1      -3.937  -0.988  24.044  0.00  0.00    +0.021 A 
ENDBRANCH   5   7
BRANCH   2   1
ATOM      1  C   UNL     1      -0.680   2.137  25.839  0.00  0.00    +0.139 C 
BRANCH   1  16
ATOM     16  C   UNL     1      -0.927   2.894  25.624  0.00  0.00    +0.155 A 
ATOM     17  N   UNL     1      -1.640   3.251  25.837  0.00  0.00    -0.226 NA
ATOM     18  C   UNL     1      -1.658   4.005  25.502  0.00  0.00    +0.121 A 
ATOM     19  C   UNL     1      -0.957   4.113  25.082  0.00  0.00    +0.121 A 
ATOM     20  N   UNL     1      -0.505   3.427  25.157  0.00  0.00    -0.226 NA
ENDBRANCH   1  16
ENDBRANCH   2   1
TORSDOF 3
ENDMDL
MODEL 5
REMARK VINA RESULT:      -8.9      2.200      4.144
REMARK  Name = 
REMARK  3 active torsions:
REMARK  status: ('A' for Active; 'I' for Inactive)
REMARK    1  A    between atoms: C_1  and  N_2
REMARK    2  A    between atoms: C_1  and  C_16
REMARK    3  A    between atoms: C_5  and  C_7
REMARK                            x       y       z     vdW  Elec       q    Type
REMARK                         _______ _______ _______ _____ _____    ______ ____
ROOT
ATOM      2  N   UNL     1      -1.388   1.328  24.296  0.00  0.00    -0.266 NA
ATOM      3  C   UNL     1      -1.592   1.581  23.538  0.00  0.00    +0.073 C 
ATOM      4  C   UNL     1      -2.373   1.849  23.559  0.00  0.00    +0.026 C 
ATOM      5  C   UNL     1      -2.651   1.761  24.331  0.00  0.00    +0.076 C 
ATOM      6  C   UNL     1      -2.043   1.440  24.787  0.00  0.00    +0.080 C 
ENDROOT
BRANCH   5   7
ATOM      7  C   UNL     1      -3.405   1.961  24.600  0.00  0.00    +0.140 A 
ATOM      8  N   UNL     1      -3.626   2.682  24.934  0.00  0.00    -0.229 NA
ATOM      9  C   UNL     1      -4.427   2.640  25.123  0.00  0.00    +0.100 A 
ATOM     10  C   UNL     1      -4.702   1.894  24.905  0.00  0.00    +0.100 A 
ATOM     11  N   UNL     1      -4.071   1.473  24.583  0.00  0.00    -0.229 NA
ATOM     12  C   UNL     1      -5.493   1.693  25.030  0.00  0.00    +0.021 A 
ATOM     13  C   UNL     1      -6.008   2.239  25.371  0.00  0.00    +0.002 A 
ATOM     14  C   UNL     1      -5.733   2.986  25.588  0.00  0.00    +0.002 A 
ATOM     15  C   UNL     1      -4.943   3.187  25.464  0.00  0.00    +0.021 A 
ENDBRANCH   5   7
BRANCH   2   1
ATOM      1  C   UNL     1      -0.659   1.019  24.525  0.00  0.00    +0.139 C 
BRANCH   1  16
ATOM     16  C   UNL     1      -0.543   0.202  24.537  0.00  0.00    +0.155 A 
ATOM     17  N   UNL     1      -0.206  -0.251  23.935  0.00  0.00    -0.226 NA
ATOM     18  C   UNL     1      -0.199  -1.038  24.180  0.00  0.00    +0.121 A 
ATOM     19  C   UNL     1      -0.531  -1.073  24.934  0.00  0.00    +0.121 A 
ATOM     20  N   UNL     1      -0.744  -0.307  25.155  0.00  0.00    -0.226 NA
ENDBRANCH   1  16
ENDBRANCH   2   1
TORSDOF 3
ENDMDL
MODEL 6
REMARK VINA RESULT:      -8.2      1.759      2.296
REMARK  Name = 
REMARK  3 active torsions:
REMARK  status: ('A' for Active; 'I' for Inactive)
REMARK    1  A    between atoms: C_1  and  N_2
REMARK    2  A    between atoms: C_1  and  C_16
REMARK    3  A    between atoms: C_5  and  C_7
REMARK                            x       y       z     vdW  Elec       q    Type
REMARK                         _______ _______ _______ _____ _____    ______ ____
ROOT
ATOM      2  N   UNL     1      -3.241   2.504  24.164  0.00  0.00    -0.266 NA
ATOM      3  C   UNL     1      -3.213   2.273  23.372  0.00  0.00    +0.073 C 
ATOM      4  C   UNL     1      -2.834   1.540  23.333  0.00  0.00    +0.026 C 
ATOM      5  C   UNL     1      -2.627   1.319  24.101  0.00  0.00    +0.076 C 
ATOM      6  C   UNL     1      -2.878   1.914  24.614  0.00  0.00    +0.080 C 
ENDROOT
BRANCH   5   7
ATOM      7  C   UNL     1      -2.238   0.625  24.317  0.00  0.00    +0.140 A 
ATOM      8  N   UNL     1      -1.428   0.544  24.449  0.00  0.00    -0.229 NA
ATOM      9  C   UNL     1      -1.280  -0.241  24.653  0.00  0.00    +0.100 A 
ATOM     10  C   UNL     1      -1.999  -0.646  24.646  0.00  0.00    +0.100 A 
ATOM     11  N   UNL     1      -2.591  -0.111  24.439  0.00  0.00    -0.229 NA
ATOM     12  C   UNL     1      -2.020  -1.450  24.831  0.00  0.00    +0.021 A 
ATOM     13  C   UNL     1      -1.324  -1.849  25.021  0.00  0.00    +0.002 A 
ATOM     14  C   UNL     1      -0.605  -1.444  25.027  0.00  0.00    +0.002 A 
ATOM     15  C   UNL     1      -0.582  -0.640  24.843  0.00  0.00    +0.021 A 
ENDBRANCH   5   7
BRANCH   2   1
ATOM      1  C   UNL     1      -3.572   3.201  24.455  0.00  0.00    +0.139 C 
BRANCH   1  16
ATOM     16  C   UNL     1      -4.249   3.172  24.924  0.00  0.00    +0.155 A 
ATOM     17  N   UNL     1      -4.292   3.353  25.728  0.00  0.00    -0.226 NA
ATOM     18  C   UNL     1      -5.073   3.249  25.972  0.00  0.00    +0.121 A 
ATOM     19  C   UNL     1      -5.513   3.003  25.320  0.00  0.00    +0.121 A 
ATOM     20  N   UNL     1      -5.005   2.955  24.672  0.00  0.00    -0.226 NA
ENDBRANCH   1  16
ENDBRANCH   2   1
TORSDOF 3
ENDMDL
