MODEL 1
REMARK VINA RESULT:     -11.9      0.000      0.000
REMARK  Name = 
REMARK  5 active torsions:
REMARK  status: ('A' for Active; 'I' for Inactive)
REMARK    1  A    between atoms: C_2  and  S_3
REMARK    2  A    between atoms: S_3  and  C_6
REMARK    3  A    between atoms: C_11  and  C_13
REMARK    4  A    between atoms: N_16  and  C_17
REMARK    5  A    between atoms: C_17  and  C_18
REMARK                            x       y       z     vdW  Elec       q    Type
REMARK                         _______ _______ _______ _____ _____    ______ ____
ROOT
ATOM      6  C   UNL     1      -0.791   3.438  25.286  0.00  0.00    +0.107 A 
ATOM      7  C   UNL     1      -1.271   2.840  24.984  0.00  0.00    +0.041 A 
ATOM      8  C   UNL     1      -1.144   2.056  25.208  0.00  0.00    +0.120 A 
ATOM      9  C   UNL     1      -0.537   1.871  25.736  0.00  0.00    +0.164 A 
ATOM     10  O   UNL     1      -0.544   1.056  25.856  0.00  0.00    -0.438 OA
ATOM     11  C   UNL     1      -1.154   0.736  25.404  0.00  0.00    +0.207 A 
ATOM     12  N   UNL     1      -1.525   1.354  25.003  0.00  0.00    -0.212 NA
ATOM     27  C   UNL     1      -0.057   2.471  26.039  0.00  0.00    +0.040 A 
ATOM     28  C   UNL     1      -0.184   3.254  25.813  0.00  0.00    +0.022 A 
ENDROOT
BRANCH  11  13
ATOM     13  C   UNL     1      -1.358  -0.062  25.359  0.00  0.00    +0.094 C 
ATOM     14  C   UNL     1      -0.883  -0.669  25.065  0.00  0.00    +0.028 C 
ATOM     15  C   UNL     1      -1.304  -1.376  25.124  0.00  0.00    +0.073 C 
ATOM     16  N   UNL     1      -2.040  -1.206  25.456  0.00  0.00    -0.268 NA
ATOM     26  C   UNL     1      -2.074  -0.394  25.601  0.00  0.00    +0.082 C 
BRANCH  16  17
ATOM     17  C   UNL     1      -2.638  -1.752  25.615  0.00  0.00    +0.099 C 
BRANCH  17  18
ATOM     18  C   UNL     1      -3.170  -1.967  25.021  0.00  0.00    -0.004 A 
ATOM     19  C   UNL     1      -3.763  -1.442  24.788  0.00  0.00    +0.029 A 
ATOM     20  C   UNL     1      -4.294  -1.658  24.195  0.00  0.00    +0.167 A 
ATOM     21  F   UNL     1      -4.887  -1.134  23.963  0.00  0.00    -0.202 F 
ATOM     22  C   UNL     1      -4.232  -2.397  23.834  0.00  0.00    +0.167 A 
ATOM     23  F   UNL     1      -4.763  -2.612  23.241  0.00  0.00    -0.202 F 
ATOM     24  C   UNL     1      -3.639  -2.921  24.066  0.00  0.00    +0.032 A 
ATOM     25  C   UNL     1      -3.107  -2.706  24.660  0.00  0.00    -0.000 A 
ENDBRANCH  17  18
ENDBRANCH  16  17
ENDBRANCH  11  13
BRANCH   6   3
ATOM      3  S   UNL     1      -0.917   4.221  25.061  0.00  0.00    +0.009 S 
ATOM      4  O   UNL     1      -0.407   4.121  24.421  0.00  0.00    -0.169 OA
ATOM      5  O   UNL     1      -1.428   4.323  25.701  0.00  0.00    -0.169 OA
BRANCH   3   2
ATOM      1  C   UNL     1      -1.704   5.413  25.118  0.00  0.00    +0.028 C 
ATOM      2  C   UNL     1      -1.044   5.006  24.836  0.00  0.00    +0.156 C 
ENDBRANCH   3   2
ENDBRANCH   6   3
TORSDOF 5
ENDMDL
MODEL 2
REMARK VINA RESULT:     -11.7      3.142      6.094
REMARK  Name = 
REMARK  5 active torsions:
REMARK  status: ('A' for Active; 'I' for Inactive)
REMARK    1  A    between atoms: C_2  and  S_3
REMARK    2  A    between atoms: S_3  and  C_6
REMARK    3  A    between atoms: C_11  and  C_13
REMARK    4  A    between atoms: N_16  and  C_17
REMARK    5  A    between atoms: C_17  and  C_18
REMARK                            x       y       z     vdW  Elec       q    Type
REMARK                         _______ _______ _______ _____ _____    ______ ____
ROOT
ATOM      6  C   UNL     1      -3.549  -1.330  24.571  0.00  0.00    +0.107 A 
ATOM      7  C   UNL     1      -3.136  -0.670  24.843  0.00  0.00    +0.041 A 
ATOM      8  C   UNL     1      -3.473   0.081  24.785  0.00  0.00    +0.120 A 
ATOM      9  C   UNL     1      -4.223   0.171  24.454  0.00  0.00    +0.164 A 
ATOM     10  O   UNL     1      -4.414   0.973  24.469  0.00  0.00    -0.438 OA
ATOM     11  C   UNL     1      -3.781   1.379  24.809  0.00  0.00    +0.207 A 
ATOM     12  N   UNL     1      -3.201   0.827  25.004  0.00  0.00    -0.212 NA
ATOM     27  C   UNL     1      -4.637  -0.490  24.181  0.00  0.00    +0.040 A 
ATOM     28  C   UNL     1      -4.299  -1.240  24.240  0.00  0.00    +0.022 A 
ENDROOT
BRANCH  11  13
ATOM     13  C   UNL     1      -3.738   2.193  24.933  0.00  0.00    +0.094 C 
ATOM     14  C   UNL     1      -4.188   2.767  24.548  0.00  0.00    +0.028 C 
ATOM     15  C   UNL     1      -3.966   3.506  24.840  0.00  0.00    +0.073 C 
ATOM     16  N   UNL     1      -3.377   3.389  25.405  0.00  0.00    -0.268 NA
ATOM     26  C   UNL     1      -3.236   2.577  25.463  0.00  0.00    +0.082 C 
BRANCH  16  17
ATOM     17  C   UNL     1      -2.995   3.978  25.838  0.00  0.00    +0.099 C 
BRANCH  17  18
ATOM     18  C   UNL     1      -2.295   4.311  25.554  0.00  0.00    -0.004 A 
ATOM     19  C   UNL     1      -1.589   3.886  25.596  0.00  0.00    +0.029 A 
ATOM     20  C   UNL     1      -0.890   4.219  25.313  0.00  0.00    +0.167 A 
ATOM     21  F   UNL     1      -0.184   3.793  25.355  0.00  0.00    -0.202 F 
ATOM     22  C   UNL     1      -0.896   4.977  24.987  0.00  0.00    +0.167 A 
ATOM     23  F   UNL     1      -0.196   5.309  24.704  0.00  0.00    -0.202 F 
ATOM     24  C   UNL     1      -1.602   5.402  24.946  0.00  0.00    +0.032 A 
ATOM     25  C   UNL     1      -2.302   5.069  25.229  0.00  0.00    -0.000 A 
ENDBRANCH  17  18
ENDBRANCH  16  17
ENDBRANCH  11  13
BRANCH   6   3
ATOM      3  S   UNL     1      -3.212  -2.080  24.629  0.00  0.00    +0.009 S 
ATOM      4  O   UNL     1      -3.620  -2.210  25.334  0.00  0.00    -0.169 OA
ATOM      5  O   UNL     1      -2.803  -1.952  23.924  0.00  0.00    -0.169 OA
BRANCH   3   2
ATOM      1  C   UNL     1      -2.084  -2.945  24.478  0.00  0.00    +0.028 C 
ATOM      2  C   UNL     1      -2.874  -2.832  24.688  0.00  0.00    +0.156 C 
ENDBRANCH   3   2
ENDBRANCH   6   3
TORSDOF 5
ENDMDL
MODEL 3
REMARK VINA RESULT:     -11.5      2.731      5.665
REMARK  Name = 
REMARK  5 active torsions:
REMARK  status: ('A' for Active; 'I' for Inactive)
REMARK    1  A    between atoms: C_2  and  S_3
REMARK    2  A    between atoms: S_3  and  C_6
REMARK    3  A    between atoms: C_11  and  C_13
REMARK    4  A    between atoms: N_16  and  C_17
REMARK    5  A    between atoms: C_17  and  C_18
REMARK                            x       y       z     vdW  Elec       q    Type
REMARK                         _______ _______ _______ _____ _____    ______ ____
ROOT
ATOM      6  C   UNL     1      -2.483  -1.950  24.705  0.00  0.00    +0.107 A 
ATOM      7  C   UNL     1      -2.528  -1.130  24.644  0.00  0.00    +0.041 A 
ATOM      8  C   UNL     1      -1.854  -0.668  24.760  0.00  0.00    +0.120 A 
ATOM      9  C   UNL     1      -1.134  -1.029  24.938  0.00  0.00    +0.164 A 
ATOM     10  O   UNL     1      -0.566  -0.437  25.023  0.00  0.00    -0.438 OA
ATOM     11  C   UNL     1      -0.935   0.289  24.899  0.00  0.00    +0.207 A 
ATOM     12  N   UNL     1      -1.731   0.146  24.737  0.00  0.00    -0.212 NA
ATOM     27  C   UNL     1      -1.088  -1.851  24.998  0.00  0.00    +0.040 A 
ATOM     28  C   UNL     1      -1.762  -2.311  24.882  0.00  0.00    +0.022 A 
ENDROOT
BRANCH  11  13
ATOM     13  C   UNL     1      -0.572   1.030  24.931  0.00  0.00    +0.094 C 
ATOM     14  C   UNL     1      -0.006   1.316  24.404  0.00  0.00    +0.028 C 
ATOM     15  C   UNL     1       0.205   2.077  24.643  0.00  0.00    +0.073 C 
ATOM     16  N   UNL     1      -0.231   2.261  25.318  0.00  0.00    -0.268 NA
ATOM     26  C   UNL     1      -0.712   1.614  25.496  0.00  0.00    +0.082 C 
BRANCH  16  17
ATOM     17  C   UNL     1      -0.194   2.968  25.742  0.00  0.00    +0.099 C 
BRANCH  17  18
ATOM     18  C   UNL     1      -0.700   3.592  25.549  0.00  0.00    -0.004 A 
ATOM     19  C   UNL     1      -1.459   3.622  25.871  0.00  0.00    +0.029 A 
ATOM     20  C   UNL     1      -1.963   4.246  25.679  0.00  0.00    +0.167 A 
ATOM     21  F   UNL     1      -2.723   4.276  26.001  0.00  0.00    -0.202 F 
ATOM     22  C   UNL     1      -1.710   4.839  25.165  0.00  0.00    +0.167 A 
ATOM     23  F   UNL     1      -2.214   5.462  24.973  0.00  0.00    -0.202 F 
ATOM     24  C   UNL     1      -0.950   4.808  24.843  0.00  0.00    +0.032 A 
ATOM     25  C   UNL     1      -0.445   4.185  25.035  0.00  0.00    -0.000 A 
ENDBRANCH  17  18
ENDBRANCH  16  17
ENDBRANCH  11  13
BRANCH   6   3
ATOM      3  S   UNL     1      -3.157  -2.411  24.588  0.00  0.00    +0.009 S 
ATOM      4  O   UNL     1      -2.876  -2.635  23.846  0.00  0.00    -0.169 OA
ATOM      5  O   UNL     1      -3.439  -2.187  25.331  0.00  0.00    -0.169 OA
BRANCH   3   2
ATOM      1  C   UNL     1      -4.316  -2.735  23.818  0.00  0.00    +0.028 C 
ATOM      2  C   UNL     1      -3.832  -2.872  24.472  0.00  0.00    +0.156 C 
ENDBRANCH   3   2
ENDBRANCH   6   3
TORSDOF 5
ENDMDL
MODEL 4
REMARK VINA RESULT:     -11.1      1.851      2.378
REMARK  Name = 
REMARK  5 active torsions:
REMARK  status: ('A' for Active; 'I' for Inactive)
REMARK    1  A    between atoms: C_2  and  S_3
REMARK    2  A    between atoms: S_3  and  C_6
REMARK    3  A    between atoms: C_11  and  C_13
REMARK    4  A    between atoms: N_16  and  C_17
REMARK    5  A    between atoms: C_17  and  C_18
REMARK                            x       y       z     vdW  Elec       q    Type
REMARK                         _______ _______ _______ _____ _____    ______ ____
ROOT
ATOM      6  C   UNL     1      -2.500   3.952  25.064  0.00  0.00    +0.107 A 
ATOM      7  C   UNL     1      -2.311   3.151  25.090  0.00  0.00    +0.041 A 
ATOM      8  C   UNL     1      -2.905   2.583  25.017  0.00  0.00    +0.120 A 
ATOM      9  C   UNL     1      -3.690   2.818  24.918  0.00  0.00    +0.164 A 
ATOM     10  O   UNL     1      -4.154   2.139  24.862  0.00  0.00    -0.438 OA
ATOM     11  C   UNL     1      -3.657   1.484  24.926  0.00  0.00    +0.207 A 
ATOM     12  N   UNL     1      -2.886   1.759  25.022  0.00  0.00    -0.212 NA
ATOM     27  C   UNL     1      -3.880   3.621  24.892  0.00  0.00    +0.040 A 
ATOM     28  C   UNL     1      -3.285   4.188  24.965  0.00  0.00    +0.022 A 
ENDROOT
BRANCH  11  13
ATOM     13  C   UNL     1      -3.891   0.694  24.899  0.00  0.00    +0.094 C 
ATOM     14  C   UNL     1      -4.511   0.386  24.450  0.00  0.00    +0.028 C 
ATOM     15  C   UNL     1      -4.549  -0.426  24.589  0.00  0.00    +0.073 C 
ATOM     16  N   UNL     1      -3.953  -0.621  25.124  0.00  0.00    -0.268 NA
ATOM     26  C   UNL     1      -3.546   0.071  25.315  0.00  0.00    +0.082 C 
BRANCH  16  17
ATOM     17  C   UNL     1      -3.791  -1.375  25.417  0.00  0.00    +0.099 C 
BRANCH  17  18
ATOM     18  C   UNL     1      -3.270  -1.872  25.013  0.00  0.00    -0.004 A 
ATOM     19  C   UNL     1      -2.456  -1.797  25.127  0.00  0.00    +0.029 A 
ATOM     20  C   UNL     1      -1.937  -2.294  24.724  0.00  0.00    +0.167 A 
ATOM     21  F   UNL     1      -1.123  -2.219  24.838  0.00  0.00    -0.202 F 
ATOM     22  C   UNL     1      -2.229  -2.866  24.206  0.00  0.00    +0.167 A 
ATOM     23  F   UNL     1      -1.709  -3.362  23.803  0.00  0.00    -0.202 F 
ATOM     24  C   UNL     1      -3.043  -2.941  24.092  0.00  0.00    +0.032 A 
ATOM     25  C   UNL     1      -3.564  -2.443  24.496  0.00  0.00    -0.000 A 
ENDBRANCH  17  18
ENDBRANCH  16  17
ENDBRANCH  11  13
BRANCH   6   3
ATOM      3  S   UNL     1      -1.906   4.519  25.137  0.00  0.00    +0.009 S 
ATOM      4  O   UNL     1      -1.561   4.249  24.439  0.00  0.00    -0.169 OA
ATOM      5  O   UNL     1      -2.250   4.791  25.837  0.00  0.00    -0.169 OA
BRANCH   3   2
ATOM      1  C   UNL     1      -0.614   5.012  24.777  0.00  0.00    +0.028 C 
ATOM      2  C   UNL     1      -1.311   5.087  25.211  0.00  0.00    +0.156 C 
ENDBRANCH   3   2
ENDBRANCH   6   3
TORSDOF 5
ENDMDL
MODEL 5
REMARK VINA RESULT:      -9.8      2.927      4.382
REMARK  Name = 
REMARK  5 active torsions:
REMARK  status: ('A' for Active; 'I' for Inactive)
REMARK    1  A    between atoms: C_2  and  S_3
REMARK    2  A    between atoms: S_3  and  C_6
REMARK    3  A    between atoms: C_11  and  C_13
REMARK    4  A    between atoms: N_16  and  C_17
REMARK    5  A    between atoms: C_17  and  C_18
REMARK                            x       y       z     vdW  Elec       q    Type
REMARK                         _______ _______ _______ _____ _____    ______ ____
ROOT
ATOM      6  C   UNL     1       0.429   0.267  23.503  0.00  0.00    +0.107 A 
ATOM      7  C   UNL     1       0.104   1.021  23.429  0.00  0.00    +0.041 A 
ATOM      8  C   UNL     1      -0.535   1.244  23.901  0.00  0.00    +0.120 A 
ATOM      9  C   UNL     1      -0.849   0.711  24.448  0.00  0.00    +0.164 A 
ATOM     10  O   UNL     1      -1.475   1.083  24.836  0.00  0.00    -0.438 OA
ATOM     11  C   UNL     1      -1.548   1.845  24.529  0.00  0.00    +0.207 A 
ATOM     12  N   UNL     1      -0.968   1.943  23.952  0.00  0.00    -0.212 NA
ATOM     27  C   UNL     1      -0.524  -0.044  24.523  0.00  0.00    +0.040 A 
ATOM     28  C   UNL     1       0.115  -0.266  24.050  0.00  0.00    +0.022 A 
ENDROOT
BRANCH  11  13
ATOM     13  C   UNL     1      -2.105   2.409  24.759  0.00  0.00    +0.094 C 
ATOM     14  C   UNL     1      -1.998   2.988  25.335  0.00  0.00    +0.028 C 
ATOM     15  C   UNL     1      -2.693   3.430  25.386  0.00  0.00    +0.073 C 
ATOM     16  N   UNL     1      -3.230   3.123  24.840  0.00  0.00    -0.268 NA
ATOM     26  C   UNL     1      -2.866   2.492  24.453  0.00  0.00    +0.082 C 
BRANCH  16  17
ATOM     17  C   UNL     1      -3.995   3.399  24.705  0.00  0.00    +0.099 C 
BRANCH  17  18
ATOM     18  C   UNL     1      -4.642   2.993  25.020  0.00  0.00    -0.004 A 
ATOM     19  C   UNL     1      -4.989   2.376  24.595  0.00  0.00    +0.029 A 
ATOM     20  C   UNL     1      -5.635   1.972  24.911  0.00  0.00    +0.167 A 
ATOM     21  F   UNL     1      -5.982   1.355  24.486  0.00  0.00    -0.202 F 
ATOM     22  C   UNL     1      -5.934   2.183  25.650  0.00  0.00    +0.167 A 
ATOM     23  F   UNL     1      -6.580   1.778  25.965  0.00  0.00    -0.202 F 
ATOM     24  C   UNL     1      -5.587   2.800  26.075  0.00  0.00    +0.032 A 
ATOM     25  C   UNL     1      -4.940   3.205  25.760  0.00  0.00    -0.000 A 
ENDBRANCH  17  18
ENDBRANCH  16  17
ENDBRANCH  11  13
BRANCH   6   3
ATOM      3  S   UNL     1       1.067   0.045  23.031  0.00  0.00    +0.009 S 
ATOM      4  O   UNL     1       0.600  -0.531  22.670  0.00  0.00    -0.169 OA
ATOM      5  O   UNL     1       1.535   0.620  23.392  0.00  0.00    -0.169 OA
BRANCH   3   2
ATOM      1  C   UNL     1       2.441   0.182  22.664  0.00  0.00    +0.028 C 
ATOM      2  C   UNL     1       1.706  -0.178  22.558  0.00  0.00    +0.156 C 
ENDBRANCH   3   2
ENDBRANCH   6   3
TORSDOF 5
ENDMDL
