REMARK  Name = 
REMARK  6 active torsions:
REMARK  status: ('A' for Active; 'I' for Inactive)
REMARK    1  A    between atoms: C_2  and  C_4
REMARK    2  A    between atoms: C_4  and  C_5
REMARK    3  A    between atoms: C_10  and  C_11
REMARK    4  A    between atoms: C_11  and  C_12
REMARK    5  A    between atoms: C_12  and  N_13
REMARK    6  A    between atoms: N_21  and  C_22
REMARK                            x       y       z     vdW  Elec       q    Type
REMARK                         _______ _______ _______ _____ _____    ______ ____
ROOT
ATOM      5  C   UNL     1       1.429  -2.475   0.000  0.00  0.00    +0.015 C 
ATOM      6  C   UNL     1       2.143  -2.888   0.000  0.00  0.00    +0.022 C 
ATOM      7  C   UNL     1       2.143  -3.712   0.000  0.00  0.00    +0.095 C 
ATOM      8  N   UNL     1       1.429  -4.125   0.000  0.00  0.00    -0.263 N 
ATOM      9  C   UNL     1       0.715  -3.712   0.000  0.00  0.00    +0.095 C 
ATOM     10  C   UNL     1       0.715  -2.888   0.000  0.00  0.00    +0.022 C 
ATOM     19  C   UNL     1       1.429  -4.950   0.000  0.00  0.00    +0.323 C 
ATOM     20  O   UNL     1       0.715  -5.362   0.000  0.00  0.00    -0.251 OA
ATOM     21  N   UNL     1       2.143  -5.362   0.000  0.00  0.00    -0.190 NA
ENDROOT
BRANCH  21  22
ATOM     22  C   UNL     1       2.143  -6.188   0.000  0.00  0.00    +0.097 C 
ATOM     23  C   UNL     1       2.858  -6.600   0.000  0.00  0.00    +0.022 C 
ATOM     24  C   UNL     1       2.858  -7.425   0.000  0.00  0.00    +0.002 C 
ATOM     25  C   UNL     1       2.143  -7.838   0.000  0.00  0.00    +0.000 C 
ATOM     26  C   UNL     1       1.429  -7.425   0.000  0.00  0.00    +0.002 C 
ATOM     27  C   UNL     1       1.429  -6.600   0.000  0.00  0.00    +0.022 C 
ENDBRANCH  21  22
BRANCH   5   4
ATOM      4  C   UNL     1       1.429  -1.650   0.000  0.00  0.00    +0.114 C 
BRANCH   4   2
ATOM      1  O   UNL     1       2.143  -0.412   0.000  0.00  0.00    -0.246 OA
ATOM      2  C   UNL     1       2.143  -1.238   0.000  0.00  0.00    +0.365 C 
ATOM      3  O   UNL     1       2.858  -1.650   0.000  0.00  0.00    -0.246 OA
ENDBRANCH   4   2
ENDBRANCH   5   4
BRANCH  10  11
ATOM     11  C   UNL     1       0.000  -2.475   0.000  0.00  0.00    +0.019 C 
BRANCH  11  12
ATOM     12  C   UNL     1       0.000  -1.650   0.000  0.00  0.00    +0.072 C 
BRANCH  12  13
ATOM     13  N   UNL     1      -0.715  -1.238   0.000  0.00  0.00    -0.268 NA
ATOM     14  C   UNL     1      -1.429  -1.650   0.000  0.00  0.00    +0.105 C 
ATOM     15  C   UNL     1      -2.143  -1.238   0.000  0.00  0.00    +0.159 C 
ATOM     16  O   UNL     1      -2.143  -0.412   0.000  0.00  0.00    -0.351 OA
ATOM     17  C   UNL     1      -1.429   0.000   0.000  0.00  0.00    +0.159 C 
ATOM     18  C   UNL     1      -0.715  -0.412   0.000  0.00  0.00    +0.105 C 
ENDBRANCH  12  13
ENDBRANCH  11  12
ENDBRANCH  10  11
TORSDOF 6
