MODEL 1
REMARK VINA RESULT:      -8.8      0.000      0.000
REMARK  Name = 
REMARK  7 active torsions:
REMARK  status: ('A' for Active; 'I' for Inactive)
REMARK    1  A    between atoms: O_2  and  C_3
REMARK    2  A    between atoms: C_3  and  C_4
REMARK    3  A    between atoms: C_9  and  C_11
REMARK    4  A    between atoms: C_11  and  C_12
REMARK    5  A    between atoms: C_14  and  C_15
REMARK    6  A    between atoms: C_15  and  N_16
REMARK    7  A    between atoms: N_16  and  S_17
REMARK                            x       y       z     vdW  Elec       q    Type
REMARK                         _______ _______ _______ _____ _____    ______ ____
ROOT
ATOM     12  C   UNL     1      -4.519   1.406  24.909  0.00  0.00    +0.157 C 
ATOM     13  O   UNL     1      -3.865   1.908  24.874  0.00  0.00    -0.351 OA
ATOM     14  C   UNL     1      -4.110   2.662  25.101  0.00  0.00    +0.167 C 
ATOM     21  C   UNL     1      -4.915   2.626  25.275  0.00  0.00    +0.213 C 
ATOM     22  O   UNL     1      -5.385   3.257  25.525  0.00  0.00    -0.218 OA
ATOM     23  C   UNL     1      -5.168   1.850  25.157  0.00  0.00    +0.212 C 
ATOM     24  O   UNL     1      -5.936   1.568  25.268  0.00  0.00    -0.218 OA
ENDROOT
BRANCH  12  11
ATOM     11  C   UNL     1      -4.523   0.601  24.728  0.00  0.00    +0.117 C 
BRANCH  11   9
ATOM      4  C   UNL     1      -3.171  -1.143  24.651  0.00  0.00    +0.105 C 
ATOM      5  C   UNL     1      -3.368  -1.853  24.279  0.00  0.00    +0.024 C 
ATOM      6  C   UNL     1      -4.127  -1.773  23.964  0.00  0.00    +0.023 C 
ATOM      7  C   UNL     1      -4.399  -1.015  24.142  0.00  0.00    +0.093 C 
ATOM      8  N   UNL     1      -3.807  -0.625  24.567  0.00  0.00    -0.279 N 
ATOM      9  C   UNL     1      -3.847   0.147  24.856  0.00  0.00    +0.228 C 
ATOM     10  O   UNL     1      -3.209   0.463  25.273  0.00  0.00    -0.275 OA
BRANCH   4   3
ATOM      3  C   UNL     1      -2.461  -0.980  25.039  0.00  0.00    +0.162 C 
BRANCH   3   2
ATOM      1  C   UNL     1      -1.108  -1.330  25.332  0.00  0.00    +0.174 C 
ATOM      2  O   UNL     1      -1.843  -1.525  25.013  0.00  0.00    -0.349 OA
ENDBRANCH   3   2
ENDBRANCH   4   3
ENDBRANCH  11   9
ENDBRANCH  12  11
BRANCH  14  15
ATOM     15  C   UNL     1      -3.633   3.334  25.144  0.00  0.00    +0.147 C 
BRANCH  15  16
ATOM     16  N   UNL     1      -2.823   3.257  25.283  0.00  0.00    -0.079 NA
BRANCH  16  17
ATOM     17  S   UNL     1      -2.346   3.929  25.325  0.00  0.00    +0.059 S 
ATOM     18  C   UNL     1      -1.869   4.600  25.367  0.00  0.00    +0.197 C 
ATOM     19  O   UNL     1      -2.348   3.879  26.148  0.00  0.00    -0.156 OA
ATOM     20  O   UNL     1      -2.343   3.979  24.501  0.00  0.00    -0.156 OA
ENDBRANCH  16  17
ENDBRANCH  15  16
ENDBRANCH  14  15
TORSDOF 7
ENDMDL
MODEL 2
REMARK VINA RESULT:      -8.7      1.535      4.182
REMARK  Name = 
REMARK  7 active torsions:
REMARK  status: ('A' for Active; 'I' for Inactive)
REMARK    1  A    between atoms: O_2  and  C_3
REMARK    2  A    between atoms: C_3  and  C_4
REMARK    3  A    between atoms: C_9  and  C_11
REMARK    4  A    between atoms: C_11  and  C_12
REMARK    5  A    between atoms: C_14  and  C_15
REMARK    6  A    between atoms: C_15  and  N_16
REMARK    7  A    between atoms: N_16  and  S_17
REMARK                            x       y       z     vdW  Elec       q    Type
REMARK                         _______ _______ _______ _____ _____    ______ ____
ROOT
ATOM     12  C   UNL     1      -4.054   2.796  25.108  0.00  0.00    +0.157 C 
ATOM     13  O   UNL     1      -3.876   2.019  24.893  0.00  0.00    -0.351 OA
ATOM     14  C   UNL     1      -4.578   1.587  24.896  0.00  0.00    +0.167 C 
ATOM     21  C   UNL     1      -5.189   2.095  25.112  0.00  0.00    +0.213 C 
ATOM     22  O   UNL     1      -5.986   1.892  25.185  0.00  0.00    -0.218 OA
ATOM     23  C   UNL     1      -4.866   2.843  25.243  0.00  0.00    +0.212 C 
ATOM     24  O   UNL     1      -5.282   3.518  25.470  0.00  0.00    -0.218 OA
ENDROOT
BRANCH  12  11
ATOM     11  C   UNL     1      -3.514   3.416  25.175  0.00  0.00    +0.117 C 
BRANCH  11   9
ATOM      4  C   UNL     1      -1.351   3.764  25.447  0.00  0.00    +0.105 C 
ATOM      5  C   UNL     1      -0.979   4.476  25.255  0.00  0.00    +0.024 C 
ATOM      6  C   UNL     1      -1.552   4.992  24.961  0.00  0.00    +0.023 C 
ATOM      7  C   UNL     1      -2.278   4.599  24.971  0.00  0.00    +0.093 C 
ATOM      8  N   UNL     1      -2.153   3.841  25.271  0.00  0.00    -0.279 N 
ATOM      9  C   UNL     1      -2.730   3.260  25.377  0.00  0.00    +0.228 C 
ATOM     10  O   UNL     1      -2.521   2.523  25.685  0.00  0.00    -0.275 OA
BRANCH   4   3
ATOM      3  C   UNL     1      -0.984   3.095  25.759  0.00  0.00    +0.162 C 
BRANCH   3   2
ATOM      1  C   UNL     1       0.198   2.424  26.198  0.00  0.00    +0.174 C 
ATOM      2  O   UNL     1      -0.166   3.087  25.871  0.00  0.00    -0.349 OA
ENDBRANCH   3   2
ENDBRANCH   4   3
ENDBRANCH  11   9
ENDBRANCH  12  11
BRANCH  14  15
ATOM     15  C   UNL     1      -4.654   0.785  24.714  0.00  0.00    +0.147 C 
BRANCH  15  16
ATOM     16  N   UNL     1      -3.983   0.310  24.652  0.00  0.00    -0.079 NA
BRANCH  16  17
ATOM     17  S   UNL     1      -4.059  -0.490  24.463  0.00  0.00    +0.059 S 
ATOM     18  C   UNL     1      -4.135  -1.289  24.276  0.00  0.00    +0.197 C 
ATOM     19  O   UNL     1      -4.036  -0.303  23.661  0.00  0.00    -0.156 OA
ATOM     20  O   UNL     1      -4.082  -0.677  25.267  0.00  0.00    -0.156 OA
ENDBRANCH  16  17
ENDBRANCH  15  16
ENDBRANCH  14  15
TORSDOF 7
ENDMDL
MODEL 3
REMARK VINA RESULT:      -8.4      1.657      2.664
REMARK  Name = 
REMARK  7 active torsions:
REMARK  status: ('A' for Active; 'I' for Inactive)
REMARK    1  A    between atoms: O_2  and  C_3
REMARK    2  A    between atoms: C_3  and  C_4
REMARK    3  A    between atoms: C_9  and  C_11
REMARK    4  A    between atoms: C_11  and  C_12
REMARK    5  A    between atoms: C_14  and  C_15
REMARK    6  A    between atoms: C_15  and  N_16
REMARK    7  A    between atoms: N_16  and  S_17
REMARK                            x       y       z     vdW  Elec       q    Type
REMARK                         _______ _______ _______ _____ _____    ______ ____
ROOT
ATOM     12  C   UNL     1      -2.575   1.358  24.024  0.00  0.00    +0.157 C 
ATOM     13  O   UNL     1      -3.221   1.550  24.501  0.00  0.00    -0.351 OA
ATOM     14  C   UNL     1      -3.627   2.172  24.143  0.00  0.00    +0.167 C 
ATOM     21  C   UNL     1      -3.234   2.364  23.445  0.00  0.00    +0.213 C 
ATOM     22  O   UNL     1      -3.452   2.957  22.912  0.00  0.00    -0.218 OA
ATOM     23  C   UNL     1      -2.583   1.862  23.371  0.00  0.00    +0.212 C 
ATOM     24  O   UNL     1      -2.037   1.863  22.752  0.00  0.00    -0.218 OA
ENDROOT
BRANCH  12  11
ATOM     11  C   UNL     1      -2.020   0.767  24.173  0.00  0.00    +0.117 C 
BRANCH  11   9
ATOM      4  C   UNL     1      -1.907  -1.362  24.746  0.00  0.00    +0.105 C 
ATOM      5  C   UNL     1      -1.220  -1.717  25.036  0.00  0.00    +0.024 C 
ATOM      6  C   UNL     1      -0.628  -1.143  25.062  0.00  0.00    +0.023 C 
ATOM      7  C   UNL     1      -0.948  -0.434  24.789  0.00  0.00    +0.093 C 
ATOM      8  N   UNL     1      -1.739  -0.569  24.594  0.00  0.00    -0.279 N 
ATOM      9  C   UNL     1      -2.268  -0.009  24.298  0.00  0.00    +0.228 C 
ATOM     10  O   UNL     1      -3.046  -0.227  24.128  0.00  0.00    -0.275 OA
BRANCH   4   3
ATOM      3  C   UNL     1      -2.634  -1.735  24.630  0.00  0.00    +0.162 C 
BRANCH   3   2
ATOM      1  C   UNL     1      -3.442  -2.912  24.678  0.00  0.00    +0.174 C 
ATOM      2  O   UNL     1      -2.714  -2.540  24.792  0.00  0.00    -0.349 OA
ENDBRANCH   3   2
ENDBRANCH   4   3
ENDBRANCH  11   9
ENDBRANCH  12  11
BRANCH  14  15
ATOM     15  C   UNL     1      -4.308   2.537  24.433  0.00  0.00    +0.147 C 
BRANCH  15  16
ATOM     16  N   UNL     1      -4.564   2.382  25.202  0.00  0.00    -0.079 NA
BRANCH  16  17
ATOM     17  S   UNL     1      -5.246   2.746  25.491  0.00  0.00    +0.059 S 
ATOM     18  C   UNL     1      -5.927   3.109  25.780  0.00  0.00    +0.197 C 
ATOM     19  O   UNL     1      -4.784   3.330  25.844  0.00  0.00    -0.156 OA
ATOM     20  O   UNL     1      -5.708   2.161  25.137  0.00  0.00    -0.156 OA
ENDBRANCH  16  17
ENDBRANCH  15  16
ENDBRANCH  14  15
TORSDOF 7
ENDMDL
MODEL 4
REMARK VINA RESULT:      -8.1      1.726      4.199
REMARK  Name = 
REMARK  7 active torsions:
REMARK  status: ('A' for Active; 'I' for Inactive)
REMARK    1  A    between atoms: O_2  and  C_3
REMARK    2  A    between atoms: C_3  and  C_4
REMARK    3  A    between atoms: C_9  and  C_11
REMARK    4  A    between atoms: C_11  and  C_12
REMARK    5  A    between atoms: C_14  and  C_15
REMARK    6  A    between atoms: C_15  and  N_16
REMARK    7  A    between atoms: N_16  and  S_17
REMARK                            x       y       z     vdW  Elec       q    Type
REMARK                         _______ _______ _______ _____ _____    ______ ____
ROOT
ATOM     12  C   UNL     1      -3.995  -0.442  24.647  0.00  0.00    +0.157 C 
ATOM     13  O   UNL     1      -3.193  -0.381  24.834  0.00  0.00    -0.351 OA
ATOM     14  C   UNL     1      -2.825  -1.081  24.602  0.00  0.00    +0.167 C 
ATOM     21  C   UNL     1      -3.397  -1.574  24.273  0.00  0.00    +0.213 C 
ATOM     22  O   UNL     1      -3.270  -2.331  23.968  0.00  0.00    -0.218 OA
ATOM     23  C   UNL     1      -4.121  -1.179  24.301  0.00  0.00    +0.212 C 
ATOM     24  O   UNL     1      -4.844  -1.470  24.029  0.00  0.00    -0.218 OA
ENDROOT
BRANCH  12  11
ATOM     11  C   UNL     1      -4.569   0.134  24.784  0.00  0.00    +0.117 C 
BRANCH  11   9
ATOM      4  C   UNL     1      -4.759   2.333  24.870  0.00  0.00    +0.105 C 
ATOM      5  C   UNL     1      -5.332   2.720  25.320  0.00  0.00    +0.024 C 
ATOM      6  C   UNL     1      -5.787   2.147  25.702  0.00  0.00    +0.023 C 
ATOM      7  C   UNL     1      -5.494   1.406  25.489  0.00  0.00    +0.093 C 
ATOM      8  N   UNL     1      -4.859   1.521  24.975  0.00  0.00    -0.279 N 
ATOM      9  C   UNL     1      -4.403   0.927  24.627  0.00  0.00    +0.228 C 
ATOM     10  O   UNL     1      -3.783   1.127  24.122  0.00  0.00    -0.275 OA
BRANCH   4   3
ATOM      3  C   UNL     1      -4.186   2.694  24.399  0.00  0.00    +0.162 C 
BRANCH   3   2
ATOM      1  C   UNL     1      -3.493   3.876  23.996  0.00  0.00    +0.174 C 
ATOM      2  O   UNL     1      -4.131   3.517  24.376  0.00  0.00    -0.349 OA
ENDBRANCH   3   2
ENDBRANCH   4   3
ENDBRANCH  11   9
ENDBRANCH  12  11
BRANCH  14  15
ATOM     15  C   UNL     1      -2.023  -1.258  24.685  0.00  0.00    +0.147 C 
BRANCH  15  16
ATOM     16  N   UNL     1      -1.476  -0.650  24.798  0.00  0.00    -0.079 NA
BRANCH  16  17
ATOM     17  S   UNL     1      -0.670  -0.797  24.703  0.00  0.00    +0.059 S 
ATOM     18  C   UNL     1       0.136  -0.944  24.608  0.00  0.00    +0.197 C 
ATOM     19  O   UNL     1      -0.683  -1.297  25.359  0.00  0.00    -0.156 OA
ATOM     20  O   UNL     1      -0.656  -0.297  24.046  0.00  0.00    -0.156 OA
ENDBRANCH  16  17
ENDBRANCH  15  16
ENDBRANCH  14  15
TORSDOF 7
ENDMDL
MODEL 5
REMARK VINA RESULT:      -8.0      1.906      5.025
REMARK  Name = 
REMARK  7 active torsions:
REMARK  status: ('A' for Active; 'I' for Inactive)
REMARK    1  A    between atoms: O_2  and  C_3
REMARK    2  A    between atoms: C_3  and  C_4
REMARK    3  A    between atoms: C_9  and  C_11
REMARK    4  A    between atoms: C_11  and  C_12
REMARK    5  A    between atoms: C_14  and  C_15
REMARK    6  A    between atoms: C_15  and  N_16
REMARK    7  A    between atoms: N_16  and  S_17
REMARK                            x       y       z     vdW  Elec       q    Type
REMARK                         _______ _______ _______ _____ _____    ______ ____
ROOT
ATOM     12  C   UNL     1      -1.378   1.140  24.730  0.00  0.00    +0.157 C 
ATOM     13  O   UNL     1      -1.936   0.568  24.937  0.00  0.00    -0.351 OA
ATOM     14  C   UNL     1      -1.607  -0.174  24.790  0.00  0.00    +0.167 C 
ATOM     21  C   UNL     1      -0.847  -0.061  24.491  0.00  0.00    +0.213 C 
ATOM     22  O   UNL     1      -0.320  -0.656  24.268  0.00  0.00    -0.218 OA
ATOM     23  C   UNL     1      -0.705   0.751  24.454  0.00  0.00    +0.212 C 
ATOM     24  O   UNL     1      -0.012   1.110  24.188  0.00  0.00    -0.218 OA
ENDROOT
BRANCH  12  11
ATOM     11  C   UNL     1      -1.476   1.956  24.788  0.00  0.00    +0.117 C 
BRANCH  11   9
ATOM      4  C   UNL     1      -3.025   3.398  25.418  0.00  0.00    +0.105 C 
ATOM      5  C   UNL     1      -2.852   4.120  25.779  0.00  0.00    +0.024 C 
ATOM      6  C   UNL     1      -2.032   4.180  25.848  0.00  0.00    +0.023 C 
ATOM      7  C   UNL     1      -1.698   3.496  25.530  0.00  0.00    +0.093 C 
ATOM      8  N   UNL     1      -2.313   3.013  25.264  0.00  0.00    -0.279 N 
ATOM      9  C   UNL     1      -2.228   2.273  24.907  0.00  0.00    +0.228 C 
ATOM     10  O   UNL     1      -2.896   1.852  24.669  0.00  0.00    -0.275 OA
BRANCH   4   3
ATOM      3  C   UNL     1      -3.779   3.112  25.243  0.00  0.00    +0.162 C 
BRANCH   3   2
ATOM      1  C   UNL     1      -5.198   3.216  25.371  0.00  0.00    +0.174 C 
ATOM      2  O   UNL     1      -4.446   3.538  25.477  0.00  0.00    -0.349 OA
ENDBRANCH   3   2
ENDBRANCH   4   3
ENDBRANCH  11   9
ENDBRANCH  12  11
BRANCH  14  15
ATOM     15  C   UNL     1      -1.975  -0.902  24.918  0.00  0.00    +0.147 C 
BRANCH  15  16
ATOM     16  N   UNL     1      -2.796  -0.965  24.860  0.00  0.00    -0.079 NA
BRANCH  16  17
ATOM     17  S   UNL     1      -3.162  -1.695  24.977  0.00  0.00    +0.059 S 
ATOM     18  C   UNL     1      -3.529  -2.424  25.094  0.00  0.00    +0.197 C 
ATOM     19  O   UNL     1      -3.172  -1.821  24.162  0.00  0.00    -0.156 OA
ATOM     20  O   UNL     1      -3.153  -1.569  25.793  0.00  0.00    -0.156 OA
ENDBRANCH  16  17
ENDBRANCH  15  16
ENDBRANCH  14  15
TORSDOF 7
ENDMDL
MODEL 6
REMARK VINA RESULT:      -7.9      2.297      4.578
REMARK  Name = 
REMARK  7 active torsions:
REMARK  status: ('A' for Active; 'I' for Inactive)
REMARK    1  A    between atoms: O_2  and  C_3
REMARK    2  A    between atoms: C_3  and  C_4
REMARK    3  A    between atoms: C_9  and  C_11
REMARK    4  A    between atoms: C_11  and  C_12
REMARK    5  A    between atoms: C_14  and  C_15
REMARK    6  A    between atoms: C_15  and  N_16
REMARK    7  A    between atoms: N_16  and  S_17
REMARK                            x       y       z     vdW  Elec       q    Type
REMARK                         _______ _______ _______ _____ _____    ______ ____
ROOT
ATOM     12  C   UNL     1      -1.915   0.238  24.817  0.00  0.00    +0.157 C 
ATOM     13  O   UNL     1      -1.273   0.367  24.315  0.00  0.00    -0.351 OA
ATOM     14  C   UNL     1      -0.726  -0.238  24.440  0.00  0.00    +0.167 C 
ATOM     21  C   UNL     1      -1.030  -0.740  25.019  0.00  0.00    +0.213 C 
ATOM     22  O   UNL     1      -0.664  -1.419  25.314  0.00  0.00    -0.218 OA
ATOM     23  C   UNL     1      -1.765  -0.446  25.252  0.00  0.00    +0.212 C 
ATOM     24  O   UNL     1      -2.262  -0.779  25.821  0.00  0.00    -0.218 OA
ENDROOT
BRANCH  12  11
ATOM     11  C   UNL     1      -2.589   0.710  24.874  0.00  0.00    +0.117 C 
BRANCH  11   9
ATOM      4  C   UNL     1      -3.139   2.847  24.789  0.00  0.00    +0.105 C 
ATOM      5  C   UNL     1      -3.869   3.116  24.513  0.00  0.00    +0.024 C 
ATOM      6  C   UNL     1      -4.316   2.458  24.292  0.00  0.00    +0.023 C 
ATOM      7  C   UNL     1      -3.863   1.783  24.431  0.00  0.00    +0.093 C 
ATOM      8  N   UNL     1      -3.135   2.024  24.738  0.00  0.00    -0.279 N 
ATOM      9  C   UNL     1      -2.513   1.528  24.956  0.00  0.00    +0.228 C 
ATOM     10  O   UNL     1      -1.815   1.850  25.257  0.00  0.00    -0.275 OA
BRANCH   4   3
ATOM      3  C   UNL     1      -2.522   3.319  25.067  0.00  0.00    +0.162 C 
BRANCH   3   2
ATOM      1  C   UNL     1      -1.982   4.613  25.342  0.00  0.00    +0.174 C 
ATOM      2  O   UNL     1      -2.596   4.141  25.059  0.00  0.00    -0.349 OA
ENDBRANCH   3   2
ENDBRANCH   4   3
ENDBRANCH  11   9
ENDBRANCH  12  11
BRANCH  14  15
ATOM     15  C   UNL     1      -0.002  -0.325  24.054  0.00  0.00    +0.147 C 
BRANCH  15  16
ATOM     16  N   UNL     1       0.192   0.172  23.425  0.00  0.00    -0.079 NA
BRANCH  16  17
ATOM     17  S   UNL     1       0.938   0.124  23.076  0.00  0.00    +0.059 S 
ATOM     18  C   UNL     1       1.683   0.075  22.727  0.00  0.00    +0.197 C 
ATOM     19  O   UNL     1       0.682  -0.511  22.616  0.00  0.00    -0.156 OA
ATOM     20  O   UNL     1       1.195   0.759  23.535  0.00  0.00    -0.156 OA
ENDBRANCH  16  17
ENDBRANCH  15  16
ENDBRANCH  14  15
TORSDOF 7
ENDMDL
