MODEL 1
REMARK VINA RESULT:     -12.4      0.000      0.000
REMARK  Name = 
REMARK  5 active torsions:
REMARK  status: ('A' for Active; 'I' for Inactive)
REMARK    1  A    between atoms: C_4  and  C_21
REMARK    2  A    between atoms: C_6  and  C_7
REMARK    3  A    between atoms: C_14  and  C_15
REMARK    4  A    between atoms: C_15  and  N_16
REMARK    5  A    between atoms: N_16  and  S_17
REMARK                            x       y       z     vdW  Elec       q    Type
REMARK                         _______ _______ _______ _____ _____    ______ ____
ROOT
ATOM      1  C   UNL     1      -5.286   2.016  25.312  0.00  0.00    +0.153 C 
ATOM      2  N   UNL     1      -4.751   1.439  25.064  0.00  0.00    -0.253 N 
ATOM      3  N   UNL     1      -4.911   0.635  24.978  0.00  0.00    -0.170 NA
ATOM      4  C   UNL     1      -4.221   0.264  24.720  0.00  0.00    +0.102 A 
ATOM      5  C   UNL     1      -3.635   0.839  24.646  0.00  0.00    +0.035 A 
ATOM      6  C   UNL     1      -3.962   1.565  24.859  0.00  0.00    +0.058 A 
ENDROOT
BRANCH   4  21
ATOM     21  C   UNL     1      -4.133  -0.541  24.562  0.00  0.00    +0.019 A 
ATOM     22  C   UNL     1      -3.692  -1.015  25.074  0.00  0.00    +0.002 A 
ATOM     23  C   UNL     1      -3.604  -1.821  24.917  0.00  0.00    +0.000 A 
ATOM     24  C   UNL     1      -3.957  -2.151  24.248  0.00  0.00    +0.000 A 
ATOM     25  C   UNL     1      -3.868  -2.956  24.091  0.00  0.00    +0.000 A 
ATOM     26  C   UNL     1      -3.427  -3.431  24.602  0.00  0.00    +0.000 A 
ATOM     27  C   UNL     1      -3.075  -3.100  25.271  0.00  0.00    +0.000 A 
ATOM     28  C   UNL     1      -3.163  -2.295  25.428  0.00  0.00    +0.000 A 
ATOM     29  C   UNL     1      -4.397  -1.677  23.736  0.00  0.00    +0.000 A 
ATOM     30  C   UNL     1      -4.486  -0.871  23.894  0.00  0.00    +0.002 A 
ENDBRANCH   4  21
BRANCH   6   7
ATOM      7  C   UNL     1      -3.570   2.291  24.866  0.00  0.00    +0.056 C 
ATOM      8  C   UNL     1      -3.440   2.619  25.560  0.00  0.00    +0.078 C 
ATOM      9  N   UNL     1      -3.222   2.929  24.827  0.00  0.00    -0.272 NA
ATOM     10  C   UNL     1      -3.541   2.248  24.096  0.00  0.00    +0.072 C 
ATOM     11  C   UNL     1      -3.594   2.072  23.469  0.00  0.00    +0.018 C 
ATOM     12  C   UNL     1      -3.353   2.603  24.151  0.00  0.00    +0.010 C 
ATOM     13  C   UNL     1      -2.937   3.344  23.933  0.00  0.00    +0.018 C 
ATOM     14  C   UNL     1      -2.790   3.698  24.592  0.00  0.00    +0.077 C 
BRANCH  14  15
ATOM     15  C   UNL     1      -2.445   4.377  24.908  0.00  0.00    +0.131 C 
BRANCH  15  16
ATOM     16  N   UNL     1      -1.631   4.398  25.048  0.00  0.00    -0.081 NA
BRANCH  16  17
ATOM     17  S   UNL     1      -1.224   5.115  25.004  0.00  0.00    +0.059 S 
ATOM     18  C   UNL     1      -0.817   5.831  24.959  0.00  0.00    +0.197 C 
ATOM     19  O   UNL     1      -1.862   5.499  25.358  0.00  0.00    -0.156 OA
ATOM     20  O   UNL     1      -0.587   4.730  24.650  0.00  0.00    -0.156 OA
ENDBRANCH  16  17
ENDBRANCH  15  16
ENDBRANCH  14  15
ENDBRANCH   6   7
TORSDOF 5
ENDMDL
MODEL 2
REMARK VINA RESULT:     -11.7      2.767      5.629
REMARK  Name = 
REMARK  5 active torsions:
REMARK  status: ('A' for Active; 'I' for Inactive)
REMARK    1  A    between atoms: C_4  and  C_21
REMARK    2  A    between atoms: C_6  and  C_7
REMARK    3  A    between atoms: C_14  and  C_15
REMARK    4  A    between atoms: C_15  and  N_16
REMARK    5  A    between atoms: N_16  and  S_17
REMARK                            x       y       z     vdW  Elec       q    Type
REMARK                         _______ _______ _______ _____ _____    ______ ____
ROOT
ATOM      1  C   UNL     1      -5.352   1.826  25.071  0.00  0.00    +0.153 C 
ATOM      2  N   UNL     1      -4.565   2.069  25.020  0.00  0.00    -0.253 N 
ATOM      3  N   UNL     1      -4.287   2.837  25.129  0.00  0.00    -0.170 NA
ATOM      4  C   UNL     1      -3.468   2.828  25.027  0.00  0.00    +0.102 A 
ATOM      5  C   UNL     1      -3.241   2.054  24.856  0.00  0.00    +0.035 A 
ATOM      6  C   UNL     1      -3.919   1.585  24.852  0.00  0.00    +0.058 A 
ENDROOT
BRANCH   4  21
ATOM     21  C   UNL     1      -2.965   3.480  25.087  0.00  0.00    +0.019 A 
ATOM     22  C   UNL     1      -2.188   3.426  24.813  0.00  0.00    +0.002 A 
ATOM     23  C   UNL     1      -1.685   4.078  24.872  0.00  0.00    +0.000 A 
ATOM     24  C   UNL     1      -1.959   4.782  25.205  0.00  0.00    +0.000 A 
ATOM     25  C   UNL     1      -1.456   5.433  25.265  0.00  0.00    +0.000 A 
ATOM     26  C   UNL     1      -0.678   5.381  24.991  0.00  0.00    +0.000 A 
ATOM     27  C   UNL     1      -0.406   4.677  24.658  0.00  0.00    +0.000 A 
ATOM     28  C   UNL     1      -0.909   4.026  24.599  0.00  0.00    +0.000 A 
ATOM     29  C   UNL     1      -2.735   4.835  25.479  0.00  0.00    +0.000 A 
ATOM     30  C   UNL     1      -3.239   4.183  25.420  0.00  0.00    +0.002 A 
ENDBRANCH   4  21
BRANCH   6   7
ATOM      7  C   UNL     1      -3.947   0.773  24.705  0.00  0.00    +0.056 C 
ATOM      8  C   UNL     1      -4.185   0.314  25.286  0.00  0.00    +0.078 C 
ATOM      9  N   UNL     1      -3.956   0.067  24.533  0.00  0.00    -0.272 NA
ATOM     10  C   UNL     1      -3.693   0.925  23.992  0.00  0.00    +0.072 C 
ATOM     11  C   UNL     1      -3.481   1.207  23.441  0.00  0.00    +0.018 C 
ATOM     12  C   UNL     1      -3.723   0.522  23.968  0.00  0.00    +0.010 C 
ATOM     13  C   UNL     1      -3.677  -0.277  23.607  0.00  0.00    +0.018 C 
ATOM     14  C   UNL     1      -3.906  -0.760  24.151  0.00  0.00    +0.077 C 
BRANCH  14  15
ATOM     15  C   UNL     1      -4.033  -1.561  24.304  0.00  0.00    +0.131 C 
BRANCH  15  16
ATOM     16  N   UNL     1      -3.455  -2.115  24.105  0.00  0.00    -0.081 NA
BRANCH  16  17
ATOM     17  S   UNL     1      -3.481  -2.873  24.432  0.00  0.00    +0.059 S 
ATOM     18  C   UNL     1      -3.506  -3.630  24.759  0.00  0.00    +0.197 C 
ATOM     19  O   UNL     1      -4.190  -3.020  24.036  0.00  0.00    -0.156 OA
ATOM     20  O   UNL     1      -2.772  -2.725  24.827  0.00  0.00    -0.156 OA
ENDBRANCH  16  17
ENDBRANCH  15  16
ENDBRANCH  14  15
ENDBRANCH   6   7
TORSDOF 5
ENDMDL
MODEL 3
REMARK VINA RESULT:     -11.5      2.204      2.705
REMARK  Name = 
REMARK  5 active torsions:
REMARK  status: ('A' for Active; 'I' for Inactive)
REMARK    1  A    between atoms: C_4  and  C_21
REMARK    2  A    between atoms: C_6  and  C_7
REMARK    3  A    between atoms: C_14  and  C_15
REMARK    4  A    between atoms: C_15  and  N_16
REMARK    5  A    between atoms: N_16  and  S_17
REMARK                            x       y       z     vdW  Elec       q    Type
REMARK                         _______ _______ _______ _____ _____    ______ ____
ROOT
ATOM      1  C   UNL     1       0.427   0.546  23.839  0.00  0.00    +0.153 C 
ATOM      2  N   UNL     1      -0.315   0.285  24.089  0.00  0.00    -0.253 N 
ATOM      3  N   UNL     1      -0.598  -0.488  24.042  0.00  0.00    -0.170 NA
ATOM      4  C   UNL     1      -1.362  -0.499  24.354  0.00  0.00    +0.102 A 
ATOM      5  C   UNL     1      -1.550   0.267  24.594  0.00  0.00    +0.035 A 
ATOM      6  C   UNL     1      -0.903   0.751  24.430  0.00  0.00    +0.058 A 
ENDROOT
BRANCH   4  21
ATOM     21  C   UNL     1      -1.851  -1.161  24.416  0.00  0.00    +0.019 A 
ATOM     22  C   UNL     1      -2.634  -1.120  24.158  0.00  0.00    +0.002 A 
ATOM     23  C   UNL     1      -3.123  -1.782  24.220  0.00  0.00    +0.000 A 
ATOM     24  C   UNL     1      -2.829  -2.484  24.539  0.00  0.00    +0.000 A 
ATOM     25  C   UNL     1      -3.318  -3.145  24.601  0.00  0.00    +0.000 A 
ATOM     26  C   UNL     1      -4.102  -3.105  24.343  0.00  0.00    +0.000 A 
ATOM     27  C   UNL     1      -4.394  -2.403  24.023  0.00  0.00    +0.000 A 
ATOM     28  C   UNL     1      -3.905  -1.742  23.962  0.00  0.00    +0.000 A 
ATOM     29  C   UNL     1      -2.046  -2.525  24.797  0.00  0.00    +0.000 A 
ATOM     30  C   UNL     1      -1.557  -1.863  24.736  0.00  0.00    +0.002 A 
ENDBRANCH   4  21
BRANCH   6   7
ATOM      7  C   UNL     1      -0.853   1.561  24.580  0.00  0.00    +0.056 C 
ATOM      8  C   UNL     1      -0.912   2.041  23.970  0.00  0.00    +0.078 C 
ATOM      9  N   UNL     1      -0.804   2.265  24.757  0.00  0.00    -0.272 NA
ATOM     10  C   UNL     1      -0.765   1.386  25.326  0.00  0.00    +0.072 C 
ATOM     11  C   UNL     1      -0.703   1.086  25.904  0.00  0.00    +0.018 C 
ATOM     12  C   UNL     1      -0.746   1.790  25.349  0.00  0.00    +0.010 C 
ATOM     13  C   UNL     1      -0.669   2.580  25.724  0.00  0.00    +0.018 C 
ATOM     14  C   UNL     1      -0.722   3.083  25.153  0.00  0.00    +0.077 C 
BRANCH  14  15
ATOM     15  C   UNL     1      -0.712   3.891  24.990  0.00  0.00    +0.131 C 
BRANCH  15  16
ATOM     16  N   UNL     1      -1.196   4.405  25.419  0.00  0.00    -0.081 NA
BRANCH  16  17
ATOM     17  S   UNL     1      -1.371   5.153  25.118  0.00  0.00    +0.059 S 
ATOM     18  C   UNL     1      -1.547   5.902  24.818  0.00  0.00    +0.197 C 
ATOM     19  O   UNL     1      -0.576   5.263  24.928  0.00  0.00    -0.156 OA
ATOM     20  O   UNL     1      -2.166   5.043  25.308  0.00  0.00    -0.156 OA
ENDBRANCH  16  17
ENDBRANCH  15  16
ENDBRANCH  14  15
ENDBRANCH   6   7
TORSDOF 5
ENDMDL
MODEL 4
REMARK VINA RESULT:     -11.3      3.558      4.530
REMARK  Name = 
REMARK  5 active torsions:
REMARK  status: ('A' for Active; 'I' for Inactive)
REMARK    1  A    between atoms: C_4  and  C_21
REMARK    2  A    between atoms: C_6  and  C_7
REMARK    3  A    between atoms: C_14  and  C_15
REMARK    4  A    between atoms: C_15  and  N_16
REMARK    5  A    between atoms: N_16  and  S_17
REMARK                            x       y       z     vdW  Elec       q    Type
REMARK                         _______ _______ _______ _____ _____    ______ ____
ROOT
ATOM      1  C   UNL     1      -0.979  -0.843  25.652  0.00  0.00    +0.153 C 
ATOM      2  N   UNL     1      -1.505  -0.351  25.249  0.00  0.00    -0.253 N 
ATOM      3  N   UNL     1      -2.296  -0.226  25.443  0.00  0.00    -0.170 NA
ATOM      4  C   UNL     1      -2.612   0.304  24.896  0.00  0.00    +0.102 A 
ATOM      5  C   UNL     1      -2.015   0.506  24.364  0.00  0.00    +0.035 A 
ATOM      6  C   UNL     1      -1.331   0.101  24.583  0.00  0.00    +0.058 A 
ENDROOT
BRANCH   4  21
ATOM     21  C   UNL     1      -3.388   0.583  24.883  0.00  0.00    +0.019 A 
ATOM     22  C   UNL     1      -3.544   1.375  25.056  0.00  0.00    +0.002 A 
ATOM     23  C   UNL     1      -4.321   1.655  25.043  0.00  0.00    +0.000 A 
ATOM     24  C   UNL     1      -4.940   1.142  24.857  0.00  0.00    +0.000 A 
ATOM     25  C   UNL     1      -5.717   1.421  24.843  0.00  0.00    +0.000 A 
ATOM     26  C   UNL     1      -5.874   2.213  25.017  0.00  0.00    +0.000 A 
ATOM     27  C   UNL     1      -5.254   2.724  25.203  0.00  0.00    +0.000 A 
ATOM     28  C   UNL     1      -4.478   2.445  25.216  0.00  0.00    +0.000 A 
ATOM     29  C   UNL     1      -4.784   0.350  24.683  0.00  0.00    +0.000 A 
ATOM     30  C   UNL     1      -4.007   0.071  24.697  0.00  0.00    +0.002 A 
ENDBRANCH   4  21
BRANCH   6   7
ATOM      7  C   UNL     1      -0.600   0.141  24.201  0.00  0.00    +0.056 C 
ATOM      8  C   UNL     1      -0.315  -0.521  23.908  0.00  0.00    +0.078 C 
ATOM      9  N   UNL     1       0.045   0.221  23.874  0.00  0.00    -0.272 NA
ATOM     10  C   UNL     1      -0.594   0.896  24.359  0.00  0.00    +0.072 C 
ATOM     11  C   UNL     1      -0.731   1.502  24.562  0.00  0.00    +0.018 C 
ATOM     12  C   UNL     1      -0.240   0.865  24.164  0.00  0.00    +0.010 C 
ATOM     13  C   UNL     1       0.521   1.128  23.813  0.00  0.00    +0.018 C 
ATOM     14  C   UNL     1       0.834   0.501  23.512  0.00  0.00    +0.077 C 
BRANCH  14  15
ATOM     15  C   UNL     1       1.497   0.233  23.101  0.00  0.00    +0.131 C 
BRANCH  15  16
ATOM     16  N   UNL     1       2.107   0.758  22.916  0.00  0.00    -0.081 NA
BRANCH  16  17
ATOM     17  S   UNL     1       2.828   0.469  22.636  0.00  0.00    +0.059 S 
ATOM     18  C   UNL     1       3.549   0.181  22.357  0.00  0.00    +0.197 C 
ATOM     19  O   UNL     1       2.428  -0.006  22.094  0.00  0.00    -0.156 OA
ATOM     20  O   UNL     1       3.228   0.945  23.179  0.00  0.00    -0.156 OA
ENDBRANCH  16  17
ENDBRANCH  15  16
ENDBRANCH  14  15
ENDBRANCH   6   7
TORSDOF 5
ENDMDL
MODEL 5
REMARK VINA RESULT:     -11.1      3.646      4.675
REMARK  Name = 
REMARK  5 active torsions:
REMARK  status: ('A' for Active; 'I' for Inactive)
REMARK    1  A    between atoms: C_4  and  C_21
REMARK    2  A    between atoms: C_6  and  C_7
REMARK    3  A    between atoms: C_14  and  C_15
REMARK    4  A    between atoms: C_15  and  N_16
REMARK    5  A    between atoms: N_16  and  S_17
REMARK                            x       y       z     vdW  Elec       q    Type
REMARK                         _______ _______ _______ _____ _____    ______ ____
ROOT
ATOM      1  C   UNL     1      -0.376   1.582  25.637  0.00  0.00    +0.153 C 
ATOM      2  N   UNL     1      -1.057   1.363  25.224  0.00  0.00    -0.253 N 
ATOM      3  N   UNL     1      -1.833   1.461  25.484  0.00  0.00    -0.170 NA
ATOM      4  C   UNL     1      -2.336   1.166  24.900  0.00  0.00    +0.102 A 
ATOM      5  C   UNL     1      -1.870   0.887  24.280  0.00  0.00    +0.035 A 
ATOM      6  C   UNL     1      -1.080   1.008  24.481  0.00  0.00    +0.058 A 
ENDROOT
BRANCH   4  21
ATOM     21  C   UNL     1      -3.161   1.153  24.931  0.00  0.00    +0.019 A 
ATOM     22  C   UNL     1      -3.584   1.861  24.922  0.00  0.00    +0.002 A 
ATOM     23  C   UNL     1      -4.410   1.849  24.953  0.00  0.00    +0.000 A 
ATOM     24  C   UNL     1      -4.809   1.128  24.994  0.00  0.00    +0.000 A 
ATOM     25  C   UNL     1      -5.634   1.115  25.025  0.00  0.00    +0.000 A 
ATOM     26  C   UNL     1      -6.058   1.823  25.015  0.00  0.00    +0.000 A 
ATOM     27  C   UNL     1      -5.657   2.543  24.975  0.00  0.00    +0.000 A 
ATOM     28  C   UNL     1      -4.833   2.556  24.944  0.00  0.00    +0.000 A 
ATOM     29  C   UNL     1      -4.386   0.420  25.003  0.00  0.00    +0.000 A 
ATOM     30  C   UNL     1      -3.560   0.433  24.972  0.00  0.00    +0.002 A 
ENDBRANCH   4  21
BRANCH   6   7
ATOM      7  C   UNL     1      -0.425   0.810  24.018  0.00  0.00    +0.056 C 
ATOM      8  C   UNL     1      -0.046   1.394  23.670  0.00  0.00    +0.078 C 
ATOM      9  N   UNL     1       0.143   0.592  23.620  0.00  0.00    -0.272 NA
ATOM     10  C   UNL     1      -0.559   0.072  24.200  0.00  0.00    +0.072 C 
ATOM     11  C   UNL     1      -0.794  -0.489  24.439  0.00  0.00    +0.018 C 
ATOM     12  C   UNL     1      -0.233   0.026  23.964  0.00  0.00    +0.010 C 
ATOM     13  C   UNL     1       0.407  -0.396  23.537  0.00  0.00    +0.018 C 
ATOM     14  C   UNL     1       0.806   0.147  23.179  0.00  0.00    +0.077 C 
BRANCH  14  15
ATOM     15  C   UNL     1       1.456   0.263  22.684  0.00  0.00    +0.131 C 
BRANCH  15  16
ATOM     16  N   UNL     1       2.196  -0.033  22.898  0.00  0.00    -0.081 NA
BRANCH  16  17
ATOM     17  S   UNL     1       2.869   0.201  22.483  0.00  0.00    +0.059 S 
ATOM     18  C   UNL     1       3.542   0.435  22.067  0.00  0.00    +0.197 C 
ATOM     19  O   UNL     1       3.211   0.466  23.185  0.00  0.00    -0.156 OA
ATOM     20  O   UNL     1       2.527  -0.064  21.781  0.00  0.00    -0.156 OA
ENDBRANCH  16  17
ENDBRANCH  15  16
ENDBRANCH  14  15
ENDBRANCH   6   7
TORSDOF 5
ENDMDL
MODEL 6
REMARK VINA RESULT:     -10.4      3.382      6.141
REMARK  Name = 
REMARK  5 active torsions:
REMARK  status: ('A' for Active; 'I' for Inactive)
REMARK    1  A    between atoms: C_4  and  C_21
REMARK    2  A    between atoms: C_6  and  C_7
REMARK    3  A    between atoms: C_14  and  C_15
REMARK    4  A    between atoms: C_15  and  N_16
REMARK    5  A    between atoms: N_16  and  S_17
REMARK                            x       y       z     vdW  Elec       q    Type
REMARK                         _______ _______ _______ _____ _____    ______ ____
ROOT
ATOM      1  C   UNL     1       0.258   0.202  23.878  0.00  0.00    +0.153 C 
ATOM      2  N   UNL     1      -0.244   0.802  24.142  0.00  0.00    -0.253 N 
ATOM      3  N   UNL     1      -0.061   1.606  24.176  0.00  0.00    -0.170 NA
ATOM      4  C   UNL     1      -0.719   2.004  24.473  0.00  0.00    +0.102 A 
ATOM      5  C   UNL     1      -1.308   1.446  24.622  0.00  0.00    +0.035 A 
ATOM      6  C   UNL     1      -1.014   0.704  24.417  0.00  0.00    +0.058 A 
ENDROOT
BRANCH   4  21
ATOM     21  C   UNL     1      -0.778   2.817  24.599  0.00  0.00    +0.019 A 
ATOM     22  C   UNL     1      -1.485   3.141  24.876  0.00  0.00    +0.002 A 
ATOM     23  C   UNL     1      -1.544   3.955  25.002  0.00  0.00    +0.000 A 
ATOM     24  C   UNL     1      -0.896   4.444  24.851  0.00  0.00    +0.000 A 
ATOM     25  C   UNL     1      -0.955   5.257  24.977  0.00  0.00    +0.000 A 
ATOM     26  C   UNL     1      -1.662   5.582  25.254  0.00  0.00    +0.000 A 
ATOM     27  C   UNL     1      -2.309   5.093  25.404  0.00  0.00    +0.000 A 
ATOM     28  C   UNL     1      -2.250   4.279  25.279  0.00  0.00    +0.000 A 
ATOM     29  C   UNL     1      -0.189   4.120  24.574  0.00  0.00    +0.000 A 
ATOM     30  C   UNL     1      -0.131   3.306  24.448  0.00  0.00    +0.002 A 
ENDBRANCH   4  21
BRANCH   6   7
ATOM      7  C   UNL     1      -1.420  -0.012  24.477  0.00  0.00    +0.056 C 
ATOM      8  C   UNL     1      -1.649  -0.348  23.814  0.00  0.00    +0.078 C 
ATOM      9  N   UNL     1      -1.773  -0.641  24.575  0.00  0.00    -0.272 NA
ATOM     10  C   UNL     1      -1.344   0.045  25.243  0.00  0.00    +0.072 C 
ATOM     11  C   UNL     1      -1.203   0.230  25.854  0.00  0.00    +0.018 C 
ATOM     12  C   UNL     1      -1.546  -0.306  25.221  0.00  0.00    +0.010 C 
ATOM     13  C   UNL     1      -1.945  -1.034  25.507  0.00  0.00    +0.018 C 
ATOM     14  C   UNL     1      -2.186  -1.395  24.880  0.00  0.00    +0.077 C 
BRANCH  14  15
ATOM     15  C   UNL     1      -2.586  -2.070  24.627  0.00  0.00    +0.131 C 
BRANCH  15  16
ATOM     16  N   UNL     1      -3.405  -2.123  24.718  0.00  0.00    -0.081 NA
BRANCH  16  17
ATOM     17  S   UNL     1      -3.829  -2.700  24.307  0.00  0.00    +0.059 S 
ATOM     18  C   UNL     1      -4.254  -3.275  23.896  0.00  0.00    +0.197 C 
ATOM     19  O   UNL     1      -3.386  -3.289  24.676  0.00  0.00    -0.156 OA
ATOM     20  O   UNL     1      -4.272  -2.109  23.939  0.00  0.00    -0.156 OA
ENDBRANCH  16  17
ENDBRANCH  15  16
ENDBRANCH  14  15
ENDBRANCH   6   7
TORSDOF 5
ENDMDL
