REMARK  Name = 
REMARK  7 active torsions:
REMARK  status: ('A' for Active; 'I' for Inactive)
REMARK    1  A    between atoms: C_2  and  C_4
REMARK    2  A    between atoms: C_6  and  C_7
REMARK    3  A    between atoms: C_7  and  C_8
REMARK    4  A    between atoms: N_10  and  C_11
REMARK    5  A    between atoms: C_11  and  C_12
REMARK    6  A    between atoms: C_21  and  C_22
REMARK    7  A    between atoms: C_22  and  N_23
REMARK                            x       y       z     vdW  Elec       q    Type
REMARK                         _______ _______ _______ _____ _____    ______ ____
ROOT
ATOM      4  C   UNL     1      -2.858  -2.475   0.000  0.00  0.00    +0.006 C 
ATOM      5  C   UNL     1      -2.143  -2.062   0.000  0.00  0.00    +0.005 C 
ATOM      6  C   UNL     1      -1.429  -2.475   0.000  0.00  0.00    +0.027 C 
ATOM     18  C   UNL     1      -1.429  -3.300   0.000  0.00  0.00    -0.048 C 
ATOM     19  C   UNL     1      -0.715  -3.712   0.000  0.00  0.00    +0.026 C 
ATOM     20  C   UNL     1      -2.143  -3.712   0.000  0.00  0.00    -0.033 C 
ATOM     21  C   UNL     1      -2.858  -3.300   0.000  0.00  0.00    +0.043 C 
ENDROOT
BRANCH   4   2
ATOM      1  C   UNL     1      -4.287  -2.475   0.000  0.00  0.00    +0.000 C 
ATOM      2  C   UNL     1      -3.572  -2.062   0.000  0.00  0.00    +0.000 C 
ATOM      3  C   UNL     1      -3.572  -1.238   0.000  0.00  0.00    +0.000 C 
ENDBRANCH   4   2
BRANCH   6   7
ATOM      7  C   UNL     1      -0.715  -2.062   0.000  0.00  0.00    +0.091 C 
BRANCH   7   8
ATOM      8  C   UNL     1       0.000  -2.475   0.000  0.00  0.00    +0.242 C 
ATOM      9  O   UNL     1       0.000  -3.300   0.000  0.00  0.00    -0.273 OA
ATOM     10  N   UNL     1       0.715  -2.062   0.000  0.00  0.00    -0.200 NA
BRANCH  10  11
ATOM     11  C   UNL     1       1.429  -2.475   0.000  0.00  0.00    +0.143 C 
BRANCH  11  12
ATOM     12  C   UNL     1       2.143  -2.062   0.000  0.00  0.00    +0.019 A 
ATOM     13  C   UNL     1       2.143  -1.238   0.000  0.00  0.00    +0.001 A 
ATOM     14  C   UNL     1       2.858  -0.825   0.000  0.00  0.00    +0.020 A 
ATOM     15  C   UNL     1       3.572  -1.238   0.000  0.00  0.00    +0.099 A 
ATOM     16  N   UNL     1       3.572  -2.062   0.000  0.00  0.00    -0.243 NA
ATOM     17  C   UNL     1       2.858  -2.475   0.000  0.00  0.00    +0.096 A 
ENDBRANCH  11  12
ENDBRANCH  10  11
ENDBRANCH   7   8
ENDBRANCH   6   7
BRANCH  21  22
ATOM     22  C   UNL     1      -3.572  -3.712   0.000  0.00  0.00    +0.119 C 
BRANCH  22  23
ATOM     23  N   UNL     1      -3.572  -4.537   0.000  0.00  0.00    -0.205 NA
ATOM     24  C   UNL     1      -4.287  -4.950   0.000  0.00  0.00    +0.242 C 
ATOM     25  C   UNL     1      -4.287  -5.775   0.000  0.00  0.00    +0.096 C 
ATOM     26  O   UNL     1      -5.001  -4.537   0.000  0.00  0.00    -0.273 OA
ENDBRANCH  22  23
ENDBRANCH  21  22
TORSDOF 7
