MODEL 1
REMARK VINA RESULT:     -15.8      0.000      0.000
REMARK  Name = 
REMARK  3 active torsions:
REMARK  status: ('A' for Active; 'I' for Inactive)
REMARK    1  A    between atoms: O_2  and  C_3
REMARK    2  A    between atoms: C_6  and  C_9
REMARK    3  A    between atoms: N_21  and  C_22
REMARK                            x       y       z     vdW  Elec       q    Type
REMARK                         _______ _______ _______ _____ _____    ______ ____
ROOT
ATOM      9  C   UNL     1      -3.592   0.161  24.260  0.00  0.00    +0.056 A 
ATOM     10  C   UNL     1      -4.304  -0.228  24.110  0.00  0.00    +0.006 A 
ATOM     11  C   UNL     1      -4.341  -1.051  24.148  0.00  0.00    +0.013 A 
ATOM     12  C   UNL     1      -3.666  -1.485  24.337  0.00  0.00    +0.041 A 
ATOM     13  C   UNL     1      -3.385  -2.352  24.455  0.00  0.00    +0.058 C 
ATOM     14  C   UNL     1      -3.619  -3.014  24.437  0.00  0.00    +0.011 C 
ATOM     15  C   UNL     1      -2.917  -2.627  24.584  0.00  0.00    +0.043 C 
ATOM     16  C   UNL     1      -1.992  -2.348  24.792  0.00  0.00    +0.097 C 
ATOM     17  N   UNL     1      -2.077  -1.520  24.724  0.00  0.00    -0.262 N 
ATOM     18  C   UNL     1      -2.487  -2.099  24.658  0.00  0.00    +0.101 C 
ATOM     19  C   UNL     1      -1.868  -0.721  24.728  0.00  0.00    +0.327 C 
ATOM     20  O   UNL     1      -2.434  -0.145  24.558  0.00  0.00    -0.250 OA
ATOM     21  N   UNL     1      -1.093  -0.500  24.903  0.00  0.00    -0.162 NA
ATOM     28  C   UNL     1      -3.201  -1.718  24.463  0.00  0.00    +0.110 C 
ATOM     29  N   UNL     1      -2.954  -1.097  24.487  0.00  0.00    -0.299 N 
ATOM     30  C   UNL     1      -2.917  -0.273  24.448  0.00  0.00    +0.261 A 
ATOM     31  O   UNL     1      -2.353   0.320  24.551  0.00  0.00    -0.267 OA
ENDROOT
BRANCH   9   6
ATOM      3  C   UNL     1      -3.484   2.630  24.145  0.00  0.00    +0.139 A 
ATOM      4  C   UNL     1      -3.316   2.180  23.475  0.00  0.00    +0.037 A 
ATOM      5  C   UNL     1      -3.352   1.355  23.513  0.00  0.00    +0.003 A 
ATOM      6  C   UNL     1      -3.556   0.984  24.221  0.00  0.00    +0.005 A 
ATOM      7  C   UNL     1      -3.723   1.436  24.891  0.00  0.00    +0.003 A 
ATOM      8  C   UNL     1      -3.688   2.259  24.853  0.00  0.00    +0.037 A 
BRANCH   3   2
ATOM      1  C   UNL     1      -3.563   3.903  24.788  0.00  0.00    +0.252 C 
ATOM      2  O   UNL     1      -3.448   3.455  24.107  0.00  0.00    -0.471 OA
ENDBRANCH   3   2
ENDBRANCH   9   6
BRANCH  21  22
ATOM     22  C   UNL     1      -0.883   0.298  24.908  0.00  0.00    +0.075 A 
ATOM     23  C   UNL     1      -0.951   0.739  25.603  0.00  0.00    +0.017 A 
ATOM     24  C   UNL     1      -0.741   1.537  25.607  0.00  0.00    +0.001 A 
ATOM     25  C   UNL     1      -0.464   1.894  24.916  0.00  0.00    +0.000 A 
ATOM     26  C   UNL     1      -0.396   1.454  24.223  0.00  0.00    +0.001 A 
ATOM     27  C   UNL     1      -0.605   0.656  24.218  0.00  0.00    +0.017 A 
ENDBRANCH  21  22
TORSDOF 3
ENDMDL
MODEL 2
REMARK VINA RESULT:     -15.7      1.470      3.840
REMARK  Name = 
REMARK  3 active torsions:
REMARK  status: ('A' for Active; 'I' for Inactive)
REMARK    1  A    between atoms: O_2  and  C_3
REMARK    2  A    between atoms: C_6  and  C_9
REMARK    3  A    between atoms: N_21  and  C_22
REMARK                            x       y       z     vdW  Elec       q    Type
REMARK                         _______ _______ _______ _____ _____    ______ ____
ROOT
ATOM      9  C   UNL     1      -4.353   0.781  24.872  0.00  0.00    +0.056 A 
ATOM     10  C   UNL     1      -5.153   0.970  24.944  0.00  0.00    +0.006 A 
ATOM     11  C   UNL     1      -5.382   1.751  25.076  0.00  0.00    +0.013 A 
ATOM     12  C   UNL     1      -4.811   2.343  25.136  0.00  0.00    +0.041 A 
ATOM     13  C   UNL     1      -4.733   3.249  25.271  0.00  0.00    +0.058 C 
ATOM     14  C   UNL     1      -5.121   3.824  25.380  0.00  0.00    +0.011 C 
ATOM     15  C   UNL     1      -4.332   3.634  25.309  0.00  0.00    +0.043 C 
ATOM     16  C   UNL     1      -3.346   3.605  25.251  0.00  0.00    +0.097 C 
ATOM     17  N   UNL     1      -3.237   2.787  25.120  0.00  0.00    -0.262 N 
ATOM     18  C   UNL     1      -3.780   3.238  25.218  0.00  0.00    +0.101 C 
ATOM     19  C   UNL     1      -2.842   2.075  24.989  0.00  0.00    +0.327 C 
ATOM     20  O   UNL     1      -3.271   1.374  24.904  0.00  0.00    -0.250 OA
ATOM     21  N   UNL     1      -2.019   2.062  24.943  0.00  0.00    -0.162 NA
ATOM     28  C   UNL     1      -4.402   2.687  25.167  0.00  0.00    +0.110 C 
ATOM     29  N   UNL     1      -4.011   2.154  25.064  0.00  0.00    -0.299 N 
ATOM     30  C   UNL     1      -3.782   1.373  24.932  0.00  0.00    +0.261 A 
ATOM     31  O   UNL     1      -3.082   0.948  24.829  0.00  0.00    -0.267 OA
ENDROOT
BRANCH   9   6
ATOM      3  C   UNL     1      -3.669  -1.564  24.473  0.00  0.00    +0.139 A 
ATOM      4  C   UNL     1      -3.727  -1.278  25.244  0.00  0.00    +0.037 A 
ATOM      5  C   UNL     1      -3.955  -0.495  25.377  0.00  0.00    +0.003 A 
ATOM      6  C   UNL     1      -4.125  -0.001  24.739  0.00  0.00    +0.005 A 
ATOM      7  C   UNL     1      -4.066  -0.288  23.968  0.00  0.00    +0.003 A 
ATOM      8  C   UNL     1      -3.838  -1.069  23.835  0.00  0.00    +0.037 A 
BRANCH   3   2
ATOM      1  C   UNL     1      -3.317  -2.853  24.978  0.00  0.00    +0.252 C 
ATOM      2  O   UNL     1      -3.440  -2.346  24.340  0.00  0.00    -0.471 OA
ENDBRANCH   3   2
ENDBRANCH   9   6
BRANCH  21  22
ATOM     22  C   UNL     1      -1.623   1.349  24.812  0.00  0.00    +0.075 A 
ATOM     23  C   UNL     1      -1.461   1.103  24.041  0.00  0.00    +0.017 A 
ATOM     24  C   UNL     1      -1.066   0.391  23.911  0.00  0.00    +0.001 A 
ATOM     25  C   UNL     1      -0.833  -0.076  24.551  0.00  0.00    +0.000 A 
ATOM     26  C   UNL     1      -0.996   0.171  25.321  0.00  0.00    +0.001 A 
ATOM     27  C   UNL     1      -1.391   0.883  25.452  0.00  0.00    +0.017 A 
ENDBRANCH  21  22
TORSDOF 3
ENDMDL
MODEL 3
REMARK VINA RESULT:     -15.5      1.541      4.047
REMARK  Name = 
REMARK  3 active torsions:
REMARK  status: ('A' for Active; 'I' for Inactive)
REMARK    1  A    between atoms: O_2  and  C_3
REMARK    2  A    between atoms: C_6  and  C_9
REMARK    3  A    between atoms: N_21  and  C_22
REMARK                            x       y       z     vdW  Elec       q    Type
REMARK                         _______ _______ _______ _____ _____    ______ ____
ROOT
ATOM      9  C   UNL     1      -2.769   1.992  24.842  0.00  0.00    +0.056 A 
ATOM     10  C   UNL     1      -2.686   2.813  24.878  0.00  0.00    +0.006 A 
ATOM     11  C   UNL     1      -3.344   3.288  25.023  0.00  0.00    +0.013 A 
ATOM     12  C   UNL     1      -4.085   2.943  25.132  0.00  0.00    +0.041 A 
ATOM     13  C   UNL     1      -4.960   3.170  25.300  0.00  0.00    +0.058 C 
ATOM     14  C   UNL     1      -5.373   3.727  25.407  0.00  0.00    +0.011 C 
ATOM     15  C   UNL     1      -5.452   2.917  25.371  0.00  0.00    +0.043 C 
ATOM     16  C   UNL     1      -5.746   1.974  25.365  0.00  0.00    +0.097 C 
ATOM     17  N   UNL     1      -5.014   1.600  25.214  0.00  0.00    -0.262 N 
ATOM     18  C   UNL     1      -5.260   2.263  25.297  0.00  0.00    +0.101 C 
ATOM     19  C   UNL     1      -4.474   0.990  25.081  0.00  0.00    +0.327 C 
ATOM     20  O   UNL     1      -3.678   1.164  24.952  0.00  0.00    -0.250 OA
ATOM     21  N   UNL     1      -4.731   0.206  25.079  0.00  0.00    -0.162 NA
ATOM     28  C   UNL     1      -4.541   2.671  25.196  0.00  0.00    +0.110 C 
ATOM     29  N   UNL     1      -4.168   2.123  25.097  0.00  0.00    -0.299 N 
ATOM     30  C   UNL     1      -3.510   1.648  24.952  0.00  0.00    +0.261 A 
ATOM     31  O   UNL     1      -3.340   0.845  24.873  0.00  0.00    -0.267 OA
ENDROOT
BRANCH   9   6
ATOM      3  C   UNL     1      -0.793   0.568  24.406  0.00  0.00    +0.139 A 
ATOM      4  C   UNL     1      -1.002   0.755  25.182  0.00  0.00    +0.037 A 
ATOM      5  C   UNL     1      -1.662   1.230  25.327  0.00  0.00    +0.003 A 
ATOM      6  C   UNL     1      -2.110   1.518  24.698  0.00  0.00    +0.005 A 
ATOM      7  C   UNL     1      -1.900   1.330  23.922  0.00  0.00    +0.003 A 
ATOM      8  C   UNL     1      -1.241   0.856  23.776  0.00  0.00    +0.037 A 
BRANCH   3   2
ATOM      1  C   UNL     1       0.130  -0.020  23.488  0.00  0.00    +0.252 C 
ATOM      2  O   UNL     1      -0.133   0.093  24.260  0.00  0.00    -0.471 OA
ENDBRANCH   3   2
ENDBRANCH   9   6
BRANCH  21  22
ATOM     22  C   UNL     1      -4.191  -0.404  24.946  0.00  0.00    +0.075 A 
ATOM     23  C   UNL     1      -3.790  -0.746  25.582  0.00  0.00    +0.017 A 
ATOM     24  C   UNL     1      -3.251  -1.356  25.449  0.00  0.00    +0.001 A 
ATOM     25  C   UNL     1      -3.112  -1.624  24.681  0.00  0.00    +0.000 A 
ATOM     26  C   UNL     1      -3.512  -1.282  24.047  0.00  0.00    +0.001 A 
ATOM     27  C   UNL     1      -4.051  -0.672  24.178  0.00  0.00    +0.017 A 
ENDBRANCH  21  22
TORSDOF 3
ENDMDL
MODEL 4
REMARK VINA RESULT:     -15.4      0.827      2.553
REMARK  Name = 
REMARK  3 active torsions:
REMARK  status: ('A' for Active; 'I' for Inactive)
REMARK    1  A    between atoms: O_2  and  C_3
REMARK    2  A    between atoms: C_6  and  C_9
REMARK    3  A    between atoms: N_21  and  C_22
REMARK                            x       y       z     vdW  Elec       q    Type
REMARK                         _______ _______ _______ _____ _____    ______ ____
ROOT
ATOM      9  C   UNL     1      -1.657  -0.542  24.829  0.00  0.00    +0.056 A 
ATOM     10  C   UNL     1      -1.327  -1.279  24.998  0.00  0.00    +0.006 A 
ATOM     11  C   UNL     1      -1.778  -1.964  24.908  0.00  0.00    +0.013 A 
ATOM     12  C   UNL     1      -2.559  -1.911  24.648  0.00  0.00    +0.041 A 
ATOM     13  C   UNL     1      -3.284  -2.442  24.455  0.00  0.00    +0.058 C 
ATOM     14  C   UNL     1      -3.487  -3.113  24.444  0.00  0.00    +0.011 C 
ATOM     15  C   UNL     1      -3.810  -2.384  24.278  0.00  0.00    +0.043 C 
ATOM     16  C   UNL     1      -4.370  -1.608  24.030  0.00  0.00    +0.097 C 
ATOM     17  N   UNL     1      -3.820  -0.992  24.159  0.00  0.00    -0.262 N 
ATOM     18  C   UNL     1      -3.838  -1.702  24.212  0.00  0.00    +0.101 C 
ATOM     19  C   UNL     1      -3.519  -0.225  24.194  0.00  0.00    +0.327 C 
ATOM     20  O   UNL     1      -2.740  -0.098  24.438  0.00  0.00    -0.250 OA
ATOM     21  N   UNL     1      -3.995   0.415  23.985  0.00  0.00    -0.162 NA
ATOM     28  C   UNL     1      -3.058  -1.822  24.477  0.00  0.00    +0.110 C 
ATOM     29  N   UNL     1      -2.889  -1.174  24.479  0.00  0.00    -0.299 N 
ATOM     30  C   UNL     1      -2.438  -0.489  24.570  0.00  0.00    +0.261 A 
ATOM     31  O   UNL     1      -2.532   0.324  24.471  0.00  0.00    -0.267 OA
ENDROOT
BRANCH   9   6
ATOM      3  C   UNL     1      -0.302   1.511  25.105  0.00  0.00    +0.139 A 
ATOM      4  C   UNL     1      -0.302   1.111  24.383  0.00  0.00    +0.037 A 
ATOM      5  C   UNL     1      -0.754   0.426  24.291  0.00  0.00    +0.003 A 
ATOM      6  C   UNL     1      -1.205   0.142  24.921  0.00  0.00    +0.005 A 
ATOM      7  C   UNL     1      -1.205   0.543  25.642  0.00  0.00    +0.003 A 
ATOM      8  C   UNL     1      -0.753   1.227  25.734  0.00  0.00    +0.037 A 
BRANCH   3   2
ATOM      1  C   UNL     1       0.107   2.626  25.898  0.00  0.00    +0.252 C 
ATOM      2  O   UNL     1       0.150   2.196  25.196  0.00  0.00    -0.471 OA
ENDBRANCH   3   2
ENDBRANCH   9   6
BRANCH  21  22
ATOM     22  C   UNL     1      -3.693   1.183  24.020  0.00  0.00    +0.075 A 
ATOM     23  C   UNL     1      -3.312   1.507  23.364  0.00  0.00    +0.017 A 
ATOM     24  C   UNL     1      -3.011   2.274  23.399  0.00  0.00    +0.001 A 
ATOM     25  C   UNL     1      -3.091   2.717  24.091  0.00  0.00    +0.000 A 
ATOM     26  C   UNL     1      -3.472   2.393  24.746  0.00  0.00    +0.001 A 
ATOM     27  C   UNL     1      -3.773   1.626  24.712  0.00  0.00    +0.017 A 
ENDBRANCH  21  22
TORSDOF 3
ENDMDL
MODEL 5
REMARK VINA RESULT:     -15.1      2.139      3.732
REMARK  Name = 
REMARK  3 active torsions:
REMARK  status: ('A' for Active; 'I' for Inactive)
REMARK    1  A    between atoms: O_2  and  C_3
REMARK    2  A    between atoms: C_6  and  C_9
REMARK    3  A    between atoms: N_21  and  C_22
REMARK                            x       y       z     vdW  Elec       q    Type
REMARK                         _______ _______ _______ _____ _____    ______ ____
ROOT
ATOM      9  C   UNL     1      -3.250   1.227  24.570  0.00  0.00    +0.056 A 
ATOM     10  C   UNL     1      -3.785   0.622  24.403  0.00  0.00    +0.006 A 
ATOM     11  C   UNL     1      -4.590   0.732  24.546  0.00  0.00    +0.013 A 
ATOM     12  C   UNL     1      -4.860   1.448  24.855  0.00  0.00    +0.041 A 
ATOM     13  C   UNL     1      -5.636   1.866  25.114  0.00  0.00    +0.058 C 
ATOM     14  C   UNL     1      -6.329   1.762  25.160  0.00  0.00    +0.011 C 
ATOM     15  C   UNL     1      -5.798   2.357  25.323  0.00  0.00    +0.043 C 
ATOM     16  C   UNL     1      -5.321   3.183  25.582  0.00  0.00    +0.097 C 
ATOM     17  N   UNL     1      -4.538   2.956  25.397  0.00  0.00    -0.262 N 
ATOM     18  C   UNL     1      -5.190   2.671  25.368  0.00  0.00    +0.101 C 
ATOM     19  C   UNL     1      -3.719   3.014  25.317  0.00  0.00    +0.327 C 
ATOM     20  O   UNL     1      -3.287   2.377  25.018  0.00  0.00    -0.250 OA
ATOM     21  N   UNL     1      -3.331   3.708  25.537  0.00  0.00    -0.162 NA
ATOM     28  C   UNL     1      -4.981   1.928  25.056  0.00  0.00    +0.110 C 
ATOM     29  N   UNL     1      -4.325   2.053  25.022  0.00  0.00    -0.299 N 
ATOM     30  C   UNL     1      -3.520   1.943  24.879  0.00  0.00    +0.261 A 
ATOM     31  O   UNL     1      -2.819   2.371  24.957  0.00  0.00    -0.267 OA
ENDROOT
BRANCH   9   6
ATOM      3  C   UNL     1      -0.836   0.896  24.139  0.00  0.00    +0.139 A 
ATOM      4  C   UNL     1      -1.156   0.686  24.869  0.00  0.00    +0.037 A 
ATOM      5  C   UNL     1      -1.962   0.797  25.013  0.00  0.00    +0.003 A 
ATOM      6  C   UNL     1      -2.446   1.117  24.427  0.00  0.00    +0.005 A 
ATOM      7  C   UNL     1      -2.124   1.326  23.696  0.00  0.00    +0.003 A 
ATOM      8  C   UNL     1      -1.320   1.215  23.552  0.00  0.00    +0.037 A 
BRANCH   3   2
ATOM      1  C   UNL     1       0.224   0.134  23.558  0.00  0.00    +0.252 C 
ATOM      2  O   UNL     1      -0.030   0.785  23.995  0.00  0.00    -0.471 OA
ENDBRANCH   3   2
ENDBRANCH   9   6
BRANCH  21  22
ATOM     22  C   UNL     1      -2.512   3.766  25.457  0.00  0.00    +0.075 A 
ATOM     23  C   UNL     1      -2.018   3.516  26.070  0.00  0.00    +0.017 A 
ATOM     24  C   UNL     1      -1.200   3.575  25.989  0.00  0.00    +0.001 A 
ATOM     25  C   UNL     1      -0.873   3.882  25.296  0.00  0.00    +0.000 A 
ATOM     26  C   UNL     1      -1.367   4.131  24.684  0.00  0.00    +0.001 A 
ATOM     27  C   UNL     1      -2.185   4.073  24.763  0.00  0.00    +0.017 A 
ENDBRANCH  21  22
TORSDOF 3
ENDMDL
