REMARK  Name = 
REMARK  6 active torsions:
REMARK  status: ('A' for Active; 'I' for Inactive)
REMARK    1  A    between atoms: N_2  and  C_3
REMARK    2  A    between atoms: C_3  and  C_4
REMARK    3  A    between atoms: C_6  and  C_8
REMARK    4  A    between atoms: C_15  and  C_16
REMARK    5  A    between atoms: C_16  and  N_17
REMARK    6  A    between atoms: C_19  and  C_22
REMARK                            x       y       z     vdW  Elec       q    Type
REMARK                         _______ _______ _______ _____ _____    ______ ____
ROOT
ATOM      8  C   UNL     1       1.661  -1.343   0.000  0.00  0.00    +0.093 C 
ATOM      9  C   UNL     1       1.814  -2.106   0.000  0.00  0.00    +0.081 C 
ATOM     10  N   UNL     1       1.065  -1.759   0.000  0.00  0.00    -0.272 NA
ATOM     11  C   UNL     1       1.205  -0.720   0.000  0.00  0.00    +0.072 C 
ATOM     12  C   UNL     1       0.961  -0.114   0.000  0.00  0.00    +0.018 C 
ATOM     13  C   UNL     1       0.923  -1.010   0.000  0.00  0.00    +0.013 C 
ATOM     14  C   UNL     1       0.119  -1.362   0.000  0.00  0.00    +0.019 C 
ATOM     15  C   UNL     1       0.226  -2.118   0.000  0.00  0.00    +0.082 C 
ENDROOT
BRANCH   8   6
ATOM      1  C   UNL     1       1.416   0.289   0.000  0.00  0.00    +0.115 C 
ATOM      2  N   UNL     1       2.184  -0.013   0.000  0.00  0.00    -0.274 N 
ATOM      6  C   UNL     1       2.307  -0.828   0.000  0.00  0.00    +0.227 C 
ATOM      7  O   UNL     1       3.075  -1.130   0.000  0.00  0.00    -0.275 OA
BRANCH   2   3
ATOM      3  C   UNL     1       2.829   0.501   0.000  0.00  0.00    +0.120 C 
BRANCH   3   4
ATOM      4  C   UNL     1       2.707   1.317   0.000  0.00  0.00    -0.005 C 
ATOM      5  C   UNL     1       3.352   1.831   0.000  0.00  0.00    -0.003 C 
ENDBRANCH   3   4
ENDBRANCH   2   3
ENDBRANCH   8   6
BRANCH  15  16
ATOM     16  C   UNL     1      -0.179  -2.836   0.000  0.00  0.00    +0.145 C 
BRANCH  16  17
ATOM     17  N   UNL     1      -1.004  -2.845   0.000  0.00  0.00    -0.229 N 
ATOM     18  C   UNL     1      -1.481  -3.518   0.000  0.00  0.00    +0.118 A 
ATOM     19  C   UNL     1      -2.269  -3.271   0.000  0.00  0.00    +0.123 A 
ATOM     20  N   UNL     1      -2.277  -2.446   0.000  0.00  0.00    -0.129 NA
ATOM     21  N   UNL     1      -1.496  -2.183   0.000  0.00  0.00    -0.064 NA
BRANCH  19  22
ATOM     22  C   UNL     1      -2.931  -3.763   0.000  0.00  0.00    +0.024 A 
ATOM     23  C   UNL     1      -2.836  -4.583   0.000  0.00  0.00    +0.044 A 
ATOM     24  C   UNL     1      -3.498  -5.075   0.000  0.00  0.00    +0.196 A 
ATOM     25  O   UNL     1      -3.403  -5.894   0.000  0.00  0.00    -0.287 OA
ATOM     26  C   UNL     1      -4.255  -4.747   0.000  0.00  0.00    +0.042 A 
ATOM     27  C   UNL     1      -4.350  -3.928   0.000  0.00  0.00    +0.003 A 
ATOM     28  C   UNL     1      -3.688  -3.436   0.000  0.00  0.00    +0.002 A 
ENDBRANCH  19  22
ENDBRANCH  16  17
ENDBRANCH  15  16
TORSDOF 6
