REMARK  Name = 
REMARK  11 active torsions:
REMARK  status: ('A' for Active; 'I' for Inactive)
REMARK    1  A    between atoms: C_2  and  C_4
REMARK    2  A    between atoms: C_4  and  C_5
REMARK    3  A    between atoms: C_5  and  N_6
REMARK    4  A    between atoms: C_7  and  C_9
REMARK    5  A    between atoms: C_11  and  N_23
REMARK    6  A    between atoms: C_15  and  C_17
REMARK    7  A    between atoms: C_17  and  O_18
REMARK    8  A    between atoms: O_18  and  C_19
REMARK    9  A    between atoms: C_19  and  C_20
REMARK   10  A    between atoms: N_23  and  S_24
REMARK   11  A    between atoms: S_24  and  C_27
REMARK                            x       y       z     vdW  Elec       q    Type
REMARK                         _______ _______ _______ _____ _____    ______ ____
ROOT
ATOM      9  C   UNL     1       0.715  -0.412   0.000  0.00  0.00    +0.155 C 
ATOM     10  C   UNL     1       0.000   0.000   0.000  0.00  0.00    +0.049 C 
ATOM     11  C   UNL     1       0.000   0.825   0.000  0.00  0.00    +0.102 C 
ATOM     12  C   UNL     1       0.715   1.238   0.000  0.00  0.00    +0.041 C 
ATOM     13  C   UNL     1       1.429   0.825   0.000  0.00  0.00    +0.095 C 
ATOM     14  N   UNL     1       1.429   0.000   0.000  0.00  0.00    -0.271 N 
ATOM     15  C   UNL     1       2.143  -0.412   0.000  0.00  0.00    +0.256 C 
ATOM     16  O   UNL     1       2.143  -1.238   0.000  0.00  0.00    -0.272 OA
ENDROOT
BRANCH   9   7
ATOM      6  N   UNL     1       1.429  -1.650   0.000  0.00  0.00    -0.204 NA
ATOM      7  C   UNL     1       0.715  -1.238   0.000  0.00  0.00    +0.260 C 
ATOM      8  O   UNL     1       0.000  -1.650   0.000  0.00  0.00    -0.272 OA
BRANCH   6   5
ATOM      5  C   UNL     1       1.429  -2.475   0.000  0.00  0.00    +0.125 C 
BRANCH   5   4
ATOM      4  C   UNL     1       2.143  -2.888   0.000  0.00  0.00    +0.112 C 
BRANCH   4   2
ATOM      1  N   UNL     1       2.858  -4.125   0.000  0.00  0.00    -0.088 NA
ATOM      2  C   UNL     1       2.143  -3.712   0.000  0.00  0.00    +0.263 C 
ATOM      3  O   UNL     1       1.429  -4.125   0.000  0.00  0.00    -0.272 OA
ENDBRANCH   4   2
ENDBRANCH   5   4
ENDBRANCH   6   5
ENDBRANCH   9   7
BRANCH  15  17
ATOM     17  C   UNL     1       2.858   0.000   0.000  0.00  0.00    +0.228 C 
BRANCH  17  18
ATOM     18  O   UNL     1       3.572  -0.412   0.000  0.00  0.00    -0.333 OA
BRANCH  18  19
ATOM     19  C   UNL     1       4.287   0.000   0.000  0.00  0.00    +0.257 C 
BRANCH  19  20
ATOM     20  C   UNL     1       5.001  -0.412   0.000  0.00  0.00    +0.394 C 
ATOM     21  O   UNL     1       5.716   0.000   0.000  0.00  0.00    -0.243 OA
ATOM     22  O   UNL     1       5.001  -1.238   0.000  0.00  0.00    -0.243 OA
ENDBRANCH  19  20
ENDBRANCH  18  19
ENDBRANCH  17  18
ENDBRANCH  15  17
BRANCH  11  23
ATOM     23  N   UNL     1      -0.715   1.238   0.000  0.00  0.00    -0.079 NA
BRANCH  23  24
ATOM     24  S   UNL     1      -0.715   2.062   0.000  0.00  0.00    +0.082 S 
ATOM     25  O   UNL     1       0.111   2.062   0.000  0.00  0.00    -0.151 OA
ATOM     26  O   UNL     1      -1.540   2.062   0.000  0.00  0.00    -0.151 OA
BRANCH  24  27
ATOM     27  C   UNL     1      -0.715   2.888   0.000  0.00  0.00    +0.153 A 
ATOM     28  C   UNL     1      -1.382   3.372   0.000  0.00  0.00    +0.027 A 
ATOM     29  C   UNL     1      -1.127   4.157   0.000  0.00  0.00    +0.009 A 
ATOM     30  C   UNL     1      -0.302   4.157   0.000  0.00  0.00    +0.037 A 
ATOM     31  S   UNL     1      -0.047   3.372   0.000  0.00  0.00    -0.067 S 
ENDBRANCH  24  27
ENDBRANCH  23  24
ENDBRANCH  11  23
TORSDOF 11
