MODEL 1
REMARK VINA RESULT:     -12.1      0.000      0.000
REMARK  Name = 
REMARK  5 active torsions:
REMARK  status: ('A' for Active; 'I' for Inactive)
REMARK    1  A    between atoms: C_2  and  C_3
REMARK    2  A    between atoms: C_10  and  C_11
REMARK    3  A    between atoms: C_11  and  N_12
REMARK    4  A    between atoms: N_15  and  C_16
REMARK    5  A    between atoms: C_18  and  C_22
REMARK                            x       y       z     vdW  Elec       q    Type
REMARK                         _______ _______ _______ _____ _____    ______ ____
ROOT
ATOM     12  N   UNL     1      -3.399   1.361  24.989  0.00  0.00    -0.185 NA
ATOM     13  C   UNL     1      -3.437   0.605  24.662  0.00  0.00    +0.344 C 
ATOM     14  O   UNL     1      -3.024   0.435  23.969  0.00  0.00    -0.249 OA
ATOM     15  N   UNL     1      -3.888   0.019  25.028  0.00  0.00    -0.161 NA
ENDROOT
BRANCH  15  16
ATOM     16  C   UNL     1      -3.925  -0.737  24.700  0.00  0.00    +0.075 A 
ATOM     17  C   UNL     1      -3.469  -1.347  25.016  0.00  0.00    +0.021 A 
ATOM     18  C   UNL     1      -3.506  -2.104  24.688  0.00  0.00    +0.073 A 
ATOM     19  C   UNL     1      -4.001  -2.250  24.044  0.00  0.00    +0.004 A 
ATOM     20  C   UNL     1      -4.457  -1.640  23.728  0.00  0.00    +0.001 A 
ATOM     21  C   UNL     1      -4.420  -0.884  24.056  0.00  0.00    +0.017 A 
BRANCH  18  22
ATOM     22  C   UNL     1      -3.049  -2.713  25.004  0.00  0.00    +0.419 C 
ATOM     23  F   UNL     1      -2.593  -3.324  25.321  0.00  0.00    -0.166 F 
ATOM     24  F   UNL     1      -2.484  -2.595  24.417  0.00  0.00    -0.166 F 
ATOM     25  F   UNL     1      -3.616  -2.833  25.593  0.00  0.00    -0.166 F 
ENDBRANCH  18  22
ENDBRANCH  15  16
BRANCH  12  11
ATOM     11  C   UNL     1      -2.948   1.947  24.624  0.00  0.00    +0.133 C 
BRANCH  11  10
ATOM      3  C   UNL     1      -1.973   4.043  25.147  0.00  0.00    +0.016 C 
ATOM      4  C   UNL     1      -1.604   3.590  24.633  0.00  0.00    +0.072 C 
ATOM      5  N   UNL     1      -2.311   3.412  25.020  0.00  0.00    -0.272 NA
ATOM      6  C   UNL     1      -2.537   4.225  25.642  0.00  0.00    +0.072 C 
ATOM      7  C   UNL     1      -2.927   4.515  26.078  0.00  0.00    +0.017 C 
ATOM      8  C   UNL     1      -2.667   3.860  25.523  0.00  0.00    +0.004 C 
ATOM      9  C   UNL     1      -3.190   3.157  25.484  0.00  0.00    +0.018 C 
ATOM     10  C   UNL     1      -2.860   2.684  24.984  0.00  0.00    +0.079 C 
BRANCH   3   2
ATOM      1  C   UNL     1      -0.938   5.006  24.940  0.00  0.00    +0.000 C 
ATOM      2  C   UNL     1      -1.628   4.772  25.325  0.00  0.00    +0.001 C 
ENDBRANCH   3   2
ENDBRANCH  11  10
ENDBRANCH  12  11
TORSDOF 5
ENDMDL
MODEL 2
REMARK VINA RESULT:     -11.9      2.811      5.835
REMARK  Name = 
REMARK  5 active torsions:
REMARK  status: ('A' for Active; 'I' for Inactive)
REMARK    1  A    between atoms: C_2  and  C_3
REMARK    2  A    between atoms: C_10  and  C_11
REMARK    3  A    between atoms: C_11  and  N_12
REMARK    4  A    between atoms: N_15  and  C_16
REMARK    5  A    between atoms: C_18  and  C_22
REMARK                            x       y       z     vdW  Elec       q    Type
REMARK                         _______ _______ _______ _____ _____    ______ ____
ROOT
ATOM     12  N   UNL     1      -2.987   1.277  24.514  0.00  0.00    -0.185 NA
ATOM     13  C   UNL     1      -2.756   1.951  24.931  0.00  0.00    +0.344 C 
ATOM     14  O   UNL     1      -2.339   1.874  25.638  0.00  0.00    -0.249 OA
ATOM     15  N   UNL     1      -2.941   2.700  24.640  0.00  0.00    -0.161 NA
ENDROOT
BRANCH  15  16
ATOM     16  C   UNL     1      -2.710   3.373  25.058  0.00  0.00    +0.075 A 
ATOM     17  C   UNL     1      -2.035   3.789  24.829  0.00  0.00    +0.021 A 
ATOM     18  C   UNL     1      -1.804   4.462  25.246  0.00  0.00    +0.073 A 
ATOM     19  C   UNL     1      -2.247   4.720  25.892  0.00  0.00    +0.004 A 
ATOM     20  C   UNL     1      -2.922   4.304  26.121  0.00  0.00    +0.001 A 
ATOM     21  C   UNL     1      -3.153   3.631  25.704  0.00  0.00    +0.017 A 
BRANCH  18  22
ATOM     22  C   UNL     1      -1.129   4.878  25.017  0.00  0.00    +0.419 C 
ATOM     23  F   UNL     1      -0.454   5.294  24.788  0.00  0.00    -0.166 F 
ATOM     24  F   UNL     1      -0.655   4.300  25.364  0.00  0.00    -0.166 F 
ATOM     25  F   UNL     1      -1.603   5.457  24.669  0.00  0.00    -0.166 F 
ENDBRANCH  18  22
ENDBRANCH  15  16
BRANCH  12  11
ATOM     11  C   UNL     1      -2.801   0.528  24.804  0.00  0.00    +0.133 C 
BRANCH  11  10
ATOM      3  C   UNL     1      -3.424  -1.749  24.592  0.00  0.00    +0.016 C 
ATOM      4  C   UNL     1      -2.835  -1.577  25.071  0.00  0.00    +0.072 C 
ATOM      5  N   UNL     1      -3.271  -1.039  24.623  0.00  0.00    -0.272 NA
ATOM      6  C   UNL     1      -3.987  -1.588  24.089  0.00  0.00    +0.072 C 
ATOM      7  C   UNL     1      -4.485  -1.612  23.668  0.00  0.00    +0.017 C 
ATOM      8  C   UNL     1      -3.847  -1.214  24.156  0.00  0.00    +0.004 C 
ATOM      9  C   UNL     1      -3.792  -0.341  24.081  0.00  0.00    +0.018 C 
ATOM     10  C   UNL     1      -3.220  -0.131  24.540  0.00  0.00    +0.079 C 
BRANCH   3   2
ATOM      1  C   UNL     1      -3.220  -3.119  24.943  0.00  0.00    +0.000 C 
ATOM      2  C   UNL     1      -3.636  -2.544  24.523  0.00  0.00    +0.001 C 
ENDBRANCH   3   2
ENDBRANCH  11  10
ENDBRANCH  12  11
TORSDOF 5
ENDMDL
