MODEL 1
REMARK VINA RESULT:     -11.3      0.000      0.000
REMARK  Name = 
REMARK  8 active torsions:
REMARK  status: ('A' for Active; 'I' for Inactive)
REMARK    1  A    between atoms: O_2  and  C_3
REMARK    2  A    between atoms: C_3  and  C_4
REMARK    3  A    between atoms: C_4  and  C_5
REMARK    4  A    between atoms: N_7  and  C_8
REMARK    5  A    between atoms: C_15  and  C_16
REMARK    6  A    between atoms: C_16  and  C_18
REMARK    7  A    between atoms: N_20  and  C_21
REMARK    8  A    between atoms: C_21  and  C_22
REMARK                            x       y       z     vdW  Elec       q    Type
REMARK                         _______ _______ _______ _____ _____    ______ ____
ROOT
ATOM      8  C   UNL     1      -4.177  -0.285  24.422  0.00  0.00    +0.095 C 
ATOM      9  C   UNL     1      -4.782  -0.363  24.976  0.00  0.00    +0.022 C 
ATOM     10  C   UNL     1      -5.160   0.308  25.273  0.00  0.00    +0.002 C 
ATOM     11  C   UNL     1      -4.932   1.057  25.015  0.00  0.00    +0.002 C 
ATOM     12  C   UNL     1      -5.538   0.978  25.571  0.00  0.00    +0.000 C 
ATOM     13  C   UNL     1      -5.310   1.729  25.312  0.00  0.00    +0.000 C 
ATOM     14  C   UNL     1      -5.081   2.478  25.054  0.00  0.00    +0.003 C 
ATOM     15  C   UNL     1      -4.476   2.557  24.500  0.00  0.00    +0.039 C 
ATOM     30  C   UNL     1      -4.099   1.886  24.203  0.00  0.00    +0.152 C 
ATOM     31  O   UNL     1      -3.493   1.965  23.648  0.00  0.00    -0.223 OA
ATOM     32  C   UNL     1      -4.327   1.136  24.461  0.00  0.00    +0.032 C 
ATOM     33  C   UNL     1      -3.949   0.466  24.164  0.00  0.00    +0.022 C 
ATOM     34  C   UNL     1      -3.344   0.545  23.609  0.00  0.00    +0.002 C 
ENDROOT
BRANCH   8   7
ATOM      5  C   UNL     1      -3.569  -1.559  24.638  0.00  0.00    +0.244 C 
ATOM      6  O   UNL     1      -3.716  -1.493  25.446  0.00  0.00    -0.273 OA
ATOM      7  N   UNL     1      -3.800  -0.955  24.125  0.00  0.00    -0.207 NA
BRANCH   5   4
ATOM      4  C   UNL     1      -3.191  -2.230  24.341  0.00  0.00    +0.119 C 
BRANCH   4   3
ATOM      3  C   UNL     1      -2.480  -2.484  24.675  0.00  0.00    +0.152 C 
BRANCH   3   2
ATOM      1  C   UNL     1      -1.102  -2.658  24.339  0.00  0.00    +0.174 C 
ATOM      2  O   UNL     1      -1.898  -2.822  24.197  0.00  0.00    -0.351 OA
ENDBRANCH   3   2
ENDBRANCH   4   3
ENDBRANCH   5   4
ENDBRANCH   8   7
BRANCH  15  16
ATOM     16  C   UNL     1      -4.248   3.306  24.242  0.00  0.00    +0.081 C 
ATOM     17  C   UNL     1      -4.425   3.550  23.474  0.00  0.00    +0.010 C 
BRANCH  16  18
ATOM     18  C   UNL     1      -3.842   3.812  24.753  0.00  0.00    +0.241 C 
ATOM     19  O   UNL     1      -4.259   4.280  25.287  0.00  0.00    -0.273 OA
ATOM     20  N   UNL     1      -3.017   3.848  24.728  0.00  0.00    -0.201 NA
BRANCH  20  21
ATOM     21  C   UNL     1      -2.612   4.354  25.239  0.00  0.00    +0.142 C 
BRANCH  21  22
ATOM     22  C   UNL     1      -1.788   4.380  25.223  0.00  0.00    +0.004 A 
ATOM     23  C   UNL     1      -1.403   5.038  24.906  0.00  0.00    +0.027 A 
ATOM     24  C   UNL     1      -0.579   5.065  24.890  0.00  0.00    +0.142 A 
ATOM     25  F   UNL     1      -0.194   5.723  24.573  0.00  0.00    -0.204 F 
ATOM     26  C   UNL     1      -0.139   4.435  25.190  0.00  0.00    +0.059 A 
ATOM     27  C   UNL     1      -0.524   3.778  25.506  0.00  0.00    +0.142 A 
ATOM     28  F   UNL     1      -0.083   3.146  25.806  0.00  0.00    -0.204 F 
ATOM     29  C   UNL     1      -1.348   3.750  25.523  0.00  0.00    +0.027 A 
ENDBRANCH  21  22
ENDBRANCH  20  21
ENDBRANCH  16  18
ENDBRANCH  15  16
TORSDOF 8
ENDMDL
MODEL 2
REMARK VINA RESULT:     -10.8      2.571      5.789
REMARK  Name = 
REMARK  8 active torsions:
REMARK  status: ('A' for Active; 'I' for Inactive)
REMARK    1  A    between atoms: O_2  and  C_3
REMARK    2  A    between atoms: C_3  and  C_4
REMARK    3  A    between atoms: C_4  and  C_5
REMARK    4  A    between atoms: N_7  and  C_8
REMARK    5  A    between atoms: C_15  and  C_16
REMARK    6  A    between atoms: C_16  and  C_18
REMARK    7  A    between atoms: N_20  and  C_21
REMARK    8  A    between atoms: C_21  and  C_22
REMARK                            x       y       z     vdW  Elec       q    Type
REMARK                         _______ _______ _______ _____ _____    ______ ____
ROOT
ATOM      8  C   UNL     1      -2.147   3.196  24.988  0.00  0.00    +0.095 C 
ATOM      9  C   UNL     1      -1.617   3.448  25.566  0.00  0.00    +0.022 C 
ATOM     10  C   UNL     1      -0.932   3.012  25.716  0.00  0.00    +0.002 C 
ATOM     11  C   UNL     1      -0.779   2.325  25.287  0.00  0.00    +0.002 C 
ATOM     12  C   UNL     1      -0.248   2.577  25.867  0.00  0.00    +0.000 C 
ATOM     13  C   UNL     1      -0.094   1.889  25.437  0.00  0.00    +0.000 C 
ATOM     14  C   UNL     1       0.059   1.202  25.007  0.00  0.00    +0.003 C 
ATOM     15  C   UNL     1      -0.471   0.950  24.428  0.00  0.00    +0.039 C 
ATOM     30  C   UNL     1      -1.155   1.385  24.278  0.00  0.00    +0.152 C 
ATOM     31  O   UNL     1      -1.686   1.134  23.698  0.00  0.00    -0.223 OA
ATOM     32  C   UNL     1      -1.309   2.073  24.708  0.00  0.00    +0.032 C 
ATOM     33  C   UNL     1      -1.993   2.508  24.558  0.00  0.00    +0.022 C 
ATOM     34  C   UNL     1      -2.524   2.256  23.978  0.00  0.00    +0.002 C 
ENDROOT
BRANCH   8   7
ATOM      5  C   UNL     1      -3.353   3.805  25.454  0.00  0.00    +0.244 C 
ATOM      6  O   UNL     1      -3.189   3.544  26.218  0.00  0.00    -0.273 OA
ATOM      7  N   UNL     1      -2.832   3.631  24.837  0.00  0.00    -0.207 NA
BRANCH   5   4
ATOM      4  C   UNL     1      -4.038   4.240  25.303  0.00  0.00    +0.119 C 
BRANCH   4   3
ATOM      3  C   UNL     1      -4.752   4.020  25.655  0.00  0.00    +0.152 C 
BRANCH   3   2
ATOM      1  C   UNL     1      -6.177   3.933  25.606  0.00  0.00    +0.174 C 
ATOM      2  O   UNL     1      -5.466   4.210  25.290  0.00  0.00    -0.351 OA
ENDBRANCH   3   2
ENDBRANCH   4   3
ENDBRANCH   5   4
ENDBRANCH   8   7
BRANCH  15  16
ATOM     16  C   UNL     1      -0.317   0.263  23.998  0.00  0.00    +0.081 C 
ATOM     17  C   UNL     1      -0.053   0.314  23.218  0.00  0.00    +0.010 C 
BRANCH  16  18
ATOM     18  C   UNL     1      -0.428  -0.476  24.349  0.00  0.00    +0.241 C 
ATOM     19  O   UNL     1       0.210  -0.869  24.691  0.00  0.00    -0.273 OA
ATOM     20  N   UNL     1      -1.178  -0.820  24.357  0.00  0.00    -0.201 NA
BRANCH  20  21
ATOM     21  C   UNL     1      -1.289  -1.559  24.708  0.00  0.00    +0.142 C 
BRANCH  21  22
ATOM     22  C   UNL     1      -2.052  -1.840  24.844  0.00  0.00    +0.004 A 
ATOM     23  C   UNL     1      -2.382  -2.400  24.334  0.00  0.00    +0.027 A 
ATOM     24  C   UNL     1      -3.145  -2.681  24.470  0.00  0.00    +0.142 A 
ATOM     25  F   UNL     1      -3.475  -3.241  23.960  0.00  0.00    -0.204 F 
ATOM     26  C   UNL     1      -3.580  -2.403  25.114  0.00  0.00    +0.059 A 
ATOM     27  C   UNL     1      -3.250  -1.844  25.622  0.00  0.00    +0.142 A 
ATOM     28  F   UNL     1      -3.685  -1.565  26.267  0.00  0.00    -0.204 F 
ATOM     29  C   UNL     1      -2.487  -1.562  25.488  0.00  0.00    +0.027 A 
ENDBRANCH  21  22
ENDBRANCH  20  21
ENDBRANCH  16  18
ENDBRANCH  15  16
TORSDOF 8
ENDMDL
MODEL 3
REMARK VINA RESULT:     -10.7      2.614      4.743
REMARK  Name = 
REMARK  8 active torsions:
REMARK  status: ('A' for Active; 'I' for Inactive)
REMARK    1  A    between atoms: O_2  and  C_3
REMARK    2  A    between atoms: C_3  and  C_4
REMARK    3  A    between atoms: C_4  and  C_5
REMARK    4  A    between atoms: N_7  and  C_8
REMARK    5  A    between atoms: C_15  and  C_16
REMARK    6  A    between atoms: C_16  and  C_18
REMARK    7  A    between atoms: N_20  and  C_21
REMARK    8  A    between atoms: C_21  and  C_22
REMARK                            x       y       z     vdW  Elec       q    Type
REMARK                         _______ _______ _______ _____ _____    ______ ____
ROOT
ATOM      8  C   UNL     1      -0.583   2.780  24.359  0.00  0.00    +0.095 C 
ATOM      9  C   UNL     1      -0.487   3.203  25.060  0.00  0.00    +0.022 C 
ATOM     10  C   UNL     1      -1.146   3.407  25.513  0.00  0.00    +0.002 C 
ATOM     11  C   UNL     1      -1.901   3.187  25.265  0.00  0.00    +0.002 C 
ATOM     12  C   UNL     1      -1.804   3.611  25.967  0.00  0.00    +0.000 C 
ATOM     13  C   UNL     1      -2.560   3.391  25.718  0.00  0.00    +0.000 C 
ATOM     14  C   UNL     1      -3.315   3.171  25.470  0.00  0.00    +0.003 C 
ATOM     15  C   UNL     1      -3.412   2.749  24.769  0.00  0.00    +0.039 C 
ATOM     30  C   UNL     1      -2.754   2.545  24.315  0.00  0.00    +0.152 C 
ATOM     31  O   UNL     1      -2.851   2.122  23.614  0.00  0.00    -0.223 OA
ATOM     32  C   UNL     1      -1.998   2.765  24.564  0.00  0.00    +0.032 C 
ATOM     33  C   UNL     1      -1.340   2.561  24.110  0.00  0.00    +0.022 C 
ATOM     34  C   UNL     1      -1.436   2.137  23.409  0.00  0.00    +0.002 C 
ENDROOT
BRANCH   8   7
ATOM      5  C   UNL     1       0.643   2.062  24.212  0.00  0.00    +0.244 C 
ATOM      6  O   UNL     1       0.553   1.753  24.970  0.00  0.00    -0.273 OA
ATOM      7  N   UNL     1       0.075   2.576  23.905  0.00  0.00    -0.207 NA
BRANCH   5   4
ATOM      4  C   UNL     1       1.301   1.858  23.758  0.00  0.00    +0.119 C 
BRANCH   4   3
ATOM      3  C   UNL     1       1.476   1.063  23.620  0.00  0.00    +0.152 C 
BRANCH   3   2
ATOM      1  C   UNL     1       2.147   0.122  22.779  0.00  0.00    +0.174 C 
ATOM      2  O   UNL     1       2.123   0.859  23.151  0.00  0.00    -0.351 OA
ENDBRANCH   3   2
ENDBRANCH   4   3
ENDBRANCH   5   4
ENDBRANCH   8   7
BRANCH  15  16
ATOM     16  C   UNL     1      -4.167   2.529  24.520  0.00  0.00    +0.081 C 
ATOM     17  C   UNL     1      -4.546   2.956  23.925  0.00  0.00    +0.010 C 
BRANCH  16  18
ATOM     18  C   UNL     1      -4.543   1.881  24.868  0.00  0.00    +0.241 C 
ATOM     19  O   UNL     1      -5.135   2.000  25.428  0.00  0.00    -0.273 OA
ATOM     20  N   UNL     1      -4.326   1.114  24.653  0.00  0.00    -0.201 NA
BRANCH  20  21
ATOM     21  C   UNL     1      -4.702   0.467  25.000  0.00  0.00    +0.142 C 
BRANCH  21  22
ATOM     22  C   UNL     1      -4.388  -0.290  24.908  0.00  0.00    +0.004 A 
ATOM     23  C   UNL     1      -3.933  -0.624  25.511  0.00  0.00    +0.027 A 
ATOM     24  C   UNL     1      -3.619  -1.381  25.418  0.00  0.00    +0.142 A 
ATOM     25  F   UNL     1      -3.164  -1.715  26.021  0.00  0.00    -0.204 F 
ATOM     26  C   UNL     1      -3.759  -1.804  24.723  0.00  0.00    +0.059 A 
ATOM     27  C   UNL     1      -4.212  -1.470  24.122  0.00  0.00    +0.142 A 
ATOM     28  F   UNL     1      -4.352  -1.893  23.426  0.00  0.00    -0.204 F 
ATOM     29  C   UNL     1      -4.527  -0.713  24.213  0.00  0.00    +0.027 A 
ENDBRANCH  21  22
ENDBRANCH  20  21
ENDBRANCH  16  18
ENDBRANCH  15  16
TORSDOF 8
ENDMDL
MODEL 4
REMARK VINA RESULT:     -10.6      2.798      4.164
REMARK  Name = 
REMARK  8 active torsions:
REMARK  status: ('A' for Active; 'I' for Inactive)
REMARK    1  A    between atoms: O_2  and  C_3
REMARK    2  A    between atoms: C_3  and  C_4
REMARK    3  A    between atoms: C_4  and  C_5
REMARK    4  A    between atoms: N_7  and  C_8
REMARK    5  A    between atoms: C_15  and  C_16
REMARK    6  A    between atoms: C_16  and  C_18
REMARK    7  A    between atoms: N_20  and  C_21
REMARK    8  A    between atoms: C_21  and  C_22
REMARK                            x       y       z     vdW  Elec       q    Type
REMARK                         _______ _______ _______ _____ _____    ______ ____
ROOT
ATOM      8  C   UNL     1      -0.419   0.157  24.074  0.00  0.00    +0.095 C 
ATOM      9  C   UNL     1      -0.217  -0.348  24.693  0.00  0.00    +0.022 C 
ATOM     10  C   UNL     1      -0.808  -0.685  25.161  0.00  0.00    +0.002 C 
ATOM     11  C   UNL     1      -1.600  -0.514  25.008  0.00  0.00    +0.002 C 
ATOM     12  C   UNL     1      -1.398  -1.021  25.628  0.00  0.00    +0.000 C 
ATOM     13  C   UNL     1      -2.192  -0.851  25.476  0.00  0.00    +0.000 C 
ATOM     14  C   UNL     1      -2.984  -0.681  25.324  0.00  0.00    +0.003 C 
ATOM     15  C   UNL     1      -3.186  -0.175  24.705  0.00  0.00    +0.039 C 
ATOM     30  C   UNL     1      -2.596   0.161  24.238  0.00  0.00    +0.152 C 
ATOM     31  O   UNL     1      -2.798   0.667  23.618  0.00  0.00    -0.223 OA
ATOM     32  C   UNL     1      -1.802  -0.009  24.390  0.00  0.00    +0.032 C 
ATOM     33  C   UNL     1      -1.212   0.328  23.922  0.00  0.00    +0.022 C 
ATOM     34  C   UNL     1      -1.414   0.834  23.302  0.00  0.00    +0.002 C 
ENDROOT
BRANCH   8   7
ATOM      5  C   UNL     1       0.775   0.021  23.301  0.00  0.00    +0.244 C 
ATOM      6  O   UNL     1       0.788  -0.787  23.464  0.00  0.00    -0.273 OA
ATOM      7  N   UNL     1       0.172   0.494  23.606  0.00  0.00    -0.207 NA
BRANCH   5   4
ATOM      4  C   UNL     1       1.366   0.357  22.833  0.00  0.00    +0.119 C 
BRANCH   4   3
ATOM      3  C   UNL     1       2.127   0.037  22.836  0.00  0.00    +0.152 C 
BRANCH   3   2
ATOM      1  C   UNL     1       3.499   0.376  22.630  0.00  0.00    +0.174 C 
ATOM      2  O   UNL     1       2.716   0.372  22.367  0.00  0.00    -0.351 OA
ENDBRANCH   3   2
ENDBRANCH   4   3
ENDBRANCH   5   4
ENDBRANCH   8   7
BRANCH  15  16
ATOM     16  C   UNL     1      -3.979  -0.005  24.553  0.00  0.00    +0.081 C 
ATOM     17  C   UNL     1      -4.331  -0.269  23.856  0.00  0.00    +0.010 C 
BRANCH  16  18
ATOM     18  C   UNL     1      -4.419   0.430  25.099  0.00  0.00    +0.241 C 
ATOM     19  O   UNL     1      -4.762   0.053  25.746  0.00  0.00    -0.273 OA
ATOM     20  N   UNL     1      -4.516   1.244  24.997  0.00  0.00    -0.201 NA
BRANCH  20  21
ATOM     21  C   UNL     1      -4.956   1.678  25.543  0.00  0.00    +0.142 C 
BRANCH  21  22
ATOM     22  C   UNL     1      -4.923   2.502  25.535  0.00  0.00    +0.004 A 
ATOM     23  C   UNL     1      -5.621   2.943  25.525  0.00  0.00    +0.027 A 
ATOM     24  C   UNL     1      -5.589   3.767  25.517  0.00  0.00    +0.142 A 
ATOM     25  F   UNL     1      -6.287   4.207  25.508  0.00  0.00    -0.204 F 
ATOM     26  C   UNL     1      -4.859   4.151  25.519  0.00  0.00    +0.059 A 
ATOM     27  C   UNL     1      -4.162   3.711  25.528  0.00  0.00    +0.142 A 
ATOM     28  F   UNL     1      -3.431   4.096  25.530  0.00  0.00    -0.204 F 
ATOM     29  C   UNL     1      -4.193   2.887  25.536  0.00  0.00    +0.027 A 
ENDBRANCH  21  22
ENDBRANCH  20  21
ENDBRANCH  16  18
ENDBRANCH  15  16
TORSDOF 8
ENDMDL
MODEL 5
REMARK VINA RESULT:     -10.6      2.359      3.768
REMARK  Name = 
REMARK  8 active torsions:
REMARK  status: ('A' for Active; 'I' for Inactive)
REMARK    1  A    between atoms: O_2  and  C_3
REMARK    2  A    between atoms: C_3  and  C_4
REMARK    3  A    between atoms: C_4  and  C_5
REMARK    4  A    between atoms: N_7  and  C_8
REMARK    5  A    between atoms: C_15  and  C_16
REMARK    6  A    between atoms: C_16  and  C_18
REMARK    7  A    between atoms: N_20  and  C_21
REMARK    8  A    between atoms: C_21  and  C_22
REMARK                            x       y       z     vdW  Elec       q    Type
REMARK                         _______ _______ _______ _____ _____    ______ ____
ROOT
ATOM      8  C   UNL     1      -0.703  -0.685  24.683  0.00  0.00    +0.095 C 
ATOM      9  C   UNL     1      -0.272  -0.619  23.984  0.00  0.00    +0.022 C 
ATOM     10  C   UNL     1       0.065   0.106  23.773  0.00  0.00    +0.002 C 
ATOM     11  C   UNL     1      -0.031   0.762  24.263  0.00  0.00    +0.002 C 
ATOM     12  C   UNL     1       0.401   0.829  23.562  0.00  0.00    +0.000 C 
ATOM     13  C   UNL     1       0.305   1.486  24.052  0.00  0.00    +0.000 C 
ATOM     14  C   UNL     1       0.209   2.143  24.542  0.00  0.00    +0.003 C 
ATOM     15  C   UNL     1      -0.222   2.076  25.242  0.00  0.00    +0.039 C 
ATOM     30  C   UNL     1      -0.558   1.353  25.452  0.00  0.00    +0.152 C 
ATOM     31  O   UNL     1      -0.989   1.287  26.152  0.00  0.00    -0.223 OA
ATOM     32  C   UNL     1      -0.462   0.696  24.962  0.00  0.00    +0.032 C 
ATOM     33  C   UNL     1      -0.798  -0.027  25.173  0.00  0.00    +0.022 C 
ATOM     34  C   UNL     1      -1.230  -0.094  25.873  0.00  0.00    +0.002 C 
ENDROOT
BRANCH   8   7
ATOM      5  C   UNL     1      -1.565  -1.783  24.380  0.00  0.00    +0.244 C 
ATOM      6  O   UNL     1      -1.754  -1.435  23.657  0.00  0.00    -0.273 OA
ATOM      7  N   UNL     1      -1.039  -1.408  24.893  0.00  0.00    -0.207 NA
BRANCH   5   4
ATOM      4  C   UNL     1      -1.902  -2.506  24.590  0.00  0.00    +0.119 C 
BRANCH   4   3
ATOM      3  C   UNL     1      -2.624  -2.735  24.264  0.00  0.00    +0.152 C 
BRANCH   3   2
ATOM      1  C   UNL     1      -3.962  -3.203  24.452  0.00  0.00    +0.174 C 
ATOM      2  O   UNL     1      -3.195  -3.096  24.738  0.00  0.00    -0.351 OA
ENDBRANCH   3   2
ENDBRANCH   4   3
ENDBRANCH   5   4
ENDBRANCH   8   7
BRANCH  15  16
ATOM     16  C   UNL     1      -0.317   2.733  25.732  0.00  0.00    +0.081 C 
ATOM     17  C   UNL     1       0.060   2.760  26.465  0.00  0.00    +0.010 C 
BRANCH  16  18
ATOM     18  C   UNL     1      -0.791   3.363  25.488  0.00  0.00    +0.241 C 
ATOM     19  O   UNL     1      -0.447   4.032  25.152  0.00  0.00    -0.273 OA
ATOM     20  N   UNL     1      -1.611   3.324  25.581  0.00  0.00    -0.201 NA
BRANCH  20  21
ATOM     21  C   UNL     1      -2.084   3.954  25.337  0.00  0.00    +0.142 C 
BRANCH  21  22
ATOM     22  C   UNL     1      -2.888   3.835  25.199  0.00  0.00    +0.004 A 
ATOM     23  C   UNL     1      -3.163   3.731  24.427  0.00  0.00    +0.027 A 
ATOM     24  C   UNL     1      -3.968   3.612  24.289  0.00  0.00    +0.142 A 
ATOM     25  F   UNL     1      -4.242   3.508  23.517  0.00  0.00    -0.204 F 
ATOM     26  C   UNL     1      -4.497   3.597  24.921  0.00  0.00    +0.059 A 
ATOM     27  C   UNL     1      -4.223   3.700  25.691  0.00  0.00    +0.142 A 
ATOM     28  F   UNL     1      -4.753   3.685  26.324  0.00  0.00    -0.204 F 
ATOM     29  C   UNL     1      -3.418   3.819  25.831  0.00  0.00    +0.027 A 
ENDBRANCH  21  22
ENDBRANCH  20  21
ENDBRANCH  16  18
ENDBRANCH  15  16
TORSDOF 8
ENDMDL
MODEL 6
REMARK VINA RESULT:     -10.5      1.782      5.114
REMARK  Name = 
REMARK  8 active torsions:
REMARK  status: ('A' for Active; 'I' for Inactive)
REMARK    1  A    between atoms: O_2  and  C_3
REMARK    2  A    between atoms: C_3  and  C_4
REMARK    3  A    between atoms: C_4  and  C_5
REMARK    4  A    between atoms: N_7  and  C_8
REMARK    5  A    between atoms: C_15  and  C_16
REMARK    6  A    between atoms: C_16  and  C_18
REMARK    7  A    between atoms: N_20  and  C_21
REMARK    8  A    between atoms: C_21  and  C_22
REMARK                            x       y       z     vdW  Elec       q    Type
REMARK                         _______ _______ _______ _____ _____    ______ ____
ROOT
ATOM      8  C   UNL     1      -3.760   3.539  24.898  0.00  0.00    +0.095 C 
ATOM      9  C   UNL     1      -4.417   3.739  25.354  0.00  0.00    +0.022 C 
ATOM     10  C   UNL     1      -4.960   3.157  25.573  0.00  0.00    +0.002 C 
ATOM     11  C   UNL     1      -4.844   2.376  25.336  0.00  0.00    +0.002 C 
ATOM     12  C   UNL     1      -5.502   2.576  25.793  0.00  0.00    +0.000 C 
ATOM     13  C   UNL     1      -5.387   1.794  25.556  0.00  0.00    +0.000 C 
ATOM     14  C   UNL     1      -5.272   1.012  25.318  0.00  0.00    +0.003 C 
ATOM     15  C   UNL     1      -4.615   0.812  24.862  0.00  0.00    +0.039 C 
ATOM     30  C   UNL     1      -4.073   1.393  24.642  0.00  0.00    +0.152 C 
ATOM     31  O   UNL     1      -3.415   1.193  24.186  0.00  0.00    -0.223 OA
ATOM     32  C   UNL     1      -4.188   2.176  24.880  0.00  0.00    +0.032 C 
ATOM     33  C   UNL     1      -3.645   2.756  24.660  0.00  0.00    +0.022 C 
ATOM     34  C   UNL     1      -2.988   2.556  24.203  0.00  0.00    +0.002 C 
ENDROOT
BRANCH   8   7
ATOM      5  C   UNL     1      -2.783   4.518  25.256  0.00  0.00    +0.244 C 
ATOM      6  O   UNL     1      -2.892   4.335  26.052  0.00  0.00    -0.273 OA
ATOM      7  N   UNL     1      -3.217   4.120  24.678  0.00  0.00    -0.207 NA
BRANCH   5   4
ATOM      4  C   UNL     1      -2.240   5.099  25.037  0.00  0.00    +0.119 C 
BRANCH   4   3
ATOM      3  C   UNL     1      -1.456   5.046  25.288  0.00  0.00    +0.152 C 
BRANCH   3   2
ATOM      1  C   UNL     1      -0.221   5.095  24.570  0.00  0.00    +0.174 C 
ATOM      2  O   UNL     1      -0.870   5.482  24.904  0.00  0.00    -0.351 OA
ENDBRANCH   3   2
ENDBRANCH   4   3
ENDBRANCH   5   4
ENDBRANCH   8   7
BRANCH  15  16
ATOM     16  C   UNL     1      -4.500   0.031  24.625  0.00  0.00    +0.081 C 
ATOM     17  C   UNL     1      -4.787  -0.226  23.895  0.00  0.00    +0.010 C 
BRANCH  16  18
ATOM     18  C   UNL     1      -4.097  -0.495  25.118  0.00  0.00    +0.241 C 
ATOM     19  O   UNL     1      -4.359  -0.620  25.889  0.00  0.00    -0.273 OA
ATOM     20  N   UNL     1      -3.431  -0.895  24.838  0.00  0.00    -0.201 NA
BRANCH  20  21
ATOM     21  C   UNL     1      -3.028  -1.419  25.331  0.00  0.00    +0.142 C 
BRANCH  21  22
ATOM     22  C   UNL     1      -2.289  -1.709  25.107  0.00  0.00    +0.004 A 
ATOM     23  C   UNL     1      -2.236  -2.317  24.551  0.00  0.00    +0.027 A 
ATOM     24  C   UNL     1      -1.497  -2.607  24.327  0.00  0.00    +0.142 A 
ATOM     25  F   UNL     1      -1.444  -3.215  23.771  0.00  0.00    -0.204 F 
ATOM     26  C   UNL     1      -0.812  -2.290  24.659  0.00  0.00    +0.059 A 
ATOM     27  C   UNL     1      -0.865  -1.683  25.214  0.00  0.00    +0.142 A 
ATOM     28  F   UNL     1      -0.178  -1.366  25.546  0.00  0.00    -0.204 F 
ATOM     29  C   UNL     1      -1.604  -1.392  25.439  0.00  0.00    +0.027 A 
ENDBRANCH  21  22
ENDBRANCH  20  21
ENDBRANCH  16  18
ENDBRANCH  15  16
TORSDOF 8
ENDMDL
MODEL 7
REMARK VINA RESULT:     -10.4      2.830      5.446
REMARK  Name = 
REMARK  8 active torsions:
REMARK  status: ('A' for Active; 'I' for Inactive)
REMARK    1  A    between atoms: O_2  and  C_3
REMARK    2  A    between atoms: C_3  and  C_4
REMARK    3  A    between atoms: C_4  and  C_5
REMARK    4  A    between atoms: N_7  and  C_8
REMARK    5  A    between atoms: C_15  and  C_16
REMARK    6  A    between atoms: C_16  and  C_18
REMARK    7  A    between atoms: N_20  and  C_21
REMARK    8  A    between atoms: C_21  and  C_22
REMARK                            x       y       z     vdW  Elec       q    Type
REMARK                         _______ _______ _______ _____ _____    ______ ____
ROOT
ATOM      8  C   UNL     1      -0.539   2.846  25.896  0.00  0.00    +0.095 C 
ATOM      9  C   UNL     1      -0.961   3.503  26.158  0.00  0.00    +0.022 C 
ATOM     10  C   UNL     1      -1.727   3.639  25.880  0.00  0.00    +0.002 C 
ATOM     11  C   UNL     1      -2.068   3.116  25.341  0.00  0.00    +0.002 C 
ATOM     12  C   UNL     1      -2.492   3.775  25.602  0.00  0.00    +0.000 C 
ATOM     13  C   UNL     1      -2.833   3.252  25.063  0.00  0.00    +0.000 C 
ATOM     14  C   UNL     1      -3.175   2.729  24.524  0.00  0.00    +0.003 C 
ATOM     15  C   UNL     1      -2.752   2.072  24.263  0.00  0.00    +0.039 C 
ATOM     30  C   UNL     1      -1.987   1.936  24.540  0.00  0.00    +0.152 C 
ATOM     31  O   UNL     1      -1.564   1.278  24.279  0.00  0.00    -0.223 OA
ATOM     32  C   UNL     1      -1.645   2.459  25.080  0.00  0.00    +0.032 C 
ATOM     33  C   UNL     1      -0.880   2.323  25.357  0.00  0.00    +0.022 C 
ATOM     34  C   UNL     1      -0.457   1.665  25.095  0.00  0.00    +0.002 C 
ENDROOT
BRANCH   8   7
ATOM      5  C   UNL     1       0.362   2.626  26.984  0.00  0.00    +0.244 C 
ATOM      6  O   UNL     1      -0.266   2.678  27.515  0.00  0.00    -0.273 OA
ATOM      7  N   UNL     1       0.226   2.710  26.174  0.00  0.00    -0.207 NA
BRANCH   5   4
ATOM      4  C   UNL     1       1.127   2.490  27.261  0.00  0.00    +0.119 C 
BRANCH   4   3
ATOM      3  C   UNL     1       1.317   2.662  28.046  0.00  0.00    +0.152 C 
BRANCH   3   2
ATOM      1  C   UNL     1       2.306   2.685  29.077  0.00  0.00    +0.174 C 
ATOM      2  O   UNL     1       2.108   2.712  28.276  0.00  0.00    -0.351 OA
ENDBRANCH   3   2
ENDBRANCH   4   3
ENDBRANCH   5   4
ENDBRANCH   8   7
BRANCH  15  16
ATOM     16  C   UNL     1      -3.093   1.549  23.724  0.00  0.00    +0.081 C 
ATOM     17  C   UNL     1      -2.823   1.524  22.944  0.00  0.00    +0.010 C 
BRANCH  16  18
ATOM     18  C   UNL     1      -3.705   1.050  23.964  0.00  0.00    +0.241 C 
ATOM     19  O   UNL     1      -4.451   1.362  24.128  0.00  0.00    -0.273 OA
ATOM     20  N   UNL     1      -3.571   0.239  24.041  0.00  0.00    -0.201 NA
BRANCH  20  21
ATOM     21  C   UNL     1      -4.183  -0.259  24.281  0.00  0.00    +0.142 C 
BRANCH  21  22
ATOM     22  C   UNL     1      -4.039  -1.064  24.390  0.00  0.00    +0.004 A 
ATOM     23  C   UNL     1      -3.662  -1.326  25.076  0.00  0.00    +0.027 A 
ATOM     24  C   UNL     1      -3.519  -2.131  25.185  0.00  0.00    +0.142 A 
ATOM     25  F   UNL     1      -3.141  -2.393  25.871  0.00  0.00    -0.204 F 
ATOM     26  C   UNL     1      -3.752  -2.674  24.609  0.00  0.00    +0.059 A 
ATOM     27  C   UNL     1      -4.129  -2.412  23.925  0.00  0.00    +0.142 A 
ATOM     28  F   UNL     1      -4.362  -2.955  23.348  0.00  0.00    -0.204 F 
ATOM     29  C   UNL     1      -4.273  -1.607  23.814  0.00  0.00    +0.027 A 
ENDBRANCH  21  22
ENDBRANCH  20  21
ENDBRANCH  16  18
ENDBRANCH  15  16
TORSDOF 8
ENDMDL
MODEL 8
REMARK VINA RESULT:     -10.2      3.540      5.110
REMARK  Name = 
REMARK  8 active torsions:
REMARK  status: ('A' for Active; 'I' for Inactive)
REMARK    1  A    between atoms: O_2  and  C_3
REMARK    2  A    between atoms: C_3  and  C_4
REMARK    3  A    between atoms: C_4  and  C_5
REMARK    4  A    between atoms: N_7  and  C_8
REMARK    5  A    between atoms: C_15  and  C_16
REMARK    6  A    between atoms: C_16  and  C_18
REMARK    7  A    between atoms: N_20  and  C_21
REMARK    8  A    between atoms: C_21  and  C_22
REMARK                            x       y       z     vdW  Elec       q    Type
REMARK                         _______ _______ _______ _____ _____    ______ ____
ROOT
ATOM      8  C   UNL     1       0.919   0.748  23.614  0.00  0.00    +0.095 C 
ATOM      9  C   UNL     1       1.003   1.528  23.865  0.00  0.00    +0.022 C 
ATOM     10  C   UNL     1       0.385   1.901  24.267  0.00  0.00    +0.002 C 
ATOM     11  C   UNL     1      -0.315   1.492  24.416  0.00  0.00    +0.002 C 
ATOM     12  C   UNL     1      -0.231   2.274  24.669  0.00  0.00    +0.000 C 
ATOM     13  C   UNL     1      -0.933   1.865  24.818  0.00  0.00    +0.000 C 
ATOM     14  C   UNL     1      -1.633   1.455  24.968  0.00  0.00    +0.003 C 
ATOM     15  C   UNL     1      -1.717   0.675  24.716  0.00  0.00    +0.039 C 
ATOM     30  C   UNL     1      -1.100   0.302  24.315  0.00  0.00    +0.152 C 
ATOM     31  O   UNL     1      -1.184  -0.479  24.063  0.00  0.00    -0.223 OA
ATOM     32  C   UNL     1      -0.399   0.711  24.165  0.00  0.00    +0.032 C 
ATOM     33  C   UNL     1       0.218   0.339  23.764  0.00  0.00    +0.022 C 
ATOM     34  C   UNL     1       0.134  -0.443  23.512  0.00  0.00    +0.002 C 
ENDROOT
BRANCH   8   7
ATOM      5  C   UNL     1       2.263   0.756  23.129  0.00  0.00    +0.244 C 
ATOM      6  O   UNL     1       2.373   1.509  23.447  0.00  0.00    -0.273 OA
ATOM      7  N   UNL     1       1.536   0.375  23.213  0.00  0.00    -0.207 NA
BRANCH   5   4
ATOM      4  C   UNL     1       2.880   0.383  22.728  0.00  0.00    +0.119 C 
BRANCH   4   3
ATOM      3  C   UNL     1       3.660   0.623  22.856  0.00  0.00    +0.152 C 
BRANCH   3   2
ATOM      1  C   UNL     1       5.016   0.228  23.072  0.00  0.00    +0.174 C 
ATOM      2  O   UNL     1       4.280   0.096  22.722  0.00  0.00    -0.351 OA
ENDBRANCH   3   2
ENDBRANCH   4   3
ENDBRANCH   5   4
ENDBRANCH   8   7
BRANCH  15  16
ATOM     16  C   UNL     1      -2.417   0.266  24.865  0.00  0.00    +0.081 C 
ATOM     17  C   UNL     1      -2.413  -0.393  25.362  0.00  0.00    +0.010 C 
BRANCH  16  18
ATOM     18  C   UNL     1      -3.123   0.516  24.518  0.00  0.00    +0.241 C 
ATOM     19  O   UNL     1      -3.308   0.285  23.748  0.00  0.00    -0.273 OA
ATOM     20  N   UNL     1      -3.643   0.998  24.941  0.00  0.00    -0.201 NA
BRANCH  20  21
ATOM     21  C   UNL     1      -4.348   1.248  24.593  0.00  0.00    +0.142 C 
BRANCH  21  22
ATOM     22  C   UNL     1      -4.832   1.788  24.986  0.00  0.00    +0.004 A 
ATOM     23  C   UNL     1      -4.726   2.598  24.868  0.00  0.00    +0.027 A 
ATOM     24  C   UNL     1      -5.210   3.138  25.261  0.00  0.00    +0.142 A 
ATOM     25  F   UNL     1      -5.104   3.948  25.143  0.00  0.00    -0.204 F 
ATOM     26  C   UNL     1      -5.799   2.869  25.772  0.00  0.00    +0.059 A 
ATOM     27  C   UNL     1      -5.905   2.060  25.890  0.00  0.00    +0.142 A 
ATOM     28  F   UNL     1      -6.495   1.791  26.401  0.00  0.00    -0.204 F 
ATOM     29  C   UNL     1      -5.421   1.519  25.497  0.00  0.00    +0.027 A 
ENDBRANCH  21  22
ENDBRANCH  20  21
ENDBRANCH  16  18
ENDBRANCH  15  16
TORSDOF 8
ENDMDL
MODEL 9
REMARK VINA RESULT:     -10.1      2.961      4.484
REMARK  Name = 
REMARK  8 active torsions:
REMARK  status: ('A' for Active; 'I' for Inactive)
REMARK    1  A    between atoms: O_2  and  C_3
REMARK    2  A    between atoms: C_3  and  C_4
REMARK    3  A    between atoms: C_4  and  C_5
REMARK    4  A    between atoms: N_7  and  C_8
REMARK    5  A    between atoms: C_15  and  C_16
REMARK    6  A    between atoms: C_16  and  C_18
REMARK    7  A    between atoms: N_20  and  C_21
REMARK    8  A    between atoms: C_21  and  C_22
REMARK                            x       y       z     vdW  Elec       q    Type
REMARK                         _______ _______ _______ _____ _____    ______ ____
ROOT
ATOM      8  C   UNL     1      -0.370   1.362  24.406  0.00  0.00    +0.095 C 
ATOM      9  C   UNL     1       0.058   1.459  25.103  0.00  0.00    +0.022 C 
ATOM     10  C   UNL     1      -0.167   2.035  25.650  0.00  0.00    +0.002 C 
ATOM     11  C   UNL     1      -0.821   2.514  25.497  0.00  0.00    +0.002 C 
ATOM     12  C   UNL     1      -0.391   2.611  26.196  0.00  0.00    +0.000 C 
ATOM     13  C   UNL     1      -1.046   3.091  26.044  0.00  0.00    +0.000 C 
ATOM     14  C   UNL     1      -1.700   3.569  25.892  0.00  0.00    +0.003 C 
ATOM     15  C   UNL     1      -2.129   3.472  25.195  0.00  0.00    +0.039 C 
ATOM     30  C   UNL     1      -1.905   2.897  24.648  0.00  0.00    +0.152 C 
ATOM     31  O   UNL     1      -2.334   2.800  23.951  0.00  0.00    -0.223 OA
ATOM     32  C   UNL     1      -1.250   2.417  24.800  0.00  0.00    +0.032 C 
ATOM     33  C   UNL     1      -1.025   1.841  24.254  0.00  0.00    +0.022 C 
ATOM     34  C   UNL     1      -1.455   1.744  23.556  0.00  0.00    +0.002 C 
ENDROOT
BRANCH   8   7
ATOM      5  C   UNL     1       0.643   0.727  23.624  0.00  0.00    +0.244 C 
ATOM      6  O   UNL     1       1.206   1.243  23.934  0.00  0.00    -0.273 OA
ATOM      7  N   UNL     1      -0.146   0.786  23.860  0.00  0.00    -0.207 NA
BRANCH   5   4
ATOM      4  C   UNL     1       0.867   0.152  23.078  0.00  0.00    +0.119 C 
BRANCH   4   3
ATOM      3  C   UNL     1       1.635   0.149  22.773  0.00  0.00    +0.152 C 
BRANCH   3   2
ATOM      1  C   UNL     1       2.552  -0.193  21.732  0.00  0.00    +0.174 C 
ATOM      2  O   UNL     1       1.786  -0.195  22.039  0.00  0.00    -0.351 OA
ENDBRANCH   3   2
ENDBRANCH   4   3
ENDBRANCH   5   4
ENDBRANCH   8   7
BRANCH  15  16
ATOM     16  C   UNL     1      -2.783   3.951  25.042  0.00  0.00    +0.081 C 
ATOM     17  C   UNL     1      -2.778   4.464  24.396  0.00  0.00    +0.010 C 
BRANCH  16  18
ATOM     18  C   UNL     1      -3.443   3.917  25.537  0.00  0.00    +0.241 C 
ATOM     19  O   UNL     1      -3.443   4.324  26.254  0.00  0.00    -0.273 OA
ATOM     20  N   UNL     1      -4.104   3.474  25.314  0.00  0.00    -0.201 NA
BRANCH  20  21
ATOM     21  C   UNL     1      -4.763   3.441  25.809  0.00  0.00    +0.142 C 
BRANCH  21  22
ATOM     22  C   UNL     1      -5.306   2.826  25.728  0.00  0.00    +0.004 A 
ATOM     23  C   UNL     1      -5.653   2.491  26.399  0.00  0.00    +0.027 A 
ATOM     24  C   UNL     1      -6.196   1.876  26.318  0.00  0.00    +0.142 A 
ATOM     25  F   UNL     1      -6.543   1.541  26.989  0.00  0.00    -0.204 F 
ATOM     26  C   UNL     1      -6.394   1.595  25.568  0.00  0.00    +0.059 A 
ATOM     27  C   UNL     1      -6.049   1.930  24.899  0.00  0.00    +0.142 A 
ATOM     28  F   UNL     1      -6.247   1.649  24.148  0.00  0.00    -0.204 F 
ATOM     29  C   UNL     1      -5.504   2.545  24.978  0.00  0.00    +0.027 A 
ENDBRANCH  21  22
ENDBRANCH  20  21
ENDBRANCH  16  18
ENDBRANCH  15  16
TORSDOF 8
ENDMDL
