MODEL 1
REMARK VINA RESULT:      -8.6      0.000      0.000
REMARK  Name = 
REMARK  11 active torsions:
REMARK  status: ('A' for Active; 'I' for Inactive)
REMARK    1  A    between atoms: O_2  and  C_3
REMARK    2  A    between atoms: C_3  and  C_5
REMARK    3  A    between atoms: C_10  and  C_11
REMARK    4  A    between atoms: C_11  and  C_12
REMARK    5  A    between atoms: C_14  and  C_15
REMARK    6  A    between atoms: C_18  and  C_19
REMARK    7  A    between atoms: C_19  and  N_20
REMARK    8  A    between atoms: C_21  and  C_23
REMARK    9  A    between atoms: C_23  and  C_24
REMARK   10  A    between atoms: C_24  and  C_25
REMARK   11  A    between atoms: C_25  and  C_26
REMARK                            x       y       z     vdW  Elec       q    Type
REMARK                         _______ _______ _______ _____ _____    ______ ____
ROOT
ATOM     12  C   UNL     1      -0.736   0.167  24.294  0.00  0.00    +0.026 C 
ATOM     13  C   UNL     1      -0.417   0.904  24.484  0.00  0.00    +0.005 C 
ATOM     14  C   UNL     1      -0.916   1.529  24.688  0.00  0.00    +0.006 C 
ATOM     18  C   UNL     1      -1.732   1.418  24.704  0.00  0.00    +0.043 C 
ATOM     33  C   UNL     1      -2.052   0.681  24.514  0.00  0.00    -0.033 C 
ATOM     34  C   UNL     1      -1.554   0.056  24.309  0.00  0.00    -0.048 C 
ATOM     35  C   UNL     1      -1.874  -0.681  24.119  0.00  0.00    +0.026 C 
ENDROOT
BRANCH  14  15
ATOM     15  C   UNL     1      -0.596   2.266  24.878  0.00  0.00    +0.000 C 
ATOM     16  C   UNL     1      -0.364   2.428  25.653  0.00  0.00    +0.000 C 
ATOM     17  C   UNL     1      -0.508   2.841  24.292  0.00  0.00    +0.000 C 
ENDBRANCH  14  15
BRANCH  12  11
ATOM     11  C   UNL     1      -0.239  -0.458  24.089  0.00  0.00    +0.070 C 
BRANCH  11  10
ATOM      5  C   UNL     1       2.904   0.238  22.599  0.00  0.00    +0.077 A 
ATOM      6  C   UNL     1       2.510   0.196  23.322  0.00  0.00    +0.027 A 
ATOM      7  C   UNL     1       1.711  -0.011  23.346  0.00  0.00    +0.100 A 
ATOM      8  C   UNL     1       1.307  -0.174  22.645  0.00  0.00    +0.100 A 
ATOM      9  N   UNL     1       0.527  -0.362  22.838  0.00  0.00    -0.229 NA
ATOM     10  C   UNL     1       0.449  -0.314  23.658  0.00  0.00    +0.139 A 
ATOM     36  N   UNL     1       1.181  -0.097  23.971  0.00  0.00    -0.229 NA
ATOM     37  C   UNL     1       1.701  -0.132  21.921  0.00  0.00    +0.021 A 
ATOM     38  C   UNL     1       2.499   0.075  21.899  0.00  0.00    +0.008 A 
BRANCH   5   3
ATOM      3  C   UNL     1       3.701   0.445  22.576  0.00  0.00    +0.341 C 
ATOM      4  O   UNL     1       3.946   1.097  22.134  0.00  0.00    -0.245 OA
BRANCH   3   2
ATOM      1  C   UNL     1       5.025   0.281  23.089  0.00  0.00    +0.256 C 
ATOM      2  O   UNL     1       4.256  -0.001  22.994  0.00  0.00    -0.441 OA
ENDBRANCH   3   2
ENDBRANCH   5   3
ENDBRANCH  11  10
ENDBRANCH  12  11
BRANCH  18  19
ATOM     19  C   UNL     1      -2.231   2.043  24.908  0.00  0.00    +0.119 C 
BRANCH  19  20
ATOM     20  N   UNL     1      -3.016   2.043  24.658  0.00  0.00    -0.205 NA
ATOM     21  C   UNL     1      -3.566   2.537  25.024  0.00  0.00    +0.241 C 
ATOM     22  O   UNL     1      -3.330   3.030  25.642  0.00  0.00    -0.273 OA
BRANCH  21  23
ATOM     23  C   UNL     1      -4.352   2.538  24.774  0.00  0.00    +0.087 C 
BRANCH  23  24
ATOM     24  C   UNL     1      -4.922   2.952  25.202  0.00  0.00    +0.019 C 
ATOM     29  C   UNL     1      -4.634   3.605  24.788  0.00  0.00    +0.001 C 
ATOM     30  C   UNL     1      -5.061   4.269  25.028  0.00  0.00    +0.000 C 
ATOM     31  C   UNL     1      -5.613   4.026  25.591  0.00  0.00    +0.000 C 
ATOM     32  C   UNL     1      -5.527   3.213  25.698  0.00  0.00    +0.001 C 
BRANCH  24  25
ATOM     25  C   UNL     1      -5.091   2.214  25.527  0.00  0.00    +0.115 C 
BRANCH  25  26
ATOM     26  C   UNL     1      -5.834   1.873  25.412  0.00  0.00    +0.365 C 
ATOM     27  O   UNL     1      -6.096   1.703  24.649  0.00  0.00    -0.246 OA
ATOM     28  O   UNL     1      -6.313   1.702  26.061  0.00  0.00    -0.246 OA
ENDBRANCH  25  26
ENDBRANCH  24  25
ENDBRANCH  23  24
ENDBRANCH  21  23
ENDBRANCH  19  20
ENDBRANCH  18  19
TORSDOF 11
ENDMDL
MODEL 2
REMARK VINA RESULT:      -7.6      3.569      5.118
REMARK  Name = 
REMARK  11 active torsions:
REMARK  status: ('A' for Active; 'I' for Inactive)
REMARK    1  A    between atoms: O_2  and  C_3
REMARK    2  A    between atoms: C_3  and  C_5
REMARK    3  A    between atoms: C_10  and  C_11
REMARK    4  A    between atoms: C_11  and  C_12
REMARK    5  A    between atoms: C_14  and  C_15
REMARK    6  A    between atoms: C_18  and  C_19
REMARK    7  A    between atoms: C_19  and  N_20
REMARK    8  A    between atoms: C_21  and  C_23
REMARK    9  A    between atoms: C_23  and  C_24
REMARK   10  A    between atoms: C_24  and  C_25
REMARK   11  A    between atoms: C_25  and  C_26
REMARK                            x       y       z     vdW  Elec       q    Type
REMARK                         _______ _______ _______ _____ _____    ______ ____
ROOT
ATOM     12  C   UNL     1      -4.827   1.335  24.649  0.00  0.00    +0.026 C 
ATOM     13  C   UNL     1      -4.426   1.554  23.962  0.00  0.00    +0.005 C 
ATOM     14  C   UNL     1      -4.021   2.272  23.933  0.00  0.00    +0.006 C 
ATOM     18  C   UNL     1      -4.017   2.771  24.589  0.00  0.00    +0.043 C 
ATOM     33  C   UNL     1      -4.417   2.552  25.276  0.00  0.00    -0.033 C 
ATOM     34  C   UNL     1      -4.823   1.834  25.307  0.00  0.00    -0.048 C 
ATOM     35  C   UNL     1      -5.224   1.616  25.994  0.00  0.00    +0.026 C 
ENDROOT
BRANCH  14  15
ATOM     15  C   UNL     1      -3.620   2.491  23.246  0.00  0.00    +0.000 C 
ATOM     16  C   UNL     1      -3.926   3.083  22.760  0.00  0.00    +0.000 C 
ATOM     17  C   UNL     1      -2.912   2.117  23.044  0.00  0.00    +0.000 C 
ENDBRANCH  14  15
BRANCH  12  11
ATOM     11  C   UNL     1      -5.233   0.617  24.680  0.00  0.00    +0.070 C 
BRANCH  11  10
ATOM      5  C   UNL     1      -3.225  -2.304  24.546  0.00  0.00    +0.077 A 
ATOM      6  C   UNL     1      -3.314  -1.580  24.931  0.00  0.00    +0.027 A 
ATOM      7  C   UNL     1      -3.932  -1.074  24.721  0.00  0.00    +0.100 A 
ATOM      8  C   UNL     1      -4.460  -1.294  24.127  0.00  0.00    +0.100 A 
ATOM      9  N   UNL     1      -5.012  -0.687  24.039  0.00  0.00    -0.229 NA
ATOM     10  C   UNL     1      -4.825  -0.092  24.579  0.00  0.00    +0.139 A 
ATOM     36  N   UNL     1      -4.157  -0.332  25.000  0.00  0.00    -0.229 NA
ATOM     37  C   UNL     1      -4.371  -2.019  23.742  0.00  0.00    +0.021 A 
ATOM     38  C   UNL     1      -3.753  -2.523  23.952  0.00  0.00    +0.008 A 
BRANCH   5   3
ATOM      3  C   UNL     1      -2.608  -2.809  24.756  0.00  0.00    +0.341 C 
ATOM      4  O   UNL     1      -2.724  -3.384  25.336  0.00  0.00    -0.245 OA
BRANCH   3   2
ATOM      1  C   UNL     1      -1.185  -2.938  24.794  0.00  0.00    +0.256 C 
ATOM      2  O   UNL     1      -1.873  -2.739  24.386  0.00  0.00    -0.441 OA
ENDBRANCH   3   2
ENDBRANCH   5   3
ENDBRANCH  11  10
ENDBRANCH  12  11
BRANCH  18  19
ATOM     19  C   UNL     1      -3.611   3.489  24.559  0.00  0.00    +0.119 C 
BRANCH  19  20
ATOM     20  N   UNL     1      -2.904   3.581  24.972  0.00  0.00    -0.205 NA
ATOM     21  C   UNL     1      -2.645   4.335  25.186  0.00  0.00    +0.241 C 
ATOM     22  O   UNL     1      -3.095   4.997  24.987  0.00  0.00    -0.273 OA
BRANCH  21  23
ATOM     23  C   UNL     1      -1.937   4.427  25.598  0.00  0.00    +0.087 C 
BRANCH  23  24
ATOM     24  C   UNL     1      -1.227   4.509  25.187  0.00  0.00    +0.019 C 
ATOM     29  C   UNL     1      -1.445   5.304  25.142  0.00  0.00    +0.001 C 
ATOM     30  C   UNL     1      -0.855   5.707  24.731  0.00  0.00    +0.000 C 
ATOM     31  C   UNL     1      -0.273   5.163  24.521  0.00  0.00    +0.000 C 
ATOM     32  C   UNL     1      -0.502   4.422  24.803  0.00  0.00    +0.001 C 
BRANCH  24  25
ATOM     25  C   UNL     1      -1.157   3.698  25.317  0.00  0.00    +0.115 C 
BRANCH  25  26
ATOM     26  C   UNL     1      -0.541   3.407  25.784  0.00  0.00    +0.365 C 
ATOM     27  O   UNL     1       0.115   3.056  25.428  0.00  0.00    -0.246 OA
ATOM     28  O   UNL     1      -0.582   3.468  26.605  0.00  0.00    -0.246 OA
ENDBRANCH  25  26
ENDBRANCH  24  25
ENDBRANCH  23  24
ENDBRANCH  21  23
ENDBRANCH  19  20
ENDBRANCH  18  19
TORSDOF 11
ENDMDL
MODEL 3
REMARK VINA RESULT:      -7.0      2.110      2.927
REMARK  Name = 
REMARK  11 active torsions:
REMARK  status: ('A' for Active; 'I' for Inactive)
REMARK    1  A    between atoms: O_2  and  C_3
REMARK    2  A    between atoms: C_3  and  C_5
REMARK    3  A    between atoms: C_10  and  C_11
REMARK    4  A    between atoms: C_11  and  C_12
REMARK    5  A    between atoms: C_14  and  C_15
REMARK    6  A    between atoms: C_18  and  C_19
REMARK    7  A    between atoms: C_19  and  N_20
REMARK    8  A    between atoms: C_21  and  C_23
REMARK    9  A    between atoms: C_23  and  C_24
REMARK   10  A    between atoms: C_24  and  C_25
REMARK   11  A    between atoms: C_25  and  C_26
REMARK                            x       y       z     vdW  Elec       q    Type
REMARK                         _______ _______ _______ _____ _____    ______ ____
ROOT
ATOM     12  C   UNL     1       0.708   0.069  23.025  0.00  0.00    +0.026 C 
ATOM     13  C   UNL     1       0.595   0.797  23.398  0.00  0.00    +0.005 C 
ATOM     14  C   UNL     1       0.016   0.876  23.980  0.00  0.00    +0.006 C 
ATOM     18  C   UNL     1      -0.450   0.229  24.190  0.00  0.00    +0.043 C 
ATOM     33  C   UNL     1      -0.337  -0.498  23.818  0.00  0.00    -0.033 C 
ATOM     34  C   UNL     1       0.241  -0.579  23.236  0.00  0.00    -0.048 C 
ATOM     35  C   UNL     1       0.354  -1.306  22.863  0.00  0.00    +0.026 C 
ENDROOT
BRANCH  14  15
ATOM     15  C   UNL     1      -0.097   1.603  24.353  0.00  0.00    +0.000 C 
ATOM     16  C   UNL     1       0.282   1.765  25.067  0.00  0.00    +0.000 C 
ATOM     17  C   UNL     1      -0.590   2.171  24.010  0.00  0.00    +0.000 C 
ENDBRANCH  14  15
BRANCH  12  11
ATOM     11  C   UNL     1       1.286  -0.011  22.443  0.00  0.00    +0.070 C 
BRANCH  11  10
ATOM      5  C   UNL     1       4.706   0.154  23.372  0.00  0.00    +0.077 A 
ATOM      6  C   UNL     1       4.050  -0.345  23.349  0.00  0.00    +0.027 A 
ATOM      7  C   UNL     1       3.331  -0.070  23.051  0.00  0.00    +0.100 A 
ATOM      8  C   UNL     1       3.269   0.705  22.776  0.00  0.00    +0.100 A 
ATOM      9  N   UNL     1       2.495   0.822  22.515  0.00  0.00    -0.229 NA
ATOM     10  C   UNL     1       2.080   0.118  22.628  0.00  0.00    +0.139 A 
ATOM     36  N   UNL     1       2.597  -0.432  22.959  0.00  0.00    -0.229 NA
ATOM     37  C   UNL     1       3.925   1.206  22.799  0.00  0.00    +0.021 A 
ATOM     38  C   UNL     1       4.643   0.930  23.097  0.00  0.00    +0.008 A 
BRANCH   5   3
ATOM      3  C   UNL     1       5.424  -0.121  23.669  0.00  0.00    +0.341 C 
ATOM      4  O   UNL     1       5.482  -0.351  24.459  0.00  0.00    -0.245 OA
BRANCH   3   2
ATOM      1  C   UNL     1       6.782  -0.509  23.453  0.00  0.00    +0.256 C 
ATOM      2  O   UNL     1       6.085  -0.166  23.177  0.00  0.00    -0.441 OA
ENDBRANCH   3   2
ENDBRANCH   5   3
ENDBRANCH  11  10
ENDBRANCH  12  11
BRANCH  18  19
ATOM     19  C   UNL     1      -1.029   0.308  24.773  0.00  0.00    +0.119 C 
BRANCH  19  20
ATOM     20  N   UNL     1      -1.584  -0.291  24.888  0.00  0.00    -0.205 NA
ATOM     21  C   UNL     1      -2.266  -0.143  25.328  0.00  0.00    +0.241 C 
ATOM     22  O   UNL     1      -2.394   0.604  25.652  0.00  0.00    -0.273 OA
BRANCH  21  23
ATOM     23  C   UNL     1      -2.821  -0.742  25.443  0.00  0.00    +0.087 C 
BRANCH  23  24
ATOM     24  C   UNL     1      -3.480  -0.796  24.949  0.00  0.00    +0.019 C 
ATOM     29  C   UNL     1      -3.697  -0.084  25.306  0.00  0.00    +0.001 C 
ATOM     30  C   UNL     1      -4.415   0.156  24.980  0.00  0.00    +0.000 C 
ATOM     31  C   UNL     1      -4.643  -0.407  24.422  0.00  0.00    +0.000 C 
ATOM     32  C   UNL     1      -4.065  -0.995  24.403  0.00  0.00    +0.001 C 
BRANCH  24  25
ATOM     25  C   UNL     1      -3.126  -1.496  24.696  0.00  0.00    +0.115 C 
BRANCH  25  26
ATOM     26  C   UNL     1      -3.479  -2.222  24.866  0.00  0.00    +0.365 C 
ATOM     27  O   UNL     1      -3.516  -2.491  25.645  0.00  0.00    -0.246 OA
ATOM     28  O   UNL     1      -3.796  -2.679  24.257  0.00  0.00    -0.246 OA
ENDBRANCH  25  26
ENDBRANCH  24  25
ENDBRANCH  23  24
ENDBRANCH  21  23
ENDBRANCH  19  20
ENDBRANCH  18  19
TORSDOF 11
ENDMDL
MODEL 4
REMARK VINA RESULT:      -7.0      1.194      2.257
REMARK  Name = 
REMARK  11 active torsions:
REMARK  status: ('A' for Active; 'I' for Inactive)
REMARK    1  A    between atoms: O_2  and  C_3
REMARK    2  A    between atoms: C_3  and  C_5
REMARK    3  A    between atoms: C_10  and  C_11
REMARK    4  A    between atoms: C_11  and  C_12
REMARK    5  A    between atoms: C_14  and  C_15
REMARK    6  A    between atoms: C_18  and  C_19
REMARK    7  A    between atoms: C_19  and  N_20
REMARK    8  A    between atoms: C_21  and  C_23
REMARK    9  A    between atoms: C_23  and  C_24
REMARK   10  A    between atoms: C_24  and  C_25
REMARK   11  A    between atoms: C_25  and  C_26
REMARK                            x       y       z     vdW  Elec       q    Type
REMARK                         _______ _______ _______ _____ _____    ______ ____
ROOT
ATOM     12  C   UNL     1      -1.533  -0.675  25.012  0.00  0.00    +0.026 C 
ATOM     13  C   UNL     1      -2.117  -1.141  24.663  0.00  0.00    +0.005 C 
ATOM     14  C   UNL     1      -2.898  -0.876  24.642  0.00  0.00    +0.006 C 
ATOM     18  C   UNL     1      -3.095  -0.145  24.968  0.00  0.00    +0.043 C 
ATOM     33  C   UNL     1      -2.511   0.322  25.317  0.00  0.00    -0.033 C 
ATOM     34  C   UNL     1      -1.730   0.058  25.339  0.00  0.00    -0.048 C 
ATOM     35  C   UNL     1      -1.146   0.524  25.688  0.00  0.00    +0.026 C 
ENDROOT
BRANCH  14  15
ATOM     15  C   UNL     1      -3.482  -1.343  24.293  0.00  0.00    +0.000 C 
ATOM     16  C   UNL     1      -3.845  -1.943  24.727  0.00  0.00    +0.000 C 
ATOM     17  C   UNL     1      -3.704  -1.209  23.509  0.00  0.00    +0.000 C 
ENDBRANCH  14  15
BRANCH  12  11
ATOM     11  C   UNL     1      -0.752  -0.939  25.034  0.00  0.00    +0.070 C 
BRANCH  11  10
ATOM      5  C   UNL     1       1.721  -0.065  22.646  0.00  0.00    +0.077 A 
ATOM      6  C   UNL     1       1.561  -0.086  23.454  0.00  0.00    +0.027 A 
ATOM      7  C   UNL     1       0.833  -0.367  23.724  0.00  0.00    +0.100 A 
ATOM      8  C   UNL     1       0.266  -0.627  23.184  0.00  0.00    +0.100 A 
ATOM      9  N   UNL     1      -0.396  -0.873  23.609  0.00  0.00    -0.229 NA
ATOM     10  C   UNL     1      -0.239  -0.765  24.411  0.00  0.00    +0.139 A 
ATOM     36  N   UNL     1       0.521  -0.452  24.482  0.00  0.00    -0.229 NA
ATOM     37  C   UNL     1       0.427  -0.607  22.375  0.00  0.00    +0.021 A 
ATOM     38  C   UNL     1       1.154  -0.326  22.106  0.00  0.00    +0.008 A 
BRANCH   5   3
ATOM      3  C   UNL     1       2.448   0.216  22.377  0.00  0.00    +0.341 C 
ATOM      4  O   UNL     1       2.705   0.031  21.615  0.00  0.00    -0.245 OA
BRANCH   3   2
ATOM      1  C   UNL     1       3.681   0.890  22.634  0.00  0.00    +0.256 C 
ATOM      2  O   UNL     1       2.919   0.681  22.869  0.00  0.00    -0.441 OA
ENDBRANCH   3   2
ENDBRANCH   5   3
ENDBRANCH  11  10
ENDBRANCH  12  11
BRANCH  18  19
ATOM     19  C   UNL     1      -3.876   0.120  24.947  0.00  0.00    +0.119 C 
BRANCH  19  20
ATOM     20  N   UNL     1      -4.056   0.846  24.600  0.00  0.00    -0.205 NA
ATOM     21  C   UNL     1      -4.686   1.296  24.886  0.00  0.00    +0.241 C 
ATOM     22  O   UNL     1      -5.135   1.020  25.520  0.00  0.00    -0.273 OA
BRANCH  21  23
ATOM     23  C   UNL     1      -4.866   2.022  24.539  0.00  0.00    +0.087 C 
BRANCH  23  24
ATOM     24  C   UNL     1      -4.914   2.702  25.004  0.00  0.00    +0.019 C 
ATOM     29  C   UNL     1      -5.672   2.424  25.177  0.00  0.00    +0.001 C 
ATOM     30  C   UNL     1      -6.029   2.961  25.692  0.00  0.00    +0.000 C 
ATOM     31  C   UNL     1      -5.492   3.569  25.837  0.00  0.00    +0.000 C 
ATOM     32  C   UNL     1      -4.803   3.409  25.412  0.00  0.00    +0.001 C 
BRANCH  24  25
ATOM     25  C   UNL     1      -4.147   2.837  24.734  0.00  0.00    +0.115 C 
BRANCH  25  26
ATOM     26  C   UNL     1      -3.991   3.481  24.242  0.00  0.00    +0.365 C 
ATOM     27  O   UNL     1      -4.291   3.497  23.474  0.00  0.00    -0.246 OA
ATOM     28  O   UNL     1      -3.533   4.109  24.519  0.00  0.00    -0.246 OA
ENDBRANCH  25  26
ENDBRANCH  24  25
ENDBRANCH  23  24
ENDBRANCH  21  23
ENDBRANCH  19  20
ENDBRANCH  18  19
TORSDOF 11
ENDMDL
MODEL 5
REMARK VINA RESULT:      -6.7      1.199      7.125
REMARK  Name = 
REMARK  11 active torsions:
REMARK  status: ('A' for Active; 'I' for Inactive)
REMARK    1  A    between atoms: O_2  and  C_3
REMARK    2  A    between atoms: C_3  and  C_5
REMARK    3  A    between atoms: C_10  and  C_11
REMARK    4  A    between atoms: C_11  and  C_12
REMARK    5  A    between atoms: C_14  and  C_15
REMARK    6  A    between atoms: C_18  and  C_19
REMARK    7  A    between atoms: C_19  and  N_20
REMARK    8  A    between atoms: C_21  and  C_23
REMARK    9  A    between atoms: C_23  and  C_24
REMARK   10  A    between atoms: C_24  and  C_25
REMARK   11  A    between atoms: C_25  and  C_26
REMARK                            x       y       z     vdW  Elec       q    Type
REMARK                         _______ _______ _______ _____ _____    ______ ____
ROOT
ATOM     12  C   UNL     1      -1.111  -0.308  24.684  0.00  0.00    +0.026 C 
ATOM     13  C   UNL     1      -0.979   0.506  24.693  0.00  0.00    +0.005 C 
ATOM     14  C   UNL     1      -0.301   0.818  24.341  0.00  0.00    +0.006 C 
ATOM     18  C   UNL     1       0.245   0.316  23.980  0.00  0.00    +0.043 C 
ATOM     33  C   UNL     1       0.114  -0.498  23.971  0.00  0.00    -0.033 C 
ATOM     34  C   UNL     1      -0.564  -0.811  24.323  0.00  0.00    -0.048 C 
ATOM     35  C   UNL     1      -0.696  -1.625  24.314  0.00  0.00    +0.026 C 
ENDROOT
BRANCH  14  15
ATOM     15  C   UNL     1      -0.169   1.632  24.349  0.00  0.00    +0.000 C 
ATOM     16  C   UNL     1       0.209   1.983  24.993  0.00  0.00    +0.000 C 
ATOM     17  C   UNL     1      -0.416   2.097  23.713  0.00  0.00    +0.000 C 
ENDBRANCH  14  15
BRANCH  12  11
ATOM     11  C   UNL     1      -1.788  -0.621  25.035  0.00  0.00    +0.070 C 
BRANCH  11  10
ATOM      5  C   UNL     1      -4.779   1.286  25.069  0.00  0.00    +0.077 A 
ATOM      6  C   UNL     1      -4.066   1.168  25.464  0.00  0.00    +0.027 A 
ATOM      7  C   UNL     1      -3.530   0.603  25.191  0.00  0.00    +0.100 A 
ATOM      8  C   UNL     1      -3.708   0.156  24.522  0.00  0.00    +0.100 A 
ATOM      9  N   UNL     1      -3.078  -0.357  24.382  0.00  0.00    -0.229 NA
ATOM     10  C   UNL     1      -2.509  -0.227  24.965  0.00  0.00    +0.139 A 
ATOM     36  N   UNL     1      -2.789   0.367  25.464  0.00  0.00    -0.229 NA
ATOM     37  C   UNL     1      -4.423   0.273  24.125  0.00  0.00    +0.021 A 
ATOM     38  C   UNL     1      -4.958   0.838  24.399  0.00  0.00    +0.008 A 
BRANCH   5   3
ATOM      3  C   UNL     1      -5.314   1.850  25.342  0.00  0.00    +0.341 C 
ATOM      4  O   UNL     1      -5.970   1.616  25.785  0.00  0.00    -0.245 OA
BRANCH   3   2
ATOM      1  C   UNL     1      -5.649   3.224  25.551  0.00  0.00    +0.256 C 
ATOM      2  O   UNL     1      -5.195   2.649  25.173  0.00  0.00    -0.441 OA
ENDBRANCH   3   2
ENDBRANCH   5   3
ENDBRANCH  11  10
ENDBRANCH  12  11
BRANCH  18  19
ATOM     19  C   UNL     1       0.923   0.628  23.628  0.00  0.00    +0.119 C 
BRANCH  19  20
ATOM     20  N   UNL     1       1.522   0.124  23.368  0.00  0.00    -0.205 NA
ATOM     21  C   UNL     1       2.271   0.426  23.196  0.00  0.00    +0.241 C 
ATOM     22  O   UNL     1       2.419   1.233  23.284  0.00  0.00    -0.273 OA
BRANCH  21  23
ATOM     23  C   UNL     1       2.869  -0.077  22.936  0.00  0.00    +0.087 C 
BRANCH  23  24
ATOM     24  C   UNL     1       3.659   0.155  22.997  0.00  0.00    +0.019 C 
ATOM     29  C   UNL     1       3.493   0.589  22.314  0.00  0.00    +0.001 C 
ATOM     30  C   UNL     1       4.180   0.988  22.093  0.00  0.00    +0.000 C 
ATOM     31  C   UNL     1       4.770   0.800  22.637  0.00  0.00    +0.000 C 
ATOM     32  C   UNL     1       4.448   0.286  23.196  0.00  0.00    +0.001 C 
BRANCH  24  25
ATOM     25  C   UNL     1       3.660  -0.327  23.665  0.00  0.00    +0.115 C 
BRANCH  25  26
ATOM     26  C   UNL     1       4.163  -0.981  23.702  0.00  0.00    +0.365 C 
ATOM     27  O   UNL     1       4.906  -0.911  24.053  0.00  0.00    -0.246 OA
ATOM     28  O   UNL     1       3.922  -1.704  23.387  0.00  0.00    -0.246 OA
ENDBRANCH  25  26
ENDBRANCH  24  25
ENDBRANCH  23  24
ENDBRANCH  21  23
ENDBRANCH  19  20
ENDBRANCH  18  19
TORSDOF 11
ENDMDL
