MODEL 1
REMARK VINA RESULT:      -7.9      0.000      0.000
REMARK  Name = 
REMARK  2 active torsions:
REMARK  status: ('A' for Active; 'I' for Inactive)
REMARK    1  A    between atoms: N_6  and  C_7
REMARK    2  A    between atoms: C_7  and  C_8
REMARK                            x       y       z     vdW  Elec       q    Type
REMARK                         _______ _______ _______ _____ _____    ______ ____
ROOT
ATOM      1  C   UNL     1      -5.490   3.490  25.631  0.00  0.00    +0.117 C 
ATOM      2  N   UNL     1      -5.047   2.861  25.332  0.00  0.00    -0.261 N 
ATOM      3  C   UNL     1      -5.328   2.100  25.179  0.00  0.00    +0.116 C 
ATOM      4  C   UNL     1      -4.701   1.652  24.886  0.00  0.00    +0.113 C 
ATOM      5  C   UNL     1      -4.651   0.866  24.641  0.00  0.00    +0.094 C 
ATOM      6  N   UNL     1      -3.934   0.563  24.368  0.00  0.00    -0.263 NA
ATOM     14  C   UNL     1      -3.266   1.047  24.340  0.00  0.00    +0.094 C 
ATOM     15  C   UNL     1      -3.315   1.833  24.585  0.00  0.00    +0.112 C 
ATOM     16  N   UNL     1      -4.033   2.136  24.858  0.00  0.00    -0.261 N 
ATOM     17  C   UNL     1      -4.247   2.883  25.134  0.00  0.00    +0.307 C 
ATOM     18  O   UNL     1      -3.749   3.537  25.199  0.00  0.00    -0.252 OA
ENDROOT
BRANCH   6   7
ATOM      7  C   UNL     1      -3.884  -0.223  24.123  0.00  0.00    +0.137 C 
BRANCH   7   8
ATOM      8  C   UNL     1      -3.699  -0.814  24.667  0.00  0.00    +0.137 A 
ATOM      9  N   UNL     1      -3.354  -0.702  25.408  0.00  0.00    -0.228 NA
ATOM     10  C   UNL     1      -3.269  -1.441  25.765  0.00  0.00    +0.119 A 
ATOM     11  C   UNL     1      -3.562  -2.011  25.245  0.00  0.00    +0.098 A 
ATOM     12  N   UNL     1      -3.828  -1.624  24.566  0.00  0.00    -0.311 N 
ATOM     13  C   UNL     1      -4.163  -1.983  23.903  0.00  0.00    +0.132 C 
ENDBRANCH   7   8
ENDBRANCH   6   7
TORSDOF 2
ENDMDL
MODEL 2
REMARK VINA RESULT:      -7.5      2.355      3.289
REMARK  Name = 
REMARK  2 active torsions:
REMARK  status: ('A' for Active; 'I' for Inactive)
REMARK    1  A    between atoms: N_6  and  C_7
REMARK    2  A    between atoms: C_7  and  C_8
REMARK                            x       y       z     vdW  Elec       q    Type
REMARK                         _______ _______ _______ _____ _____    ______ ____
ROOT
ATOM      1  C   UNL     1      -5.839   1.975  25.346  0.00  0.00    +0.117 C 
ATOM      2  N   UNL     1      -5.083   2.276  25.210  0.00  0.00    -0.261 N 
ATOM      3  C   UNL     1      -4.421   1.840  24.979  0.00  0.00    +0.116 C 
ATOM      4  C   UNL     1      -3.786   2.360  24.906  0.00  0.00    +0.113 C 
ATOM      5  C   UNL     1      -2.997   2.243  24.695  0.00  0.00    +0.094 C 
ATOM      6  N   UNL     1      -2.477   2.882  24.669  0.00  0.00    -0.263 NA
ATOM     14  C   UNL     1      -2.746   3.640  24.855  0.00  0.00    +0.094 C 
ATOM     15  C   UNL     1      -3.534   3.759  25.067  0.00  0.00    +0.112 C 
ATOM     16  N   UNL     1      -4.055   3.118  25.092  0.00  0.00    -0.261 N 
ATOM     17  C   UNL     1      -4.856   3.066  25.280  0.00  0.00    +0.307 C 
ATOM     18  O   UNL     1      -5.345   3.694  25.499  0.00  0.00    -0.252 OA
ENDROOT
BRANCH   6   7
ATOM      7  C   UNL     1      -1.688   2.765  24.458  0.00  0.00    +0.137 C 
BRANCH   7   8
ATOM      8  C   UNL     1      -1.121   2.626  25.040  0.00  0.00    +0.137 A 
ATOM      9  N   UNL     1      -1.145   2.903  25.817  0.00  0.00    -0.228 NA
ATOM     10  C   UNL     1      -0.468   2.633  26.205  0.00  0.00    +0.119 A 
ATOM     11  C   UNL     1      -0.026   2.190  25.667  0.00  0.00    +0.098 A 
ATOM     12  N   UNL     1      -0.429   2.185  24.947  0.00  0.00    -0.311 N 
ATOM     13  C   UNL     1      -0.184   1.807  24.257  0.00  0.00    +0.132 C 
ENDBRANCH   7   8
ENDBRANCH   6   7
TORSDOF 2
ENDMDL
MODEL 3
REMARK VINA RESULT:      -7.5      1.942      3.768
REMARK  Name = 
REMARK  2 active torsions:
REMARK  status: ('A' for Active; 'I' for Inactive)
REMARK    1  A    between atoms: N_6  and  C_7
REMARK    2  A    between atoms: C_7  and  C_8
REMARK                            x       y       z     vdW  Elec       q    Type
REMARK                         _______ _______ _______ _____ _____    ______ ____
ROOT
ATOM      1  C   UNL     1      -0.646  -0.378  24.842  0.00  0.00    +0.117 C 
ATOM      2  N   UNL     1      -1.260   0.128  24.622  0.00  0.00    -0.261 N 
ATOM      3  C   UNL     1      -2.028   0.118  24.924  0.00  0.00    +0.116 C 
ATOM      4  C   UNL     1      -2.456   0.716  24.550  0.00  0.00    +0.113 C 
ATOM      5  C   UNL     1      -3.239   0.964  24.625  0.00  0.00    +0.094 C 
ATOM      6  N   UNL     1      -3.519   1.591  24.169  0.00  0.00    -0.263 NA
ATOM     14  C   UNL     1      -3.016   1.970  23.636  0.00  0.00    +0.094 C 
ATOM     15  C   UNL     1      -2.233   1.722  23.560  0.00  0.00    +0.112 C 
ATOM     16  N   UNL     1      -1.953   1.095  24.018  0.00  0.00    -0.261 N 
ATOM     17  C   UNL     1      -1.214   0.731  24.062  0.00  0.00    +0.307 C 
ATOM     18  O   UNL     1      -0.545   0.936  23.623  0.00  0.00    -0.252 OA
ENDROOT
BRANCH   6   7
ATOM      7  C   UNL     1      -4.302   1.840  24.244  0.00  0.00    +0.137 C 
BRANCH   7   8
ATOM      8  C   UNL     1      -4.497   2.434  24.781  0.00  0.00    +0.137 A 
ATOM      9  N   UNL     1      -4.006   3.052  25.021  0.00  0.00    -0.228 NA
ATOM     10  C   UNL     1      -4.423   3.515  25.562  0.00  0.00    +0.119 A 
ATOM     11  C   UNL     1      -5.173   3.183  25.657  0.00  0.00    +0.098 A 
ATOM     12  N   UNL     1      -5.218   2.515  25.175  0.00  0.00    -0.311 N 
ATOM     13  C   UNL     1      -5.871   2.015  25.099  0.00  0.00    +0.132 C 
ENDBRANCH   7   8
ENDBRANCH   6   7
TORSDOF 2
ENDMDL
MODEL 4
REMARK VINA RESULT:      -7.5      1.463      3.853
REMARK  Name = 
REMARK  2 active torsions:
REMARK  status: ('A' for Active; 'I' for Inactive)
REMARK    1  A    between atoms: N_6  and  C_7
REMARK    2  A    between atoms: C_7  and  C_8
REMARK                            x       y       z     vdW  Elec       q    Type
REMARK                         _______ _______ _______ _____ _____    ______ ____
ROOT
ATOM      1  C   UNL     1      -3.600  -2.548  24.464  0.00  0.00    +0.117 C 
ATOM      2  N   UNL     1      -3.534  -1.726  24.492  0.00  0.00    -0.261 N 
ATOM      3  C   UNL     1      -4.062  -1.186  24.159  0.00  0.00    +0.116 C 
ATOM      4  C   UNL     1      -3.783  -0.427  24.318  0.00  0.00    +0.113 C 
ATOM      5  C   UNL     1      -4.075   0.321  24.126  0.00  0.00    +0.094 C 
ATOM      6  N   UNL     1      -3.668   0.997  24.365  0.00  0.00    -0.263 NA
ATOM     14  C   UNL     1      -2.968   0.926  24.796  0.00  0.00    +0.094 C 
ATOM     15  C   UNL     1      -2.675   0.180  24.988  0.00  0.00    +0.112 C 
ATOM     16  N   UNL     1      -3.083  -0.497  24.749  0.00  0.00    -0.261 N 
ATOM     17  C   UNL     1      -2.929  -1.300  24.856  0.00  0.00    +0.307 C 
ATOM     18  O   UNL     1      -2.284  -1.622  25.258  0.00  0.00    -0.252 OA
ENDROOT
BRANCH   6   7
ATOM      7  C   UNL     1      -3.961   1.744  24.173  0.00  0.00    +0.137 C 
BRANCH   7   8
ATOM      8  C   UNL     1      -4.447   2.146  24.704  0.00  0.00    +0.137 A 
ATOM      9  N   UNL     1      -5.013   1.804  25.198  0.00  0.00    -0.228 NA
ATOM     10  C   UNL     1      -5.370   2.407  25.633  0.00  0.00    +0.119 A 
ATOM     11  C   UNL     1      -5.024   3.123  25.408  0.00  0.00    +0.098 A 
ATOM     12  N   UNL     1      -4.454   2.961  24.834  0.00  0.00    -0.311 N 
ATOM     13  C   UNL     1      -3.976   3.517  24.456  0.00  0.00    +0.132 C 
ENDBRANCH   7   8
ENDBRANCH   6   7
TORSDOF 2
ENDMDL
MODEL 5
REMARK VINA RESULT:      -7.4      1.492      1.969
REMARK  Name = 
REMARK  2 active torsions:
REMARK  status: ('A' for Active; 'I' for Inactive)
REMARK    1  A    between atoms: N_6  and  C_7
REMARK    2  A    between atoms: C_7  and  C_8
REMARK                            x       y       z     vdW  Elec       q    Type
REMARK                         _______ _______ _______ _____ _____    ______ ____
ROOT
ATOM      1  C   UNL     1      -5.131   3.546  25.528  0.00  0.00    +0.117 C 
ATOM      2  N   UNL     1      -4.736   2.872  25.262  0.00  0.00    -0.261 N 
ATOM      3  C   UNL     1      -3.933   2.822  25.077  0.00  0.00    +0.116 C 
ATOM      4  C   UNL     1      -3.776   2.049  24.835  0.00  0.00    +0.113 C 
ATOM      5  C   UNL     1      -3.081   1.679  24.587  0.00  0.00    +0.094 C 
ATOM      6  N   UNL     1      -3.092   0.883  24.374  0.00  0.00    -0.263 NA
ATOM     14  C   UNL     1      -3.797   0.456  24.408  0.00  0.00    +0.094 C 
ATOM     15  C   UNL     1      -4.491   0.825  24.656  0.00  0.00    +0.112 C 
ATOM     16  N   UNL     1      -4.481   1.622  24.869  0.00  0.00    -0.261 N 
ATOM     17  C   UNL     1      -5.074   2.131  25.133  0.00  0.00    +0.307 C 
ATOM     18  O   UNL     1      -5.867   1.932  25.248  0.00  0.00    -0.252 OA
ENDROOT
BRANCH   6   7
ATOM      7  C   UNL     1      -2.397   0.512  24.126  0.00  0.00    +0.137 C 
BRANCH   7   8
ATOM      8  C   UNL     1      -1.920   0.120  24.672  0.00  0.00    +0.137 A 
ATOM      9  N   UNL     1      -2.178  -0.258  25.358  0.00  0.00    -0.228 NA
ATOM     10  C   UNL     1      -1.518  -0.575  25.739  0.00  0.00    +0.119 A 
ATOM     11  C   UNL     1      -0.852  -0.392  25.288  0.00  0.00    +0.098 A 
ATOM     12  N   UNL     1      -1.100   0.038  24.628  0.00  0.00    -0.311 N 
ATOM     13  C   UNL     1      -0.614   0.332  24.031  0.00  0.00    +0.132 C 
ENDBRANCH   7   8
ENDBRANCH   6   7
TORSDOF 2
ENDMDL
