REMARK  Name = 
REMARK  8 active torsions:
REMARK  status: ('A' for Active; 'I' for Inactive)
REMARK    1  A    between atoms: N_2  and  C_3
REMARK    2  A    between atoms: C_3  and  C_4
REMARK    3  A    between atoms: C_6  and  C_8
REMARK    4  A    between atoms: C_8  and  C_9
REMARK    5  A    between atoms: C_14  and  C_15
REMARK    6  A    between atoms: C_15  and  C_16
REMARK    7  A    between atoms: C_19  and  C_21
REMARK    8  A    between atoms: C_24  and  C_27
REMARK                            x       y       z     vdW  Elec       q    Type
REMARK                         _______ _______ _______ _____ _____    ______ ____
ROOT
ATOM     15  C   UNL     1       4.875  -5.341   0.000  0.00  0.00    +0.051 C 
ENDROOT
BRANCH  15  14
ATOM      9  C   UNL     1       3.638  -6.056   0.000  0.00  0.00    +0.012 C 
ATOM     10  C   UNL     1       2.813  -6.056   0.000  0.00  0.00    +0.019 C 
ATOM     11  C   UNL     1       2.400  -5.341   0.000  0.00  0.00    +0.089 C 
ATOM     12  N   UNL     1       2.813  -4.627   0.000  0.00  0.00    -0.218 NA
ATOM     13  C   UNL     1       3.638  -4.627   0.000  0.00  0.00    +0.089 C 
ATOM     14  C   UNL     1       4.050  -5.341   0.000  0.00  0.00    +0.024 C 
BRANCH   9   8
ATOM      8  C   UNL     1       4.050  -6.770   0.000  0.00  0.00    +0.085 C 
BRANCH   8   6
ATOM      1  C   UNL     1       2.400  -8.199   0.000  0.00  0.00    +0.116 C 
ATOM      2  N   UNL     1       2.813  -7.485   0.000  0.00  0.00    -0.266 N 
ATOM      6  C   UNL     1       3.638  -7.485   0.000  0.00  0.00    +0.226 C 
ATOM      7  O   UNL     1       4.050  -8.199   0.000  0.00  0.00    -0.275 OA
BRANCH   2   3
ATOM      3  C   UNL     1       2.400  -6.770   0.000  0.00  0.00    +0.172 C 
BRANCH   3   4
ATOM      4  C   UNL     1       1.575  -6.770   0.000  0.00  0.00    -0.056 C 
ATOM      5  C   UNL     1       0.750  -6.770   0.000  0.00  0.00    -0.012 C 
ENDBRANCH   3   4
ENDBRANCH   2   3
ENDBRANCH   8   6
ENDBRANCH   9   8
ENDBRANCH  15  14
BRANCH  15  16
ATOM     16  C   UNL     1       5.288  -4.627   0.000  0.00  0.00    +0.101 A 
ATOM     17  N   UNL     1       4.952  -3.873   0.000  0.00  0.00    -0.081 NA
ATOM     18  O   UNL     1       5.565  -3.321   0.000  0.00  0.00    -0.354 OA
ATOM     19  C   UNL     1       6.280  -3.734   0.000  0.00  0.00    +0.177 A 
ATOM     20  C   UNL     1       6.108  -4.541   0.000  0.00  0.00    +0.058 A 
BRANCH  19  21
ATOM     21  C   UNL     1       7.033  -3.398   0.000  0.00  0.00    +0.037 A 
ATOM     22  C   UNL     1       7.120  -2.578   0.000  0.00  0.00    +0.003 A 
ATOM     23  C   UNL     1       7.873  -2.242   0.000  0.00  0.00    -0.004 A 
ATOM     24  C   UNL     1       8.541  -2.727   0.000  0.00  0.00    -0.023 A 
ATOM     25  C   UNL     1       8.454  -3.548   0.000  0.00  0.00    -0.004 A 
ATOM     26  C   UNL     1       7.701  -3.883   0.000  0.00  0.00    +0.003 A 
BRANCH  24  27
ATOM     27  C   UNL     1       9.294  -2.392   0.000  0.00  0.00    +0.019 C 
ATOM     28  C   UNL     1      10.048  -2.056   0.000  0.00  0.00    +0.004 C 
ATOM     29  C   UNL     1       9.630  -3.145   0.000  0.00  0.00    +0.004 C 
ATOM     30  C   UNL     1       8.959  -1.638   0.000  0.00  0.00    +0.004 C 
ENDBRANCH  24  27
ENDBRANCH  19  21
ENDBRANCH  15  16
TORSDOF 8
