REMARK  Name = 
REMARK  6 active torsions:
REMARK  status: ('A' for Active; 'I' for Inactive)
REMARK    1  A    between atoms: C_3  and  N_16
REMARK    2  A    between atoms: C_6  and  C_7
REMARK    3  A    between atoms: C_7  and  N_8
REMARK    4  A    between atoms: C_9  and  C_11
REMARK    5  A    between atoms: N_16  and  C_17
REMARK    6  A    between atoms: C_17  and  C_18
REMARK                            x       y       z     vdW  Elec       q    Type
REMARK                         _______ _______ _______ _____ _____    ______ ____
ROOT
ATOM      1  O   UNL     1       2.318  -1.136   0.000  0.00  0.00    -0.219 OA
ATOM      2  C   UNL     1       2.318  -1.961   0.000  0.00  0.00    +0.199 C 
ATOM      3  C   UNL     1       2.986  -2.446   0.000  0.00  0.00    +0.136 C 
ATOM      4  C   UNL     1       2.731  -3.231   0.000  0.00  0.00    +0.162 C 
ATOM      5  O   UNL     1       1.906  -3.231   0.000  0.00  0.00    -0.350 OA
ATOM      6  C   UNL     1       1.651  -2.446   0.000  0.00  0.00    +0.169 C 
ENDROOT
BRANCH   6   7
ATOM      7  C   UNL     1       0.866  -2.191   0.000  0.00  0.00    +0.147 C 
BRANCH   7   8
ATOM      8  N   UNL     1       0.253  -2.743   0.000  0.00  0.00    -0.203 NA
ATOM      9  C   UNL     1      -0.531  -2.488   0.000  0.00  0.00    +0.241 C 
ATOM     10  O   UNL     1      -0.703  -1.681   0.000  0.00  0.00    -0.273 OA
BRANCH   9  11
ATOM     11  C   UNL     1      -1.145  -3.041   0.000  0.00  0.00    +0.078 C 
ATOM     12  C   UNL     1      -1.058  -3.861   0.000  0.00  0.00    +0.009 C 
ATOM     13  C   UNL     1      -1.812  -4.197   0.000  0.00  0.00    +0.001 C 
ATOM     14  C   UNL     1      -2.364  -3.583   0.000  0.00  0.00    +0.001 C 
ATOM     15  C   UNL     1      -1.952  -2.869   0.000  0.00  0.00    +0.009 C 
ENDBRANCH   9  11
ENDBRANCH   7   8
ENDBRANCH   6   7
BRANCH   3  16
ATOM     16  N   UNL     1       3.770  -2.191   0.000  0.00  0.00    -0.206 NA
BRANCH  16  17
ATOM     17  C   UNL     1       3.942  -1.384   0.000  0.00  0.00    +0.154 C 
BRANCH  17  18
ATOM     18  C   UNL     1       4.726  -1.129   0.000  0.00  0.00    +0.157 A 
ATOM     19  N   UNL     1       4.981  -0.345   0.000  0.00  0.00    -0.226 NA
ATOM     20  C   UNL     1       5.806  -0.345   0.000  0.00  0.00    +0.121 A 
ATOM     21  C   UNL     1       6.061  -1.129   0.000  0.00  0.00    +0.121 A 
ATOM     22  N   UNL     1       5.394  -1.614   0.000  0.00  0.00    -0.226 NA
ENDBRANCH  17  18
ENDBRANCH  16  17
ENDBRANCH   3  16
TORSDOF 6
