MODEL 1
REMARK VINA RESULT:      -8.5      0.000      0.000
REMARK  Name = 
REMARK  6 active torsions:
REMARK  status: ('A' for Active; 'I' for Inactive)
REMARK    1  A    between atoms: O_2  and  C_3
REMARK    2  A    between atoms: C_6  and  C_7
REMARK    3  A    between atoms: C_7  and  N_8
REMARK    4  A    between atoms: N_8  and  C_9
REMARK    5  A    between atoms: C_12  and  C_13
REMARK    6  A    between atoms: C_13  and  N_14
REMARK                            x       y       z     vdW  Elec       q    Type
REMARK                         _______ _______ _______ _____ _____    ______ ____
ROOT
ATOM      9  C   UNL     1      -2.795   1.617  24.863  0.00  0.00    +0.135 C 
ATOM     10  C   UNL     1      -3.407   2.158  24.974  0.00  0.00    +0.162 C 
ATOM     11  O   UNL     1      -3.073   2.909  25.057  0.00  0.00    -0.350 OA
ATOM     12  C   UNL     1      -2.254   2.831  24.997  0.00  0.00    +0.169 C 
ATOM     18  C   UNL     1      -2.082   2.033  24.877  0.00  0.00    +0.199 C 
ATOM     19  O   UNL     1      -1.330   1.707  24.787  0.00  0.00    -0.219 OA
ENDROOT
BRANCH   9   8
ATOM      8  N   UNL     1      -2.880   0.804  24.757  0.00  0.00    -0.209 NA
BRANCH   8   7
ATOM      7  C   UNL     1      -3.622   0.453  24.832  0.00  0.00    +0.115 C 
BRANCH   7   6
ATOM      3  C   UNL     1      -3.878  -1.987  24.510  0.00  0.00    +0.139 A 
ATOM      4  C   UNL     1      -4.107  -1.466  23.912  0.00  0.00    +0.037 A 
ATOM      5  C   UNL     1      -4.021  -0.653  24.019  0.00  0.00    +0.000 A 
ATOM      6  C   UNL     1      -3.708  -0.360  24.725  0.00  0.00    -0.005 A 
ATOM     20  C   UNL     1      -3.479  -0.882  25.322  0.00  0.00    +0.000 A 
ATOM     21  C   UNL     1      -3.565  -1.695  25.214  0.00  0.00    +0.037 A 
BRANCH   3   2
ATOM      1  C   UNL     1      -3.321  -3.303  24.526  0.00  0.00    +0.252 C 
ATOM      2  O   UNL     1      -3.963  -2.801  24.402  0.00  0.00    -0.471 OA
ENDBRANCH   3   2
ENDBRANCH   7   6
ENDBRANCH   8   7
ENDBRANCH   9   8
BRANCH  12  13
ATOM     13  C   UNL     1      -1.704   3.443  25.047  0.00  0.00    +0.147 C 
BRANCH  13  14
ATOM     14  N   UNL     1      -1.961   4.226  25.091  0.00  0.00    -0.203 NA
ATOM     15  C   UNL     1      -1.412   4.842  25.085  0.00  0.00    +0.242 C 
ATOM     16  C   UNL     1      -1.669   5.624  25.129  0.00  0.00    +0.096 C 
ATOM     17  O   UNL     1      -0.606   4.674  25.036  0.00  0.00    -0.273 OA
ENDBRANCH  13  14
ENDBRANCH  12  13
TORSDOF 6
ENDMDL
MODEL 2
REMARK VINA RESULT:      -7.9      1.203      5.576
REMARK  Name = 
REMARK  6 active torsions:
REMARK  status: ('A' for Active; 'I' for Inactive)
REMARK    1  A    between atoms: O_2  and  C_3
REMARK    2  A    between atoms: C_6  and  C_7
REMARK    3  A    between atoms: C_7  and  N_8
REMARK    4  A    between atoms: N_8  and  C_9
REMARK    5  A    between atoms: C_12  and  C_13
REMARK    6  A    between atoms: C_13  and  N_14
REMARK                            x       y       z     vdW  Elec       q    Type
REMARK                         _______ _______ _______ _____ _____    ______ ____
ROOT
ATOM      9  C   UNL     1      -2.481   0.979  24.796  0.00  0.00    +0.135 C 
ATOM     10  C   UNL     1      -2.037   0.432  25.225  0.00  0.00    +0.162 C 
ATOM     11  O   UNL     1      -2.352  -0.318  25.085  0.00  0.00    -0.350 OA
ATOM     12  C   UNL     1      -2.991  -0.234  24.569  0.00  0.00    +0.169 C 
ATOM     18  C   UNL     1      -3.070   0.568  24.390  0.00  0.00    +0.199 C 
ATOM     19  O   UNL     1      -3.639   0.900  23.894  0.00  0.00    -0.219 OA
ENDROOT
BRANCH   9   8
ATOM      8  N   UNL     1      -2.357   1.795  24.776  0.00  0.00    -0.209 NA
BRANCH   8   7
ATOM      7  C   UNL     1      -1.866   2.151  25.334  0.00  0.00    +0.115 C 
BRANCH   7   6
ATOM      3  C   UNL     1      -1.512   4.600  25.286  0.00  0.00    +0.139 A 
ATOM      4  C   UNL     1      -0.930   4.094  24.993  0.00  0.00    +0.037 A 
ATOM      5  C   UNL     1      -1.048   3.277  25.009  0.00  0.00    +0.000 A 
ATOM      6  C   UNL     1      -1.748   2.967  25.318  0.00  0.00    -0.005 A 
ATOM     20  C   UNL     1      -2.329   3.474  25.611  0.00  0.00    +0.000 A 
ATOM     21  C   UNL     1      -2.211   4.291  25.595  0.00  0.00    +0.037 A 
BRANCH   3   2
ATOM      1  C   UNL     1      -0.934   5.756  24.676  0.00  0.00    +0.252 C 
ATOM      2  O   UNL     1      -1.394   5.416  25.270  0.00  0.00    -0.471 OA
ENDBRANCH   3   2
ENDBRANCH   7   6
ENDBRANCH   8   7
ENDBRANCH   9   8
BRANCH  12  13
ATOM     13  C   UNL     1      -3.466  -0.844  24.282  0.00  0.00    +0.147 C 
BRANCH  13  14
ATOM     14  N   UNL     1      -3.320  -1.623  24.512  0.00  0.00    -0.203 NA
ATOM     15  C   UNL     1      -3.794  -2.234  24.223  0.00  0.00    +0.242 C 
ATOM     16  C   UNL     1      -3.647  -3.013  24.453  0.00  0.00    +0.096 C 
ATOM     17  O   UNL     1      -4.414  -2.065  23.706  0.00  0.00    -0.273 OA
ENDBRANCH  13  14
ENDBRANCH  12  13
TORSDOF 6
ENDMDL
MODEL 3
REMARK VINA RESULT:      -6.8      2.572      4.001
REMARK  Name = 
REMARK  6 active torsions:
REMARK  status: ('A' for Active; 'I' for Inactive)
REMARK    1  A    between atoms: O_2  and  C_3
REMARK    2  A    between atoms: C_6  and  C_7
REMARK    3  A    between atoms: C_7  and  N_8
REMARK    4  A    between atoms: N_8  and  C_9
REMARK    5  A    between atoms: C_12  and  C_13
REMARK    6  A    between atoms: C_13  and  N_14
REMARK                            x       y       z     vdW  Elec       q    Type
REMARK                         _______ _______ _______ _____ _____    ______ ____
ROOT
ATOM      9  C   UNL     1      -1.709   0.718  24.318  0.00  0.00    +0.135 C 
ATOM     10  C   UNL     1      -1.621  -0.100  24.270  0.00  0.00    +0.162 C 
ATOM     11  O   UNL     1      -0.846  -0.261  24.037  0.00  0.00    -0.350 OA
ATOM     12  C   UNL     1      -0.454   0.459  23.942  0.00  0.00    +0.169 C 
ATOM     18  C   UNL     1      -0.987   1.064  24.116  0.00  0.00    +0.199 C 
ATOM     19  O   UNL     1      -0.828   1.873  24.091  0.00  0.00    -0.219 OA
ENDROOT
BRANCH   9   8
ATOM      8  N   UNL     1      -2.397   1.121  24.532  0.00  0.00    -0.209 NA
BRANCH   8   7
ATOM      7  C   UNL     1      -3.130   0.851  24.269  0.00  0.00    +0.115 C 
BRANCH   7   6
ATOM      3  C   UNL     1      -5.200   2.005  24.982  0.00  0.00    +0.139 A 
ATOM      4  C   UNL     1      -4.681   2.376  24.459  0.00  0.00    +0.037 A 
ATOM      5  C   UNL     1      -3.991   1.992  24.221  0.00  0.00    +0.000 A 
ATOM      6  C   UNL     1      -3.820   1.236  24.507  0.00  0.00    -0.005 A 
ATOM     20  C   UNL     1      -4.340   0.866  25.030  0.00  0.00    +0.000 A 
ATOM     21  C   UNL     1      -5.030   1.251  25.268  0.00  0.00    +0.037 A 
BRANCH   3   2
ATOM      1  C   UNL     1      -5.844   3.089  25.655  0.00  0.00    +0.252 C 
ATOM      2  O   UNL     1      -5.890   2.390  25.220  0.00  0.00    -0.471 OA
ENDBRANCH   3   2
ENDBRANCH   7   6
ENDBRANCH   8   7
ENDBRANCH   9   8
BRANCH  12  13
ATOM     13  C   UNL     1       0.332   0.557  23.714  0.00  0.00    +0.147 C 
BRANCH  13  14
ATOM     14  N   UNL     1       0.662   0.056  23.146  0.00  0.00    -0.203 NA
ATOM     15  C   UNL     1       1.443   0.166  22.902  0.00  0.00    +0.242 C 
ATOM     16  C   UNL     1       1.772  -0.334  22.336  0.00  0.00    +0.096 C 
ATOM     17  O   UNL     1       1.892   0.777  23.225  0.00  0.00    -0.273 OA
ENDBRANCH  13  14
ENDBRANCH  12  13
TORSDOF 6
ENDMDL
MODEL 4
REMARK VINA RESULT:      -6.4      2.127      2.487
REMARK  Name = 
REMARK  6 active torsions:
REMARK  status: ('A' for Active; 'I' for Inactive)
REMARK    1  A    between atoms: O_2  and  C_3
REMARK    2  A    between atoms: C_6  and  C_7
REMARK    3  A    between atoms: C_7  and  N_8
REMARK    4  A    between atoms: N_8  and  C_9
REMARK    5  A    between atoms: C_12  and  C_13
REMARK    6  A    between atoms: C_13  and  N_14
REMARK                            x       y       z     vdW  Elec       q    Type
REMARK                         _______ _______ _______ _____ _____    ______ ____
ROOT
ATOM      9  C   UNL     1      -4.583   1.086  24.998  0.00  0.00    +0.135 C 
ATOM     10  C   UNL     1      -5.398   1.121  25.122  0.00  0.00    +0.162 C 
ATOM     11  O   UNL     1      -5.604   1.912  25.238  0.00  0.00    -0.350 OA
ATOM     12  C   UNL     1      -4.917   2.365  25.184  0.00  0.00    +0.169 C 
ATOM     18  C   UNL     1      -4.285   1.855  25.036  0.00  0.00    +0.199 C 
ATOM     19  O   UNL     1      -3.496   2.074  24.942  0.00  0.00    -0.219 OA
ENDROOT
BRANCH   9   8
ATOM      8  N   UNL     1      -4.143   0.402  24.859  0.00  0.00    -0.209 NA
BRANCH   8   7
ATOM      7  C   UNL     1      -4.517  -0.333  24.844  0.00  0.00    +0.115 C 
BRANCH   7   6
ATOM      3  C   UNL     1      -3.188  -2.390  24.488  0.00  0.00    +0.139 A 
ATOM      4  C   UNL     1      -3.072  -1.937  25.168  0.00  0.00    +0.037 A 
ATOM      5  C   UNL     1      -3.515  -1.251  25.287  0.00  0.00    +0.000 A 
ATOM      6  C   UNL     1      -4.074  -1.018  24.725  0.00  0.00    -0.005 A 
ATOM     20  C   UNL     1      -4.188  -1.472  24.046  0.00  0.00    +0.000 A 
ATOM     21  C   UNL     1      -3.745  -2.158  23.928  0.00  0.00    +0.037 A 
BRANCH   3   2
ATOM      1  C   UNL     1      -1.926  -3.028  24.278  0.00  0.00    +0.252 C 
ATOM      2  O   UNL     1      -2.744  -3.076  24.370  0.00  0.00    -0.471 OA
ENDBRANCH   3   2
ENDBRANCH   7   6
ENDBRANCH   8   7
ENDBRANCH   9   8
BRANCH  12  13
ATOM     13  C   UNL     1      -4.869   3.185  25.264  0.00  0.00    +0.147 C 
BRANCH  13  14
ATOM     14  N   UNL     1      -5.551   3.625  25.414  0.00  0.00    -0.203 NA
ATOM     15  C   UNL     1      -5.506   4.447  25.475  0.00  0.00    +0.242 C 
ATOM     16  C   UNL     1      -6.188   4.886  25.624  0.00  0.00    +0.096 C 
ATOM     17  O   UNL     1      -4.780   4.827  25.387  0.00  0.00    -0.273 OA
ENDBRANCH  13  14
ENDBRANCH  12  13
TORSDOF 6
ENDMDL
MODEL 5
REMARK VINA RESULT:      -6.4      2.733      4.068
REMARK  Name = 
REMARK  6 active torsions:
REMARK  status: ('A' for Active; 'I' for Inactive)
REMARK    1  A    between atoms: O_2  and  C_3
REMARK    2  A    between atoms: C_6  and  C_7
REMARK    3  A    between atoms: C_7  and  N_8
REMARK    4  A    between atoms: N_8  and  C_9
REMARK    5  A    between atoms: C_12  and  C_13
REMARK    6  A    between atoms: C_13  and  N_14
REMARK                            x       y       z     vdW  Elec       q    Type
REMARK                         _______ _______ _______ _____ _____    ______ ____
ROOT
ATOM      9  C   UNL     1      -2.320   1.282  24.393  0.00  0.00    +0.135 C 
ATOM     10  C   UNL     1      -2.260   1.814  25.021  0.00  0.00    +0.162 C 
ATOM     11  O   UNL     1      -3.022   2.060  25.221  0.00  0.00    -0.350 OA
ATOM     12  C   UNL     1      -3.553   1.680  24.717  0.00  0.00    +0.169 C 
ATOM     18  C   UNL     1      -3.119   1.199  24.205  0.00  0.00    +0.199 C 
ATOM     19  O   UNL     1      -3.430   0.720  23.610  0.00  0.00    -0.219 OA
ENDROOT
BRANCH   9   8
ATOM      8  N   UNL     1      -1.691   0.901  24.019  0.00  0.00    -0.209 NA
BRANCH   8   7
ATOM      7  C   UNL     1      -0.953   0.868  24.383  0.00  0.00    +0.115 C 
BRANCH   7   6
ATOM      3  C   UNL     1       0.996  -0.034  23.153  0.00  0.00    +0.139 A 
ATOM      4  C   UNL     1       0.429  -0.549  23.462  0.00  0.00    +0.037 A 
ATOM      5  C   UNL     1      -0.220  -0.248  23.872  0.00  0.00    +0.000 A 
ATOM      6  C   UNL     1      -0.303   0.567  23.973  0.00  0.00    -0.005 A 
ATOM     20  C   UNL     1       0.263   1.081  23.664  0.00  0.00    +0.000 A 
ATOM     21  C   UNL     1       0.913   0.780  23.254  0.00  0.00    +0.037 A 
BRANCH   3   2
ATOM      1  C   UNL     1       2.329   0.120  22.661  0.00  0.00    +0.252 C 
ATOM      2  O   UNL     1       1.645  -0.335  22.743  0.00  0.00    -0.471 OA
ENDBRANCH   3   2
ENDBRANCH   7   6
ENDBRANCH   8   7
ENDBRANCH   9   8
BRANCH  12  13
ATOM     13  C   UNL     1      -4.373   1.765  24.723  0.00  0.00    +0.147 C 
BRANCH  13  14
ATOM     14  N   UNL     1      -4.722   2.360  25.177  0.00  0.00    -0.203 NA
ATOM     15  C   UNL     1      -5.545   2.407  25.234  0.00  0.00    +0.242 C 
ATOM     16  C   UNL     1      -5.893   3.001  25.687  0.00  0.00    +0.096 C 
ATOM     17  O   UNL     1      -6.016   1.859  24.837  0.00  0.00    -0.273 OA
ENDBRANCH  13  14
ENDBRANCH  12  13
TORSDOF 6
ENDMDL
MODEL 6
REMARK VINA RESULT:      -6.3      2.347      4.952
REMARK  Name = 
REMARK  6 active torsions:
REMARK  status: ('A' for Active; 'I' for Inactive)
REMARK    1  A    between atoms: O_2  and  C_3
REMARK    2  A    between atoms: C_6  and  C_7
REMARK    3  A    between atoms: C_7  and  N_8
REMARK    4  A    between atoms: N_8  and  C_9
REMARK    5  A    between atoms: C_12  and  C_13
REMARK    6  A    between atoms: C_13  and  N_14
REMARK                            x       y       z     vdW  Elec       q    Type
REMARK                         _______ _______ _______ _____ _____    ______ ____
ROOT
ATOM      9  C   UNL     1      -3.280   0.573  24.754  0.00  0.00    +0.135 C 
ATOM     10  C   UNL     1      -2.674   0.767  24.229  0.00  0.00    +0.162 C 
ATOM     11  O   UNL     1      -2.164   0.120  24.177  0.00  0.00    -0.350 OA
ATOM     12  C   UNL     1      -2.455  -0.474  24.671  0.00  0.00    +0.169 C 
ATOM     18  C   UNL     1      -3.144  -0.194  25.028  0.00  0.00    +0.199 C 
ATOM     19  O   UNL     1      -3.616  -0.607  25.563  0.00  0.00    -0.219 OA
ENDROOT
BRANCH   9   8
ATOM      8  N   UNL     1      -3.910   1.060  24.969  0.00  0.00    -0.209 NA
BRANCH   8   7
ATOM      7  C   UNL     1      -4.055   1.755  24.549  0.00  0.00    +0.115 C 
BRANCH   7   6
ATOM      3  C   UNL     1      -5.481   3.521  25.537  0.00  0.00    +0.139 A 
ATOM      4  C   UNL     1      -4.673   3.654  25.433  0.00  0.00    +0.037 A 
ATOM      5  C   UNL     1      -4.198   3.065  25.104  0.00  0.00    +0.000 A 
ATOM      6  C   UNL     1      -4.530   2.344  24.879  0.00  0.00    -0.005 A 
ATOM     20  C   UNL     1      -5.338   2.212  24.983  0.00  0.00    +0.000 A 
ATOM     21  C   UNL     1      -5.813   2.801  25.312  0.00  0.00    +0.037 A 
BRANCH   3   2
ATOM      1  C   UNL     1      -6.027   4.841  25.491  0.00  0.00    +0.252 C 
ATOM      2  O   UNL     1      -5.956   4.109  25.866  0.00  0.00    -0.471 OA
ENDBRANCH   3   2
ENDBRANCH   7   6
ENDBRANCH   8   7
ENDBRANCH   9   8
BRANCH  12  13
ATOM     13  C   UNL     1      -2.116  -1.217  24.788  0.00  0.00    +0.147 C 
BRANCH  13  14
ATOM     14  N   UNL     1      -1.310  -1.281  24.953  0.00  0.00    -0.203 NA
ATOM     15  C   UNL     1      -0.958  -2.025  25.009  0.00  0.00    +0.242 C 
ATOM     16  C   UNL     1      -0.153  -2.089  25.174  0.00  0.00    +0.096 C 
ATOM     17  O   UNL     1      -1.413  -2.705  24.901  0.00  0.00    -0.273 OA
ENDBRANCH  13  14
ENDBRANCH  12  13
TORSDOF 6
ENDMDL
MODEL 7
REMARK VINA RESULT:      -5.2      2.111      2.669
REMARK  Name = 
REMARK  6 active torsions:
REMARK  status: ('A' for Active; 'I' for Inactive)
REMARK    1  A    between atoms: O_2  and  C_3
REMARK    2  A    between atoms: C_6  and  C_7
REMARK    3  A    between atoms: C_7  and  N_8
REMARK    4  A    between atoms: N_8  and  C_9
REMARK    5  A    between atoms: C_12  and  C_13
REMARK    6  A    between atoms: C_13  and  N_14
REMARK                            x       y       z     vdW  Elec       q    Type
REMARK                         _______ _______ _______ _____ _____    ______ ____
ROOT
ATOM      9  C   UNL     1      -1.816   2.130  24.990  0.00  0.00    +0.135 C 
ATOM     10  C   UNL     1      -1.608   2.651  25.593  0.00  0.00    +0.162 C 
ATOM     11  O   UNL     1      -2.194   3.231  25.643  0.00  0.00    -0.350 OA
ATOM     12  C   UNL     1      -2.764   3.067  25.070  0.00  0.00    +0.169 C 
ATOM     18  C   UNL     1      -2.531   2.387  24.666  0.00  0.00    +0.199 C 
ATOM     19  O   UNL     1      -2.940   2.026  24.047  0.00  0.00    -0.219 OA
ENDROOT
BRANCH   9   8
ATOM      8  N   UNL     1      -1.386   1.467  24.751  0.00  0.00    -0.209 NA
BRANCH   8   7
ATOM      7  C   UNL     1      -1.016   0.992  25.313  0.00  0.00    +0.115 C 
BRANCH   7   6
ATOM      3  C   UNL     1      -0.898  -1.457  24.979  0.00  0.00    +0.139 A 
ATOM      4  C   UNL     1      -1.323  -1.148  25.615  0.00  0.00    +0.037 A 
ATOM      5  C   UNL     1      -1.363  -0.332  25.726  0.00  0.00    +0.000 A 
ATOM      6  C   UNL     1      -0.976   0.176  25.202  0.00  0.00    -0.005 A 
ATOM     20  C   UNL     1      -0.551  -0.135  24.567  0.00  0.00    +0.000 A 
ATOM     21  C   UNL     1      -0.512  -0.951  24.455  0.00  0.00    +0.037 A 
BRANCH   3   2
ATOM      1  C   UNL     1      -1.492  -2.675  24.523  0.00  0.00    +0.252 C 
ATOM      2  O   UNL     1      -0.858  -2.274  24.868  0.00  0.00    -0.471 OA
ENDBRANCH   3   2
ENDBRANCH   7   6
ENDBRANCH   8   7
ENDBRANCH   9   8
BRANCH  12  13
ATOM     13  C   UNL     1      -3.447   3.507  24.926  0.00  0.00    +0.147 C 
BRANCH  13  14
ATOM     14  N   UNL     1      -4.098   3.433  25.428  0.00  0.00    -0.203 NA
ATOM     15  C   UNL     1      -4.794   3.846  25.265  0.00  0.00    +0.242 C 
ATOM     16  C   UNL     1      -5.444   3.772  25.766  0.00  0.00    +0.096 C 
ATOM     17  O   UNL     1      -4.837   4.333  24.601  0.00  0.00    -0.273 OA
ENDBRANCH  13  14
ENDBRANCH  12  13
TORSDOF 6
ENDMDL
MODEL 8
REMARK VINA RESULT:      -5.0     14.154     14.857
REMARK  Name = 
REMARK  6 active torsions:
REMARK  status: ('A' for Active; 'I' for Inactive)
REMARK    1  A    between atoms: O_2  and  C_3
REMARK    2  A    between atoms: C_6  and  C_7
REMARK    3  A    between atoms: C_7  and  N_8
REMARK    4  A    between atoms: N_8  and  C_9
REMARK    5  A    between atoms: C_12  and  C_13
REMARK    6  A    between atoms: C_13  and  N_14
REMARK                            x       y       z     vdW  Elec       q    Type
REMARK                         _______ _______ _______ _____ _____    ______ ____
ROOT
ATOM      9  C   UNL     1      -5.947 -10.112  16.327  0.00  0.00    +0.135 C 
ATOM     10  C   UNL     1      -6.375 -10.094  15.622  0.00  0.00    +0.162 C 
ATOM     11  O   UNL     1      -7.163  -9.931  15.805  0.00  0.00    -0.350 OA
ATOM     12  C   UNL     1      -7.222  -9.849  16.624  0.00  0.00    +0.169 C 
ATOM     18  C   UNL     1      -6.471  -9.960  16.947  0.00  0.00    +0.199 C 
ATOM     19  O   UNL     1      -6.277  -9.926  17.747  0.00  0.00    -0.219 OA
ENDROOT
BRANCH   9   8
ATOM      8  N   UNL     1      -5.138 -10.256  16.400  0.00  0.00    -0.209 NA
BRANCH   8   7
ATOM      7  C   UNL     1      -4.721 -10.590  15.772  0.00  0.00    +0.115 C 
BRANCH   7   6
ATOM      3  C   UNL     1      -2.252 -10.734  15.866  0.00  0.00    +0.139 A 
ATOM      4  C   UNL     1      -2.640 -10.777  15.139  0.00  0.00    +0.037 A 
ATOM      5  C   UNL     1      -3.463 -10.730  15.108  0.00  0.00    +0.000 A 
ATOM      6  C   UNL     1      -3.898 -10.638  15.803  0.00  0.00    -0.005 A 
ATOM     20  C   UNL     1      -3.509 -10.594  16.529  0.00  0.00    +0.000 A 
ATOM     21  C   UNL     1      -2.686 -10.642  16.560  0.00  0.00    +0.037 A 
BRANCH   3   2
ATOM      1  C   UNL     1      -0.968 -10.156  15.618  0.00  0.00    +0.252 C 
ATOM      2  O   UNL     1      -1.429 -10.781  15.897  0.00  0.00    -0.471 OA
ENDBRANCH   3   2
ENDBRANCH   7   6
ENDBRANCH   8   7
ENDBRANCH   9   8
BRANCH  12  13
ATOM     13  C   UNL     1      -7.911  -9.683  17.046  0.00  0.00    +0.147 C 
BRANCH  13  14
ATOM     14  N   UNL     1      -8.363  -9.020  16.854  0.00  0.00    -0.203 NA
ATOM     15  C   UNL     1      -9.104  -8.910  17.202  0.00  0.00    +0.242 C 
ATOM     16  C   UNL     1      -9.555  -8.247  17.010  0.00  0.00    +0.096 C 
ATOM     17  O   UNL     1      -9.391  -9.464  17.741  0.00  0.00    -0.273 OA
ENDBRANCH  13  14
ENDBRANCH  12  13
TORSDOF 6
ENDMDL
MODEL 9
REMARK VINA RESULT:      -5.0     13.900     15.867
REMARK  Name = 
REMARK  6 active torsions:
REMARK  status: ('A' for Active; 'I' for Inactive)
REMARK    1  A    between atoms: O_2  and  C_3
REMARK    2  A    between atoms: C_6  and  C_7
REMARK    3  A    between atoms: C_7  and  N_8
REMARK    4  A    between atoms: N_8  and  C_9
REMARK    5  A    between atoms: C_12  and  C_13
REMARK    6  A    between atoms: C_13  and  N_14
REMARK                            x       y       z     vdW  Elec       q    Type
REMARK                         _______ _______ _______ _____ _____    ______ ____
ROOT
ATOM      9  C   UNL     1      -4.377 -10.544  15.289  0.00  0.00    +0.135 C 
ATOM     10  C   UNL     1      -5.196 -10.615  15.221  0.00  0.00    +0.162 C 
ATOM     11  O   UNL     1      -5.514 -10.654  15.981  0.00  0.00    -0.350 OA
ATOM     12  C   UNL     1      -4.891 -10.607  16.520  0.00  0.00    +0.169 C 
ATOM     18  C   UNL     1      -4.189 -10.540  16.093  0.00  0.00    +0.199 C 
ATOM     19  O   UNL     1      -3.431 -10.478  16.412  0.00  0.00    -0.219 OA
ENDROOT
BRANCH   9   8
ATOM      8  N   UNL     1      -3.841 -10.488  14.665  0.00  0.00    -0.209 NA
BRANCH   8   7
ATOM      7  C   UNL     1      -4.061 -10.736  13.910  0.00  0.00    +0.115 C 
BRANCH   7   6
ATOM      3  C   UNL     1      -2.553 -10.332  11.989  0.00  0.00    +0.139 A 
ATOM      4  C   UNL     1      -3.365 -10.214  11.907  0.00  0.00    +0.037 A 
ATOM      5  C   UNL     1      -3.868 -10.349  12.547  0.00  0.00    +0.000 A 
ATOM      6  C   UNL     1      -3.558 -10.601  13.270  0.00  0.00    -0.005 A 
ATOM     20  C   UNL     1      -2.745 -10.718  13.351  0.00  0.00    +0.000 A 
ATOM     21  C   UNL     1      -2.243 -10.584  12.710  0.00  0.00    +0.037 A 
BRANCH   3   2
ATOM      1  C   UNL     1      -2.012  -9.449  11.004  0.00  0.00    +0.252 C 
ATOM      2  O   UNL     1      -2.050 -10.197  11.349  0.00  0.00    -0.471 OA
ENDBRANCH   3   2
ENDBRANCH   7   6
ENDBRANCH   8   7
ENDBRANCH   9   8
BRANCH  12  13
ATOM     13  C   UNL     1      -4.959 -10.625  17.342  0.00  0.00    +0.147 C 
BRANCH  13  14
ATOM     14  N   UNL     1      -5.699 -10.538  17.697  0.00  0.00    -0.203 NA
ATOM     15  C   UNL     1      -5.775 -10.611  18.516  0.00  0.00    +0.242 C 
ATOM     16  C   UNL     1      -6.515 -10.524  18.870  0.00  0.00    +0.096 C 
ATOM     17  O   UNL     1      -5.112 -10.770  18.978  0.00  0.00    -0.273 OA
ENDBRANCH  13  14
ENDBRANCH  12  13
TORSDOF 6
ENDMDL
MODEL 10
REMARK VINA RESULT:      -4.7     14.995     17.221
REMARK  Name = 
REMARK  6 active torsions:
REMARK  status: ('A' for Active; 'I' for Inactive)
REMARK    1  A    between atoms: O_2  and  C_3
REMARK    2  A    between atoms: C_6  and  C_7
REMARK    3  A    between atoms: C_7  and  N_8
REMARK    4  A    between atoms: N_8  and  C_9
REMARK    5  A    between atoms: C_12  and  C_13
REMARK    6  A    between atoms: C_13  and  N_14
REMARK                            x       y       z     vdW  Elec       q    Type
REMARK                         _______ _______ _______ _____ _____    ______ ____
ROOT
ATOM      9  C   UNL     1      -3.719 -10.382  12.713  0.00  0.00    +0.135 C 
ATOM     10  C   UNL     1      -4.200 -10.536  13.365  0.00  0.00    +0.162 C 
ATOM     11  O   UNL     1      -3.712 -10.687  14.013  0.00  0.00    -0.350 OA
ATOM     12  C   UNL     1      -2.929 -10.627  13.762  0.00  0.00    +0.169 C 
ATOM     18  C   UNL     1      -2.933 -10.439  12.958  0.00  0.00    +0.199 C 
ATOM     19  O   UNL     1      -2.268 -10.327  12.484  0.00  0.00    -0.219 OA
ENDROOT
BRANCH   9   8
ATOM      8  N   UNL     1      -3.977 -10.204  11.950  0.00  0.00    -0.209 NA
BRANCH   8   7
ATOM      7  C   UNL     1      -4.782 -10.103  11.801  0.00  0.00    +0.115 C 
BRANCH   7   6
ATOM      3  C   UNL     1      -5.525  -9.074   9.676  0.00  0.00    +0.139 A 
ATOM      4  C   UNL     1      -5.487  -8.619  10.363  0.00  0.00    +0.037 A 
ATOM      5  C   UNL     1      -5.240  -8.962  11.071  0.00  0.00    +0.000 A 
ATOM      6  C   UNL     1      -5.029  -9.760  11.093  0.00  0.00    -0.005 A 
ATOM     20  C   UNL     1      -5.067 -10.214  10.405  0.00  0.00    +0.000 A 
ATOM     21  C   UNL     1      -5.315  -9.871   9.697  0.00  0.00    +0.037 A 
BRANCH   3   2
ATOM      1  C   UNL     1      -6.531  -8.881   8.680  0.00  0.00    +0.252 C 
ATOM      2  O   UNL     1      -5.773  -8.731   8.968  0.00  0.00    -0.471 OA
ENDBRANCH   3   2
ENDBRANCH   7   6
ENDBRANCH   8   7
ENDBRANCH   9   8
BRANCH  12  13
ATOM     13  C   UNL     1      -2.259 -10.736  14.231  0.00  0.00    +0.147 C 
BRANCH  13  14
ATOM     14  N   UNL     1      -2.297 -10.592  15.043  0.00  0.00    -0.203 NA
ATOM     15  C   UNL     1      -1.609 -10.615  15.498  0.00  0.00    +0.242 C 
ATOM     16  C   UNL     1      -1.647 -10.471  16.309  0.00  0.00    +0.096 C 
ATOM     17  O   UNL     1      -0.885 -10.781  15.141  0.00  0.00    -0.273 OA
ENDBRANCH  13  14
ENDBRANCH  12  13
TORSDOF 6
ENDMDL
