REMARK  Name = 
REMARK  2 active torsions:
REMARK  status: ('A' for Active; 'I' for Inactive)
REMARK    1  A    between atoms: C_3  and  N_5
REMARK    2  A    between atoms: C_8  and  C_10
REMARK                            x       y       z     vdW  Elec       q    Type
REMARK                         _______ _______ _______ _____ _____    ______ ____
ROOT
ATOM      5  N   UNL     1      -2.723  -1.110   0.000  0.00  0.00    -0.274 NA
ATOM      6  C   UNL     1      -2.723  -0.285   0.000  0.00  0.00    +0.073 C 
ATOM      7  C   UNL     1      -1.938  -0.030   0.000  0.00  0.00    +0.025 C 
ATOM      8  C   UNL     1      -1.453  -0.698   0.000  0.00  0.00    +0.064 C 
ATOM      9  C   UNL     1      -1.938  -1.365   0.000  0.00  0.00    +0.079 C 
ENDROOT
BRANCH   8  10
ATOM     10  C   UNL     1      -0.628  -0.698   0.000  0.00  0.00    +0.089 A 
ATOM     11  N   UNL     1      -0.143  -1.365   0.000  0.00  0.00    -0.243 NA
ATOM     12  C   UNL     1       0.641  -1.110   0.000  0.00  0.00    +0.087 A 
ATOM     13  C   UNL     1       0.641  -0.285   0.000  0.00  0.00    +0.048 A 
ATOM     14  S   UNL     1      -0.143  -0.030   0.000  0.00  0.00    -0.071 S 
ATOM     15  C   UNL     1       1.356   0.127   0.000  0.00  0.00    +0.008 A 
ATOM     16  C   UNL     1       2.070  -0.285   0.000  0.00  0.00    +0.001 A 
ATOM     17  C   UNL     1       2.070  -1.110   0.000  0.00  0.00    +0.002 A 
ATOM     18  C   UNL     1       1.356  -1.523   0.000  0.00  0.00    +0.020 A 
ENDBRANCH   8  10
BRANCH   5   3
ATOM      1  C   UNL     1      -4.334  -2.281   0.000  0.00  0.00    +0.003 C 
ATOM      2  C   UNL     1      -4.205  -1.466   0.000  0.00  0.00    +0.016 C 
ATOM      3  C   UNL     1      -3.390  -1.595   0.000  0.00  0.00    +0.058 C 
ATOM      4  C   UNL     1      -3.519  -2.410   0.000  0.00  0.00    +0.016 C 
ENDBRANCH   5   3
TORSDOF 2
