MODEL 1
REMARK VINA RESULT:     -12.1      0.000      0.000
REMARK  Name = 
REMARK  7 active torsions:
REMARK  status: ('A' for Active; 'I' for Inactive)
REMARK    1  A    between atoms: C_2  and  C_4
REMARK    2  A    between atoms: C_4  and  C_5
REMARK    3  A    between atoms: C_5  and  N_6
REMARK    4  A    between atoms: C_5  and  C_28
REMARK    5  A    between atoms: C_7  and  C_9
REMARK    6  A    between atoms: C_11  and  N_12
REMARK    7  A    between atoms: N_15  and  C_16
REMARK                            x       y       z     vdW  Elec       q    Type
REMARK                         _______ _______ _______ _____ _____    ______ ____
ROOT
ATOM      9  C   UNL     1      -3.885   2.938  24.907  0.00  0.00    +0.033 C 
ATOM     10  C   UNL     1      -4.002   2.159  24.658  0.00  0.00    -0.002 C 
ATOM     11  C   UNL     1      -4.725   1.787  24.795  0.00  0.00    +0.152 C 
ATOM     23  C   UNL     1      -5.331   2.191  25.180  0.00  0.00    +0.206 C 
ATOM     24  O   UNL     1      -6.054   1.818  25.317  0.00  0.00    -0.218 OA
ATOM     25  C   UNL     1      -5.215   2.969  25.429  0.00  0.00    +0.189 C 
ATOM     26  O   UNL     1      -5.822   3.374  25.814  0.00  0.00    -0.220 OA
ATOM     27  C   UNL     1      -4.491   3.343  25.292  0.00  0.00    +0.066 C 
ENDROOT
BRANCH  11  12
ATOM     12  N   UNL     1      -4.841   1.008  24.547  0.00  0.00    -0.181 NA
ATOM     13  C   UNL     1      -4.361   0.406  24.842  0.00  0.00    +0.344 C 
ATOM     14  O   UNL     1      -3.766   0.581  25.385  0.00  0.00    -0.249 OA
ATOM     15  N   UNL     1      -4.478  -0.372  24.593  0.00  0.00    -0.160 NA
BRANCH  15  16
ATOM     16  C   UNL     1      -3.998  -0.976  24.889  0.00  0.00    +0.081 A 
ATOM     17  C   UNL     1      -3.619  -0.883  25.617  0.00  0.00    +0.017 A 
ATOM     18  C   UNL     1      -3.140  -1.486  25.911  0.00  0.00    +0.001 A 
ATOM     19  C   UNL     1      -3.038  -2.180  25.480  0.00  0.00    +0.001 A 
ATOM     20  C   UNL     1      -3.416  -2.274  24.752  0.00  0.00    +0.008 A 
ATOM     21  C   UNL     1      -3.896  -1.670  24.457  0.00  0.00    +0.050 A 
ATOM     22 BR   UNL     1      -4.275  -1.763  23.729  0.00  0.00    -0.048 Br
ENDBRANCH  15  16
ENDBRANCH  11  12
BRANCH   9   7
ATOM      6  N   UNL     1      -2.578   3.303  25.353  0.00  0.00    -0.194 NA
ATOM      7  C   UNL     1      -3.162   3.310  24.770  0.00  0.00    +0.261 C 
ATOM      8  O   UNL     1      -3.023   3.690  24.051  0.00  0.00    -0.269 OA
BRANCH   6   5
ATOM      5  C   UNL     1      -1.855   3.675  25.216  0.00  0.00    +0.175 C 
BRANCH   5  28
ATOM     28  C   UNL     1      -1.760   4.475  25.397  0.00  0.00    +0.281 C 
ATOM     29  N   UNL     1      -1.317   4.960  24.901  0.00  0.00    -0.086 NA
ATOM     30  O   UNL     1      -2.111   4.787  26.076  0.00  0.00    -0.270 OA
ENDBRANCH   5  28
BRANCH   5   4
ATOM      4  C   UNL     1      -1.225   3.247  24.896  0.00  0.00    +0.031 C 
BRANCH   4   2
ATOM      1  C   UNL     1      -0.512   2.019  25.057  0.00  0.00    +0.000 C 
ATOM      2  C   UNL     1      -0.797   2.727  25.373  0.00  0.00    +0.002 C 
ATOM      3  C   UNL     1      -0.655   2.913  26.164  0.00  0.00    +0.000 C 
ENDBRANCH   4   2
ENDBRANCH   5   4
ENDBRANCH   6   5
ENDBRANCH   9   7
TORSDOF 7
ENDMDL
MODEL 2
REMARK VINA RESULT:     -11.3      2.406      5.594
REMARK  Name = 
REMARK  7 active torsions:
REMARK  status: ('A' for Active; 'I' for Inactive)
REMARK    1  A    between atoms: C_2  and  C_4
REMARK    2  A    between atoms: C_4  and  C_5
REMARK    3  A    between atoms: C_5  and  N_6
REMARK    4  A    between atoms: C_5  and  C_28
REMARK    5  A    between atoms: C_7  and  C_9
REMARK    6  A    between atoms: C_11  and  N_12
REMARK    7  A    between atoms: N_15  and  C_16
REMARK                            x       y       z     vdW  Elec       q    Type
REMARK                         _______ _______ _______ _____ _____    ______ ____
ROOT
ATOM      9  C   UNL     1      -1.103  -0.186  24.802  0.00  0.00    +0.033 C 
ATOM     10  C   UNL     1      -0.976   0.562  25.128  0.00  0.00    -0.002 C 
ATOM     11  C   UNL     1      -0.398   1.056  24.810  0.00  0.00    +0.152 C 
ATOM     23  C   UNL     1       0.053   0.804  24.168  0.00  0.00    +0.206 C 
ATOM     24  O   UNL     1       0.632   1.300  23.850  0.00  0.00    -0.218 OA
ATOM     25  C   UNL     1      -0.073   0.057  23.842  0.00  0.00    +0.189 C 
ATOM     26  O   UNL     1       0.378  -0.195  23.199  0.00  0.00    -0.220 OA
ATOM     27  C   UNL     1      -0.652  -0.438  24.160  0.00  0.00    +0.066 C 
ENDROOT
BRANCH  11  12
ATOM     12  N   UNL     1      -0.271   1.804  25.136  0.00  0.00    -0.181 NA
ATOM     13  C   UNL     1      -0.888   2.351  25.165  0.00  0.00    +0.344 C 
ATOM     14  O   UNL     1      -1.631   2.150  24.870  0.00  0.00    -0.249 OA
ATOM     15  N   UNL     1      -0.761   3.098  25.490  0.00  0.00    -0.160 NA
BRANCH  15  16
ATOM     16  C   UNL     1      -1.378   3.645  25.520  0.00  0.00    +0.081 A 
ATOM     17  C   UNL     1      -2.099   3.435  25.864  0.00  0.00    +0.017 A 
ATOM     18  C   UNL     1      -2.716   3.983  25.893  0.00  0.00    +0.001 A 
ATOM     19  C   UNL     1      -2.613   4.738  25.580  0.00  0.00    +0.001 A 
ATOM     20  C   UNL     1      -1.893   4.948  25.237  0.00  0.00    +0.008 A 
ATOM     21  C   UNL     1      -1.275   4.400  25.207  0.00  0.00    +0.050 A 
ATOM     22 BR   UNL     1      -0.554   4.610  24.863  0.00  0.00    -0.048 Br
ENDBRANCH  15  16
ENDBRANCH  11  12
BRANCH   9   7
ATOM      6  N   UNL     1      -2.445  -0.677  24.805  0.00  0.00    -0.194 NA
ATOM      7  C   UNL     1      -1.682  -0.681  25.120  0.00  0.00    +0.261 C 
ATOM      8  O   UNL     1      -1.498  -1.179  25.751  0.00  0.00    -0.269 OA
BRANCH   6   5
ATOM      5  C   UNL     1      -3.024  -1.172  25.123  0.00  0.00    +0.175 C 
BRANCH   5  28
ATOM     28  C   UNL     1      -3.550  -0.882  25.688  0.00  0.00    +0.281 C 
ATOM     29  N   UNL     1      -4.027  -0.233  25.512  0.00  0.00    -0.086 NA
ATOM     30  O   UNL     1      -3.599  -1.242  26.429  0.00  0.00    -0.270 OA
ENDBRANCH   5  28
BRANCH   5   4
ATOM      4  C   UNL     1      -3.075  -1.958  24.875  0.00  0.00    +0.031 C 
BRANCH   4   2
ATOM      1  C   UNL     1      -3.828  -2.972  24.206  0.00  0.00    +0.000 C 
ATOM      2  C   UNL     1      -3.635  -2.175  24.310  0.00  0.00    +0.002 C 
ATOM      3  C   UNL     1      -4.001  -1.598  23.848  0.00  0.00    +0.000 C 
ENDBRANCH   4   2
ENDBRANCH   5   4
ENDBRANCH   6   5
ENDBRANCH   9   7
TORSDOF 7
ENDMDL
MODEL 3
REMARK VINA RESULT:     -11.2      1.715      3.236
REMARK  Name = 
REMARK  7 active torsions:
REMARK  status: ('A' for Active; 'I' for Inactive)
REMARK    1  A    between atoms: C_2  and  C_4
REMARK    2  A    between atoms: C_4  and  C_5
REMARK    3  A    between atoms: C_5  and  N_6
REMARK    4  A    between atoms: C_5  and  C_28
REMARK    5  A    between atoms: C_7  and  C_9
REMARK    6  A    between atoms: C_11  and  N_12
REMARK    7  A    between atoms: N_15  and  C_16
REMARK                            x       y       z     vdW  Elec       q    Type
REMARK                         _______ _______ _______ _____ _____    ______ ____
ROOT
ATOM      9  C   UNL     1      -1.053   2.015  25.109  0.00  0.00    +0.033 C 
ATOM     10  C   UNL     1      -1.338   1.255  25.258  0.00  0.00    -0.002 C 
ATOM     11  C   UNL     1      -0.935   0.599  24.961  0.00  0.00    +0.152 C 
ATOM     23  C   UNL     1      -0.249   0.703  24.516  0.00  0.00    +0.206 C 
ATOM     24  O   UNL     1       0.154   0.046  24.219  0.00  0.00    -0.218 OA
ATOM     25  C   UNL     1       0.036   1.462  24.368  0.00  0.00    +0.189 C 
ATOM     26  O   UNL     1       0.723   1.566  23.923  0.00  0.00    -0.220 OA
ATOM     27  C   UNL     1      -0.367   2.119  24.665  0.00  0.00    +0.066 C 
ENDROOT
BRANCH  11  12
ATOM     12  N   UNL     1      -1.220  -0.162  25.109  0.00  0.00    -0.181 NA
ATOM     13  C   UNL     1      -1.938  -0.403  24.783  0.00  0.00    +0.344 C 
ATOM     14  O   UNL     1      -2.371   0.114  24.309  0.00  0.00    -0.249 OA
ATOM     15  N   UNL     1      -2.223  -1.163  24.931  0.00  0.00    -0.160 NA
BRANCH  15  16
ATOM     16  C   UNL     1      -2.941  -1.405  24.605  0.00  0.00    +0.081 A 
ATOM     17  C   UNL     1      -3.540  -0.853  24.468  0.00  0.00    +0.017 A 
ATOM     18  C   UNL     1      -4.257  -1.095  24.142  0.00  0.00    +0.001 A 
ATOM     19  C   UNL     1      -4.378  -1.888  23.953  0.00  0.00    +0.001 A 
ATOM     20  C   UNL     1      -3.780  -2.440  24.089  0.00  0.00    +0.008 A 
ATOM     21  C   UNL     1      -3.062  -2.198  24.415  0.00  0.00    +0.050 A 
ATOM     22 BR   UNL     1      -2.463  -2.751  24.552  0.00  0.00    -0.048 Br
ENDBRANCH  15  16
ENDBRANCH  11  12
BRANCH   9   7
ATOM      6  N   UNL     1      -2.014   3.059  24.937  0.00  0.00    -0.194 NA
ATOM      7  C   UNL     1      -1.456   2.671  25.406  0.00  0.00    +0.261 C 
ATOM      8  O   UNL     1      -1.301   2.940  26.171  0.00  0.00    -0.269 OA
BRANCH   6   5
ATOM      5  C   UNL     1      -2.417   3.714  25.234  0.00  0.00    +0.175 C 
BRANCH   5  28
ATOM     28  C   UNL     1      -2.079   4.465  25.183  0.00  0.00    +0.281 C 
ATOM     29  N   UNL     1      -2.064   4.956  25.845  0.00  0.00    -0.086 NA
ATOM     30  O   UNL     1      -1.756   4.724  24.470  0.00  0.00    -0.270 OA
ENDBRANCH   5  28
BRANCH   5   4
ATOM      4  C   UNL     1      -3.160   3.619  25.583  0.00  0.00    +0.031 C 
BRANCH   4   2
ATOM      1  C   UNL     1      -4.419   2.974  25.379  0.00  0.00    +0.000 C 
ATOM      2  C   UNL     1      -3.821   3.477  25.111  0.00  0.00    +0.002 C 
ATOM      3  C   UNL     1      -3.885   3.836  24.371  0.00  0.00    +0.000 C 
ENDBRANCH   4   2
ENDBRANCH   5   4
ENDBRANCH   6   5
ENDBRANCH   9   7
TORSDOF 7
ENDMDL
MODEL 4
REMARK VINA RESULT:     -10.9      1.812      4.613
REMARK  Name = 
REMARK  7 active torsions:
REMARK  status: ('A' for Active; 'I' for Inactive)
REMARK    1  A    between atoms: C_2  and  C_4
REMARK    2  A    between atoms: C_4  and  C_5
REMARK    3  A    between atoms: C_5  and  N_6
REMARK    4  A    between atoms: C_5  and  C_28
REMARK    5  A    between atoms: C_7  and  C_9
REMARK    6  A    between atoms: C_11  and  N_12
REMARK    7  A    between atoms: N_15  and  C_16
REMARK                            x       y       z     vdW  Elec       q    Type
REMARK                         _______ _______ _______ _____ _____    ______ ____
ROOT
ATOM      9  C   UNL     1      -4.210   0.531  24.675  0.00  0.00    +0.033 C 
ATOM     10  C   UNL     1      -3.815   1.229  24.480  0.00  0.00    -0.002 C 
ATOM     11  C   UNL     1      -4.131   1.957  24.706  0.00  0.00    +0.152 C 
ATOM     23  C   UNL     1      -4.840   1.987  25.125  0.00  0.00    +0.206 C 
ATOM     24  O   UNL     1      -5.157   2.715  25.350  0.00  0.00    -0.218 OA
ATOM     25  C   UNL     1      -5.235   1.289  25.319  0.00  0.00    +0.189 C 
ATOM     26  O   UNL     1      -5.945   1.319  25.738  0.00  0.00    -0.220 OA
ATOM     27  C   UNL     1      -4.919   0.560  25.093  0.00  0.00    +0.066 C 
ENDROOT
BRANCH  11  12
ATOM     12  N   UNL     1      -3.737   2.656  24.512  0.00  0.00    -0.181 NA
ATOM     13  C   UNL     1      -2.951   2.762  24.740  0.00  0.00    +0.344 C 
ATOM     14  O   UNL     1      -2.561   2.172  25.162  0.00  0.00    -0.249 OA
ATOM     15  N   UNL     1      -2.558   3.461  24.546  0.00  0.00    -0.160 NA
BRANCH  15  16
ATOM     16  C   UNL     1      -1.771   3.568  24.774  0.00  0.00    +0.081 A 
ATOM     17  C   UNL     1      -1.235   2.943  24.711  0.00  0.00    +0.017 A 
ATOM     18  C   UNL     1      -0.449   3.051  24.939  0.00  0.00    +0.001 A 
ATOM     19  C   UNL     1      -0.200   3.780  25.230  0.00  0.00    +0.001 A 
ATOM     20  C   UNL     1      -0.736   4.404  25.293  0.00  0.00    +0.008 A 
ATOM     21  C   UNL     1      -1.522   4.297  25.065  0.00  0.00    +0.050 A 
ATOM     22 BR   UNL     1      -2.059   4.922  25.128  0.00  0.00    -0.048 Br
ENDBRANCH  15  16
ENDBRANCH  11  12
BRANCH   9   7
ATOM      6  N   UNL     1      -3.445  -0.636  24.986  0.00  0.00    -0.194 NA
ATOM      7  C   UNL     1      -3.893  -0.197  24.449  0.00  0.00    +0.261 C 
ATOM      8  O   UNL     1      -4.025  -0.487  23.688  0.00  0.00    -0.269 OA
BRANCH   6   5
ATOM      5  C   UNL     1      -3.129  -1.363  24.760  0.00  0.00    +0.175 C 
BRANCH   5  28
ATOM     28  C   UNL     1      -3.530  -2.062  24.939  0.00  0.00    +0.281 C 
ATOM     29  N   UNL     1      -3.778  -2.561  24.332  0.00  0.00    -0.086 NA
ATOM     30  O   UNL     1      -3.684  -2.259  25.725  0.00  0.00    -0.270 OA
ENDBRANCH   5  28
BRANCH   5   4
ATOM      4  C   UNL     1      -2.409  -1.393  24.356  0.00  0.00    +0.031 C 
BRANCH   4   2
ATOM      1  C   UNL     1      -1.335  -2.295  24.626  0.00  0.00    +0.000 C 
ATOM      2  C   UNL     1      -1.715  -1.575  24.763  0.00  0.00    +0.002 C 
ATOM      3  C   UNL     1      -1.402  -1.039  25.305  0.00  0.00    +0.000 C 
ENDBRANCH   4   2
ENDBRANCH   5   4
ENDBRANCH   6   5
ENDBRANCH   9   7
TORSDOF 7
ENDMDL
MODEL 5
REMARK VINA RESULT:     -10.9      1.896      3.655
REMARK  Name = 
REMARK  7 active torsions:
REMARK  status: ('A' for Active; 'I' for Inactive)
REMARK    1  A    between atoms: C_2  and  C_4
REMARK    2  A    between atoms: C_4  and  C_5
REMARK    3  A    between atoms: C_5  and  N_6
REMARK    4  A    between atoms: C_5  and  C_28
REMARK    5  A    between atoms: C_7  and  C_9
REMARK    6  A    between atoms: C_11  and  N_12
REMARK    7  A    between atoms: N_15  and  C_16
REMARK                            x       y       z     vdW  Elec       q    Type
REMARK                         _______ _______ _______ _____ _____    ______ ____
ROOT
ATOM      9  C   UNL     1      -2.728   3.516  24.760  0.00  0.00    +0.033 C 
ATOM     10  C   UNL     1      -2.253   2.893  24.498  0.00  0.00    -0.002 C 
ATOM     11  C   UNL     1      -1.432   2.950  24.555  0.00  0.00    +0.152 C 
ATOM     23  C   UNL     1      -1.087   3.628  24.872  0.00  0.00    +0.206 C 
ATOM     24  O   UNL     1      -0.265   3.685  24.929  0.00  0.00    -0.218 OA
ATOM     25  C   UNL     1      -1.561   4.250  25.134  0.00  0.00    +0.189 C 
ATOM     26  O   UNL     1      -1.215   4.928  25.451  0.00  0.00    -0.220 OA
ATOM     27  C   UNL     1      -2.383   4.193  25.077  0.00  0.00    +0.066 C 
ENDROOT
BRANCH  11  12
ATOM     12  N   UNL     1      -0.956   2.328  24.293  0.00  0.00    -0.181 NA
ATOM     13  C   UNL     1      -1.047   1.576  24.619  0.00  0.00    +0.344 C 
ATOM     14  O   UNL     1      -1.611   1.445  25.205  0.00  0.00    -0.249 OA
ATOM     15  N   UNL     1      -0.571   0.955  24.358  0.00  0.00    -0.160 NA
BRANCH  15  16
ATOM     16  C   UNL     1      -0.662   0.201  24.684  0.00  0.00    +0.081 A 
ATOM     17  C   UNL     1      -1.083   0.104  25.387  0.00  0.00    +0.017 A 
ATOM     18  C   UNL     1      -1.173  -0.649  25.712  0.00  0.00    +0.001 A 
ATOM     19  C   UNL     1      -0.842  -1.303  25.336  0.00  0.00    +0.001 A 
ATOM     20  C   UNL     1      -0.422  -1.206  24.633  0.00  0.00    +0.008 A 
ATOM     21  C   UNL     1      -0.331  -0.453  24.307  0.00  0.00    +0.050 A 
ATOM     22 BR   UNL     1       0.090  -0.356  23.604  0.00  0.00    -0.048 Br
ENDBRANCH  15  16
ENDBRANCH  11  12
BRANCH   9   7
ATOM      6  N   UNL     1      -3.971   3.015  25.257  0.00  0.00    -0.194 NA
ATOM      7  C   UNL     1      -3.549   3.458  24.703  0.00  0.00    +0.261 C 
ATOM      8  O   UNL     1      -3.949   3.844  24.093  0.00  0.00    -0.269 OA
BRANCH   6   5
ATOM      5  C   UNL     1      -4.792   2.958  25.200  0.00  0.00    +0.175 C 
BRANCH   5  28
ATOM     28  C   UNL     1      -5.273   3.420  25.686  0.00  0.00    +0.281 C 
ATOM     29  N   UNL     1      -5.243   3.326  26.504  0.00  0.00    -0.086 NA
ATOM     30  O   UNL     1      -5.783   3.976  25.351  0.00  0.00    -0.270 OA
ENDBRANCH   5  28
BRANCH   5   4
ATOM      4  C   UNL     1      -5.132   2.437  24.657  0.00  0.00    +0.031 C 
BRANCH   4   2
ATOM      1  C   UNL     1      -4.925   1.080  25.053  0.00  0.00    +0.000 C 
ATOM      2  C   UNL     1      -5.435   1.714  24.914  0.00  0.00    +0.002 C 
ATOM      3  C   UNL     1      -6.246   1.624  25.031  0.00  0.00    +0.000 C 
ENDBRANCH   4   2
ENDBRANCH   5   4
ENDBRANCH   6   5
ENDBRANCH   9   7
TORSDOF 7
ENDMDL
MODEL 6
REMARK VINA RESULT:     -10.6      2.326      5.449
REMARK  Name = 
REMARK  7 active torsions:
REMARK  status: ('A' for Active; 'I' for Inactive)
REMARK    1  A    between atoms: C_2  and  C_4
REMARK    2  A    between atoms: C_4  and  C_5
REMARK    3  A    between atoms: C_5  and  N_6
REMARK    4  A    between atoms: C_5  and  C_28
REMARK    5  A    between atoms: C_7  and  C_9
REMARK    6  A    between atoms: C_11  and  N_12
REMARK    7  A    between atoms: N_15  and  C_16
REMARK                            x       y       z     vdW  Elec       q    Type
REMARK                         _______ _______ _______ _____ _____    ______ ____
ROOT
ATOM      9  C   UNL     1      -1.073  -0.060  24.732  0.00  0.00    +0.033 C 
ATOM     10  C   UNL     1      -1.326   0.680  24.997  0.00  0.00    -0.002 C 
ATOM     11  C   UNL     1      -0.915   1.360  24.774  0.00  0.00    +0.152 C 
ATOM     23  C   UNL     1      -0.253   1.301  24.287  0.00  0.00    +0.206 C 
ATOM     24  O   UNL     1       0.157   1.982  24.064  0.00  0.00    -0.218 OA
ATOM     25  C   UNL     1      -0.001   0.562  24.022  0.00  0.00    +0.189 C 
ATOM     26  O   UNL     1       0.662   0.503  23.534  0.00  0.00    -0.220 OA
ATOM     27  C   UNL     1      -0.411  -0.118  24.245  0.00  0.00    +0.066 C 
ENDROOT
BRANCH  11  12
ATOM     12  N   UNL     1      -1.168   2.100  25.040  0.00  0.00    -0.181 NA
ATOM     13  C   UNL     1      -1.944   2.344  24.901  0.00  0.00    +0.344 C 
ATOM     14  O   UNL     1      -2.466   1.851  24.497  0.00  0.00    -0.249 OA
ATOM     15  N   UNL     1      -2.196   3.084  25.166  0.00  0.00    -0.160 NA
BRANCH  15  16
ATOM     16  C   UNL     1      -2.972   3.329  25.027  0.00  0.00    +0.081 A 
ATOM     17  C   UNL     1      -3.351   3.118  24.325  0.00  0.00    +0.017 A 
ATOM     18  C   UNL     1      -4.127   3.363  24.186  0.00  0.00    +0.001 A 
ATOM     19  C   UNL     1      -4.522   3.818  24.748  0.00  0.00    +0.001 A 
ATOM     20  C   UNL     1      -4.143   4.028  25.450  0.00  0.00    +0.008 A 
ATOM     21  C   UNL     1      -3.367   3.783  25.589  0.00  0.00    +0.050 A 
ATOM     22 BR   UNL     1      -2.988   3.994  26.291  0.00  0.00    -0.048 Br
ENDBRANCH  15  16
ENDBRANCH  11  12
BRANCH   9   7
ATOM      6  N   UNL     1      -2.002  -1.101  24.424  0.00  0.00    -0.194 NA
ATOM      7  C   UNL     1      -1.483  -0.739  24.955  0.00  0.00    +0.261 C 
ATOM      8  O   UNL     1      -1.376  -1.058  25.709  0.00  0.00    -0.269 OA
BRANCH   6   5
ATOM      5  C   UNL     1      -2.412  -1.781  24.647  0.00  0.00    +0.175 C 
BRANCH   5  28
ATOM     28  C   UNL     1      -2.055  -2.521  24.576  0.00  0.00    +0.281 C 
ATOM     29  N   UNL     1      -2.052  -3.040  25.216  0.00  0.00    -0.086 NA
ATOM     30  O   UNL     1      -1.700  -2.741  23.864  0.00  0.00    -0.270 OA
ENDBRANCH   5  28
BRANCH   5   4
ATOM      4  C   UNL     1      -3.181  -1.720  24.941  0.00  0.00    +0.031 C 
BRANCH   4   2
ATOM      1  C   UNL     1      -4.230  -0.947  24.355  0.00  0.00    +0.000 C 
ATOM      2  C   UNL     1      -3.818  -1.659  24.420  0.00  0.00    +0.002 C 
ATOM      3  C   UNL     1      -4.042  -2.309  23.964  0.00  0.00    +0.000 C 
ENDBRANCH   4   2
ENDBRANCH   5   4
ENDBRANCH   6   5
ENDBRANCH   9   7
TORSDOF 7
ENDMDL
