MODEL 1
REMARK VINA RESULT:     -12.0      0.000      0.000
REMARK  Name = 
REMARK  5 active torsions:
REMARK  status: ('A' for Active; 'I' for Inactive)
REMARK    1  A    between atoms: C_4  and  N_19
REMARK    2  A    between atoms: C_6  and  C_7
REMARK    3  A    between atoms: C_9  and  C_12
REMARK    4  A    between atoms: N_19  and  S_20
REMARK    5  A    between atoms: S_20  and  C_23
REMARK                            x       y       z     vdW  Elec       q    Type
REMARK                         _______ _______ _______ _____ _____    ______ ____
ROOT
ATOM      1  C   UNL     1       0.013   0.432  24.012  0.00  0.00    +0.090 C 
ATOM      2  N   UNL     1      -0.523   0.104  24.546  0.00  0.00    -0.264 NA
ATOM      3  C   UNL     1      -0.812  -0.669  24.529  0.00  0.00    +0.092 C 
ATOM      4  C   UNL     1      -1.331  -0.760  25.164  0.00  0.00    +0.115 C 
ATOM      5  C   UNL     1      -1.363  -0.044  25.572  0.00  0.00    +0.046 C 
ATOM      6  C   UNL     1      -0.864   0.490  25.189  0.00  0.00    +0.139 C 
ENDROOT
BRANCH   6   7
ATOM      7  C   UNL     1      -0.729   1.272  25.412  0.00  0.00    +0.251 A 
ATOM      8  N   UNL     1      -1.156   1.930  25.155  0.00  0.00    -0.190 NA
ATOM      9  C   UNL     1      -0.834   2.599  25.515  0.00  0.00    +0.203 A 
ATOM     10  N   UNL     1      -0.208   2.355  25.993  0.00  0.00    -0.056 NA
ATOM     11  O   UNL     1      -0.143   1.536  25.929  0.00  0.00    -0.336 OA
BRANCH   9  12
ATOM     12  C   UNL     1      -1.093   3.376  25.413  0.00  0.00    +0.039 A 
ATOM     13  C   UNL     1      -0.623   3.917  25.005  0.00  0.00    +0.003 A 
ATOM     14  C   UNL     1      -0.882   4.694  24.904  0.00  0.00    -0.004 A 
ATOM     15  C   UNL     1      -1.610   4.930  25.210  0.00  0.00    -0.022 A 
ATOM     16  C   UNL     1      -1.869   5.707  25.109  0.00  0.00    +0.031 C 
ATOM     17  C   UNL     1      -2.081   4.389  25.619  0.00  0.00    -0.004 A 
ATOM     18  C   UNL     1      -1.822   3.612  25.720  0.00  0.00    +0.003 A 
ENDBRANCH   9  12
ENDBRANCH   6   7
BRANCH   4  19
ATOM     19  N   UNL     1      -1.746  -1.447  25.357  0.00  0.00    -0.077 NA
BRANCH  19  20
ATOM     20  S   UNL     1      -2.448  -1.628  24.963  0.00  0.00    +0.083 S 
ATOM     21  O   UNL     1      -2.869  -1.168  25.502  0.00  0.00    -0.151 OA
ATOM     22  O   UNL     1      -2.027  -2.089  24.423  0.00  0.00    -0.151 OA
BRANCH  20  23
ATOM     23  C   UNL     1      -3.150  -1.810  24.570  0.00  0.00    +0.153 A 
ATOM     24  C   UNL     1      -3.726  -1.271  24.331  0.00  0.00    +0.027 A 
ATOM     25  C   UNL     1      -4.331  -1.691  23.959  0.00  0.00    +0.009 A 
ATOM     26  C   UNL     1      -4.129  -2.490  23.969  0.00  0.00    +0.037 A 
ATOM     27  S   UNL     1      -3.399  -2.564  24.346  0.00  0.00    -0.067 S 
ENDBRANCH  20  23
ENDBRANCH  19  20
ENDBRANCH   4  19
TORSDOF 5
ENDMDL
MODEL 2
REMARK VINA RESULT:     -11.8      2.724      5.849
REMARK  Name = 
REMARK  5 active torsions:
REMARK  status: ('A' for Active; 'I' for Inactive)
REMARK    1  A    between atoms: C_4  and  N_19
REMARK    2  A    between atoms: C_6  and  C_7
REMARK    3  A    between atoms: C_9  and  C_12
REMARK    4  A    between atoms: N_19  and  S_20
REMARK    5  A    between atoms: S_20  and  C_23
REMARK                            x       y       z     vdW  Elec       q    Type
REMARK                         _______ _______ _______ _____ _____    ______ ____
ROOT
ATOM      1  C   UNL     1      -5.293   2.260  24.704  0.00  0.00    +0.090 C 
ATOM      2  N   UNL     1      -4.547   2.480  24.980  0.00  0.00    -0.264 NA
ATOM      3  C   UNL     1      -4.372   3.163  25.408  0.00  0.00    +0.092 C 
ATOM      4  C   UNL     1      -3.562   3.161  25.570  0.00  0.00    +0.115 C 
ATOM      5  C   UNL     1      -3.239   2.476  25.242  0.00  0.00    +0.046 C 
ATOM      6  C   UNL     1      -3.848   2.056  24.878  0.00  0.00    +0.139 C 
ENDROOT
BRANCH   6   7
ATOM      7  C   UNL     1      -3.771   1.337  24.481  0.00  0.00    +0.251 A 
ATOM      8  N   UNL     1      -3.782   0.588  24.827  0.00  0.00    -0.190 NA
ATOM      9  C   UNL     1      -3.688   0.029  24.228  0.00  0.00    +0.203 A 
ATOM     10  N   UNL     1      -3.619   0.432  23.512  0.00  0.00    -0.056 NA
ATOM     11  O   UNL     1      -3.670   1.239  23.668  0.00  0.00    -0.336 OA
BRANCH   9  12
ATOM     12  C   UNL     1      -3.666  -0.790  24.328  0.00  0.00    +0.039 A 
ATOM     13  C   UNL     1      -4.178  -1.271  23.895  0.00  0.00    +0.003 A 
ATOM     14  C   UNL     1      -4.156  -2.090  23.995  0.00  0.00    -0.004 A 
ATOM     15  C   UNL     1      -3.623  -2.427  24.527  0.00  0.00    -0.022 A 
ATOM     16  C   UNL     1      -3.602  -3.246  24.627  0.00  0.00    +0.031 C 
ATOM     17  C   UNL     1      -3.112  -1.946  24.960  0.00  0.00    -0.004 A 
ATOM     18  C   UNL     1      -3.133  -1.127  24.860  0.00  0.00    +0.003 A 
ENDBRANCH   9  12
ENDBRANCH   6   7
BRANCH   4  19
ATOM     19  N   UNL     1      -3.149   3.741  25.986  0.00  0.00    -0.077 NA
BRANCH  19  20
ATOM     20  S   UNL     1      -2.467   4.074  25.662  0.00  0.00    +0.083 S 
ATOM     21  O   UNL     1      -2.003   3.562  26.112  0.00  0.00    -0.151 OA
ATOM     22  O   UNL     1      -2.931   4.587  25.212  0.00  0.00    -0.151 OA
BRANCH  20  23
ATOM     23  C   UNL     1      -1.785   4.407  25.338  0.00  0.00    +0.153 A 
ATOM     24  C   UNL     1      -1.684   5.198  25.129  0.00  0.00    +0.027 A 
ATOM     25  C   UNL     1      -0.921   5.287  24.828  0.00  0.00    +0.009 A 
ATOM     26  C   UNL     1      -0.551   4.551  24.851  0.00  0.00    +0.037 A 
ATOM     27  S   UNL     1      -1.085   4.006  25.166  0.00  0.00    -0.067 S 
ENDBRANCH  20  23
ENDBRANCH  19  20
ENDBRANCH   4  19
TORSDOF 5
ENDMDL
MODEL 3
REMARK VINA RESULT:     -11.6      1.818      5.198
REMARK  Name = 
REMARK  5 active torsions:
REMARK  status: ('A' for Active; 'I' for Inactive)
REMARK    1  A    between atoms: C_4  and  N_19
REMARK    2  A    between atoms: C_6  and  C_7
REMARK    3  A    between atoms: C_9  and  C_12
REMARK    4  A    between atoms: N_19  and  S_20
REMARK    5  A    between atoms: S_20  and  C_23
REMARK                            x       y       z     vdW  Elec       q    Type
REMARK                         _______ _______ _______ _____ _____    ______ ____
ROOT
ATOM      1  C   UNL     1       0.076   0.456  23.703  0.00  0.00    +0.090 C 
ATOM      2  N   UNL     1      -0.140   0.885  24.374  0.00  0.00    -0.264 NA
ATOM      3  C   UNL     1       0.124   1.641  24.570  0.00  0.00    +0.092 C 
ATOM      4  C   UNL     1      -0.229   1.857  25.283  0.00  0.00    +0.115 C 
ATOM      5  C   UNL     1      -0.712   1.233  25.528  0.00  0.00    +0.046 C 
ATOM      6  C   UNL     1      -0.656   0.632  24.965  0.00  0.00    +0.139 C 
ENDROOT
BRANCH   6   7
ATOM      7  C   UNL     1      -1.047  -0.093  24.989  0.00  0.00    +0.251 A 
ATOM      8  N   UNL     1      -1.778  -0.261  24.645  0.00  0.00    -0.190 NA
ATOM      9  C   UNL     1      -1.960  -1.050  24.805  0.00  0.00    +0.203 A 
ATOM     10  N   UNL     1      -1.342  -1.368  25.248  0.00  0.00    -0.056 NA
ATOM     11  O   UNL     1      -0.778  -0.778  25.361  0.00  0.00    -0.336 OA
BRANCH   9  12
ATOM     12  C   UNL     1      -2.641  -1.449  24.565  0.00  0.00    +0.039 A 
ATOM     13  C   UNL     1      -2.644  -2.273  24.530  0.00  0.00    +0.003 A 
ATOM     14  C   UNL     1      -3.325  -2.673  24.290  0.00  0.00    -0.004 A 
ATOM     15  C   UNL     1      -4.002  -2.248  24.084  0.00  0.00    -0.022 A 
ATOM     16  C   UNL     1      -4.683  -2.647  23.843  0.00  0.00    +0.031 C 
ATOM     17  C   UNL     1      -3.998  -1.424  24.118  0.00  0.00    -0.004 A 
ATOM     18  C   UNL     1      -3.317  -1.024  24.359  0.00  0.00    +0.003 A 
ENDBRANCH   9  12
ENDBRANCH   6   7
BRANCH   4  19
ATOM     19  N   UNL     1      -0.120   2.570  25.682  0.00  0.00    -0.077 NA
BRANCH  19  20
ATOM     20  S   UNL     1      -0.647   3.194  25.563  0.00  0.00    +0.083 S 
ATOM     21  O   UNL     1      -0.222   3.426  24.895  0.00  0.00    -0.151 OA
ATOM     22  O   UNL     1      -1.073   2.963  26.231  0.00  0.00    -0.151 OA
BRANCH  20  23
ATOM     23  C   UNL     1      -1.174   3.818  25.443  0.00  0.00    +0.153 A 
ATOM     24  C   UNL     1      -1.001   4.535  25.075  0.00  0.00    +0.027 A 
ATOM     25  C   UNL     1      -1.687   4.994  25.076  0.00  0.00    +0.009 A 
ATOM     26  C   UNL     1      -2.283   4.560  25.445  0.00  0.00    +0.037 A 
ATOM     27  S   UNL     1      -1.966   3.833  25.673  0.00  0.00    -0.067 S 
ENDBRANCH  20  23
ENDBRANCH  19  20
ENDBRANCH   4  19
TORSDOF 5
ENDMDL
