MODEL 1
REMARK VINA RESULT:      -9.2      0.000      0.000
REMARK  Name = 
REMARK  9 active torsions:
REMARK  status: ('A' for Active; 'I' for Inactive)
REMARK    1  A    between atoms: O_2  and  C_3
REMARK    2  A    between atoms: C_6  and  N_7
REMARK    3  A    between atoms: N_10  and  C_11
REMARK    4  A    between atoms: C_11  and  C_12
REMARK    5  A    between atoms: C_16  and  C_17
REMARK    6  A    between atoms: C_17  and  C_18
REMARK    7  A    between atoms: N_20  and  C_21
REMARK    8  A    between atoms: C_21  and  C_22
REMARK    9  A    between atoms: C_29  and  C_30
REMARK                            x       y       z     vdW  Elec       q    Type
REMARK                         _______ _______ _______ _____ _____    ______ ____
ROOT
ATOM     12  C   UNL     1      -0.631   0.654  24.152  0.00  0.00    +0.043 C 
ATOM     13  C   UNL     1      -0.764  -0.153  24.254  0.00  0.00    -0.033 C 
ATOM     14  C   UNL     1      -1.500  -0.421  24.512  0.00  0.00    -0.048 C 
ATOM     15  C   UNL     1      -1.634  -1.229  24.614  0.00  0.00    +0.026 C 
ATOM     16  C   UNL     1      -2.104   0.119  24.669  0.00  0.00    +0.027 C 
ATOM     28  C   UNL     1      -1.971   0.928  24.567  0.00  0.00    +0.005 C 
ATOM     29  C   UNL     1      -1.234   1.194  24.309  0.00  0.00    +0.006 C 
ENDROOT
BRANCH  29  30
ATOM     30  C   UNL     1      -1.102   2.002  24.207  0.00  0.00    +0.000 C 
ATOM     31  C   UNL     1      -1.258   2.357  23.478  0.00  0.00    +0.000 C 
ATOM     32  C   UNL     1      -0.813   2.455  24.833  0.00  0.00    +0.000 C 
ENDBRANCH  29  30
BRANCH  12  11
ATOM     11  C   UNL     1       0.105   0.921  23.894  0.00  0.00    +0.121 C 
BRANCH  11  10
ATOM      7  N   UNL     1       1.840   0.060  22.887  0.00  0.00    -0.161 NA
ATOM      8  C   UNL     1       1.383   0.529  23.389  0.00  0.00    +0.344 C 
ATOM      9  O   UNL     1       1.748   1.074  23.890  0.00  0.00    -0.249 OA
ATOM     10  N   UNL     1       0.562   0.453  23.391  0.00  0.00    -0.187 NA
BRANCH   7   6
ATOM      3  C   UNL     1       4.304   0.286  22.880  0.00  0.00    +0.139 A 
ATOM      4  C   UNL     1       3.953  -0.387  23.200  0.00  0.00    +0.038 A 
ATOM      5  C   UNL     1       3.132  -0.464  23.202  0.00  0.00    +0.020 A 
ATOM      6  C   UNL     1       2.661   0.136  22.884  0.00  0.00    +0.075 A 
ATOM     33  C   UNL     1       3.013   0.810  22.564  0.00  0.00    +0.020 A 
ATOM     34  C   UNL     1       3.834   0.886  22.562  0.00  0.00    +0.038 A 
BRANCH   3   2
ATOM      1  C   UNL     1       5.556   0.217  23.566  0.00  0.00    +0.252 C 
ATOM      2  O   UNL     1       5.126   0.363  22.878  0.00  0.00    -0.471 OA
ENDBRANCH   3   2
ENDBRANCH   7   6
ENDBRANCH  11  10
ENDBRANCH  12  11
BRANCH  16  17
ATOM     17  C   UNL     1      -2.841  -0.148  24.928  0.00  0.00    +0.091 C 
BRANCH  17  18
ATOM     18  C   UNL     1      -3.530   0.162  24.598  0.00  0.00    +0.242 C 
ATOM     19  O   UNL     1      -3.765  -0.065  23.840  0.00  0.00    -0.273 OA
ATOM     20  N   UNL     1      -3.985   0.700  25.027  0.00  0.00    -0.200 NA
BRANCH  20  21
ATOM     21  C   UNL     1      -4.675   1.011  24.698  0.00  0.00    +0.143 C 
BRANCH  21  22
ATOM     22  C   UNL     1      -5.045   1.658  25.051  0.00  0.00    +0.019 A 
ATOM     23  C   UNL     1      -4.872   2.424  24.794  0.00  0.00    +0.001 A 
ATOM     24  C   UNL     1      -5.241   3.071  25.147  0.00  0.00    +0.020 A 
ATOM     25  C   UNL     1      -5.783   2.954  25.757  0.00  0.00    +0.099 A 
ATOM     26  N   UNL     1      -5.956   2.190  26.015  0.00  0.00    -0.243 NA
ATOM     27  C   UNL     1      -5.587   1.542  25.661  0.00  0.00    +0.096 A 
ENDBRANCH  21  22
ENDBRANCH  20  21
ENDBRANCH  17  18
ENDBRANCH  16  17
TORSDOF 9
ENDMDL
MODEL 2
REMARK VINA RESULT:      -8.8      1.396      2.396
REMARK  Name = 
REMARK  9 active torsions:
REMARK  status: ('A' for Active; 'I' for Inactive)
REMARK    1  A    between atoms: O_2  and  C_3
REMARK    2  A    between atoms: C_6  and  N_7
REMARK    3  A    between atoms: N_10  and  C_11
REMARK    4  A    between atoms: C_11  and  C_12
REMARK    5  A    between atoms: C_16  and  C_17
REMARK    6  A    between atoms: C_17  and  C_18
REMARK    7  A    between atoms: N_20  and  C_21
REMARK    8  A    between atoms: C_21  and  C_22
REMARK    9  A    between atoms: C_29  and  C_30
REMARK                            x       y       z     vdW  Elec       q    Type
REMARK                         _______ _______ _______ _____ _____    ______ ____
ROOT
ATOM     12  C   UNL     1      -0.738   1.407  24.037  0.00  0.00    +0.043 C 
ATOM     13  C   UNL     1      -1.127   1.464  23.313  0.00  0.00    -0.033 C 
ATOM     14  C   UNL     1      -1.950   1.521  23.289  0.00  0.00    -0.048 C 
ATOM     15  C   UNL     1      -2.339   1.578  22.564  0.00  0.00    +0.026 C 
ATOM     16  C   UNL     1      -2.383   1.520  23.991  0.00  0.00    +0.027 C 
ATOM     28  C   UNL     1      -1.994   1.462  24.717  0.00  0.00    +0.005 C 
ATOM     29  C   UNL     1      -1.171   1.406  24.739  0.00  0.00    +0.006 C 
ENDROOT
BRANCH  29  30
ATOM     30  C   UNL     1      -0.782   1.348  25.465  0.00  0.00    +0.000 C 
ATOM     31  C   UNL     1      -0.679   0.610  25.819  0.00  0.00    +0.000 C 
ATOM     32  C   UNL     1      -0.498   2.027  25.835  0.00  0.00    +0.000 C 
ENDBRANCH  29  30
BRANCH  12  11
ATOM     11  C   UNL     1       0.085   1.350  24.061  0.00  0.00    +0.121 C 
BRANCH  11  10
ATOM      7  N   UNL     1       1.709   0.448  22.915  0.00  0.00    -0.161 NA
ATOM      8  C   UNL     1       1.309   0.893  23.483  0.00  0.00    +0.344 C 
ATOM      9  O   UNL     1       1.735   1.324  24.044  0.00  0.00    -0.249 OA
ATOM     10  N   UNL     1       0.485   0.906  23.492  0.00  0.00    -0.187 NA
BRANCH   7   6
ATOM      3  C   UNL     1       4.184   0.409  22.888  0.00  0.00    +0.139 A 
ATOM      4  C   UNL     1       3.780   1.096  22.676  0.00  0.00    +0.038 A 
ATOM      5  C   UNL     1       2.955   1.110  22.684  0.00  0.00    +0.020 A 
ATOM      6  C   UNL     1       2.533   0.435  22.906  0.00  0.00    +0.075 A 
ATOM     33  C   UNL     1       2.938  -0.252  23.118  0.00  0.00    +0.020 A 
ATOM     34  C   UNL     1       3.762  -0.266  23.110  0.00  0.00    +0.038 A 
BRANCH   3   2
ATOM      1  C   UNL     1       5.423   0.075  23.516  0.00  0.00    +0.252 C 
ATOM      2  O   UNL     1       5.009   0.395  22.880  0.00  0.00    -0.471 OA
ENDBRANCH   3   2
ENDBRANCH   7   6
ENDBRANCH  11  10
ENDBRANCH  12  11
BRANCH  16  17
ATOM     17  C   UNL     1      -3.207   1.576  23.968  0.00  0.00    +0.091 C 
BRANCH  17  18
ATOM     18  C   UNL     1      -3.668   1.050  24.405  0.00  0.00    +0.242 C 
ATOM     19  O   UNL     1      -4.072   1.313  25.074  0.00  0.00    -0.273 OA
ATOM     20  N   UNL     1      -3.724   0.261  24.172  0.00  0.00    -0.200 NA
BRANCH  20  21
ATOM     21  C   UNL     1      -4.186  -0.266  24.609  0.00  0.00    +0.143 C 
BRANCH  21  22
ATOM     22  C   UNL     1      -4.074  -1.079  24.525  0.00  0.00    +0.019 A 
ATOM     23  C   UNL     1      -3.670  -1.502  25.107  0.00  0.00    +0.001 A 
ATOM     24  C   UNL     1      -3.558  -2.315  25.023  0.00  0.00    +0.020 A 
ATOM     25  C   UNL     1      -3.850  -2.705  24.358  0.00  0.00    +0.099 A 
ATOM     26  N   UNL     1      -4.254  -2.282  23.776  0.00  0.00    -0.243 NA
ATOM     27  C   UNL     1      -4.366  -1.468  23.860  0.00  0.00    +0.096 A 
ENDBRANCH  21  22
ENDBRANCH  20  21
ENDBRANCH  17  18
ENDBRANCH  16  17
TORSDOF 9
ENDMDL
MODEL 3
REMARK VINA RESULT:      -8.4      1.435      7.115
REMARK  Name = 
REMARK  9 active torsions:
REMARK  status: ('A' for Active; 'I' for Inactive)
REMARK    1  A    between atoms: O_2  and  C_3
REMARK    2  A    between atoms: C_6  and  N_7
REMARK    3  A    between atoms: N_10  and  C_11
REMARK    4  A    between atoms: C_11  and  C_12
REMARK    5  A    between atoms: C_16  and  C_17
REMARK    6  A    between atoms: C_17  and  C_18
REMARK    7  A    between atoms: N_20  and  C_21
REMARK    8  A    between atoms: C_21  and  C_22
REMARK    9  A    between atoms: C_29  and  C_30
REMARK                            x       y       z     vdW  Elec       q    Type
REMARK                         _______ _______ _______ _____ _____    ______ ____
ROOT
ATOM     12  C   UNL     1      -1.042   1.052  24.444  0.00  0.00    +0.043 C 
ATOM     13  C   UNL     1      -1.235   0.273  24.255  0.00  0.00    -0.033 C 
ATOM     14  C   UNL     1      -0.654  -0.241  23.974  0.00  0.00    -0.048 C 
ATOM     15  C   UNL     1      -0.847  -1.020  23.786  0.00  0.00    +0.026 C 
ATOM     16  C   UNL     1       0.121   0.026  23.881  0.00  0.00    +0.027 C 
ATOM     28  C   UNL     1       0.315   0.806  24.069  0.00  0.00    +0.005 C 
ATOM     29  C   UNL     1      -0.267   1.319  24.351  0.00  0.00    +0.006 C 
ENDROOT
BRANCH  29  30
ATOM     30  C   UNL     1      -0.073   2.098  24.539  0.00  0.00    +0.000 C 
ATOM     31  C   UNL     1      -0.129   2.687  23.963  0.00  0.00    +0.000 C 
ATOM     32  C   UNL     1       0.177   2.289  25.300  0.00  0.00    +0.000 C 
ENDBRANCH  29  30
BRANCH  12  11
ATOM     11  C   UNL     1      -1.623   1.565  24.725  0.00  0.00    +0.121 C 
BRANCH  11  10
ATOM      7  N   UNL     1      -3.781   1.859  24.567  0.00  0.00    -0.161 NA
ATOM      8  C   UNL     1      -2.996   1.955  24.802  0.00  0.00    +0.344 C 
ATOM      9  O   UNL     1      -2.798   2.541  25.350  0.00  0.00    -0.249 OA
ATOM     10  N   UNL     1      -2.408   1.468  24.490  0.00  0.00    -0.187 NA
BRANCH   7   6
ATOM      3  C   UNL     1      -5.544   3.322  25.503  0.00  0.00    +0.139 A 
ATOM      4  C   UNL     1      -4.974   3.635  24.997  0.00  0.00    +0.038 A 
ATOM      5  C   UNL     1      -4.386   3.148  24.684  0.00  0.00    +0.020 A 
ATOM      6  C   UNL     1      -4.368   2.346  24.879  0.00  0.00    +0.075 A 
ATOM     33  C   UNL     1      -4.939   2.033  25.386  0.00  0.00    +0.020 A 
ATOM     34  C   UNL     1      -5.526   2.520  25.698  0.00  0.00    +0.038 A 
BRANCH   3   2
ATOM      1  C   UNL     1      -6.095   4.625  25.704  0.00  0.00    +0.252 C 
ATOM      2  O   UNL     1      -6.132   3.809  25.816  0.00  0.00    -0.471 OA
ENDBRANCH   3   2
ENDBRANCH   7   6
ENDBRANCH  11  10
ENDBRANCH  12  11
BRANCH  16  17
ATOM     17  C   UNL     1       0.704  -0.487  23.600  0.00  0.00    +0.091 C 
BRANCH  17  18
ATOM     18  C   UNL     1       1.237  -0.229  23.026  0.00  0.00    +0.242 C 
ATOM     19  O   UNL     1       0.969  -0.033  22.271  0.00  0.00    -0.273 OA
ATOM     20  N   UNL     1       2.039  -0.168  23.208  0.00  0.00    -0.200 NA
BRANCH  20  21
ATOM     21  C   UNL     1       2.574   0.090  22.634  0.00  0.00    +0.143 C 
BRANCH  21  22
ATOM     22  C   UNL     1       3.372   0.179  22.825  0.00  0.00    +0.019 A 
ATOM     23  C   UNL     1       3.750   0.900  22.688  0.00  0.00    +0.001 A 
ATOM     24  C   UNL     1       4.547   0.989  22.879  0.00  0.00    +0.020 A 
ATOM     25  C   UNL     1       4.966   0.360  23.206  0.00  0.00    +0.099 A 
ATOM     26  N   UNL     1       4.589  -0.361  23.343  0.00  0.00    -0.243 NA
ATOM     27  C   UNL     1       3.791  -0.451  23.152  0.00  0.00    +0.096 A 
ENDBRANCH  21  22
ENDBRANCH  20  21
ENDBRANCH  17  18
ENDBRANCH  16  17
TORSDOF 9
ENDMDL
MODEL 4
REMARK VINA RESULT:      -5.9     17.043     18.790
REMARK  Name = 
REMARK  9 active torsions:
REMARK  status: ('A' for Active; 'I' for Inactive)
REMARK    1  A    between atoms: O_2  and  C_3
REMARK    2  A    between atoms: C_6  and  N_7
REMARK    3  A    between atoms: N_10  and  C_11
REMARK    4  A    between atoms: C_11  and  C_12
REMARK    5  A    between atoms: C_16  and  C_17
REMARK    6  A    between atoms: C_17  and  C_18
REMARK    7  A    between atoms: N_20  and  C_21
REMARK    8  A    between atoms: C_21  and  C_22
REMARK    9  A    between atoms: C_29  and  C_30
REMARK                            x       y       z     vdW  Elec       q    Type
REMARK                         _______ _______ _______ _____ _____    ______ ____
ROOT
ATOM     12  C   UNL     1      -6.061  -9.123   9.878  0.00  0.00    +0.043 C 
ATOM     13  C   UNL     1      -5.571  -9.206   9.221  0.00  0.00    -0.033 C 
ATOM     14  C   UNL     1      -4.840  -9.581   9.295  0.00  0.00    -0.048 C 
ATOM     15  C   UNL     1      -4.349  -9.664   8.637  0.00  0.00    +0.026 C 
ATOM     16  C   UNL     1      -4.600  -9.873  10.028  0.00  0.00    +0.027 C 
ATOM     28  C   UNL     1      -5.090  -9.791  10.687  0.00  0.00    +0.005 C 
ATOM     29  C   UNL     1      -5.821  -9.415  10.611  0.00  0.00    +0.006 C 
ENDROOT
BRANCH  29  30
ATOM     30  C   UNL     1      -6.311  -9.332  11.270  0.00  0.00    +0.000 C 
ATOM     31  C   UNL     1      -6.226  -8.679  11.768  0.00  0.00    +0.000 C 
ATOM     32  C   UNL     1      -6.885  -9.901  11.431  0.00  0.00    +0.000 C 
ENDBRANCH  29  30
BRANCH  12  11
ATOM     11  C   UNL     1      -6.792  -8.747   9.804  0.00  0.00    +0.121 C 
BRANCH  11  10
ATOM      7  N   UNL     1      -7.899  -7.618   8.299  0.00  0.00    -0.161 NA
ATOM      8  C   UNL     1      -7.662  -7.920   9.029  0.00  0.00    +0.344 C 
ATOM      9  O   UNL     1      -8.060  -7.694   9.717  0.00  0.00    -0.249 OA
ATOM     10  N   UNL     1      -7.029  -8.446   9.073  0.00  0.00    -0.187 NA
BRANCH   7   6
ATOM      3  C   UNL     1      -9.799  -6.038   8.167  0.00  0.00    +0.139 A 
ATOM      4  C   UNL     1      -9.026  -5.753   8.173  0.00  0.00    +0.038 A 
ATOM      5  C   UNL     1      -8.392  -6.279   8.217  0.00  0.00    +0.020 A 
ATOM      6  C   UNL     1      -8.532  -7.092   8.255  0.00  0.00    +0.075 A 
ATOM     33  C   UNL     1      -9.307  -7.377   8.250  0.00  0.00    +0.020 A 
ATOM     34  C   UNL     1      -9.940  -6.851   8.206  0.00  0.00    +0.038 A 
BRANCH   3   2
ATOM      1  C   UNL     1     -10.559  -4.965   8.728  0.00  0.00    +0.252 C 
ATOM      2  O   UNL     1     -10.434  -5.512   8.124  0.00  0.00    -0.471 OA
ENDBRANCH   3   2
ENDBRANCH   7   6
ENDBRANCH  11  10
ENDBRANCH  12  11
BRANCH  16  17
ATOM     17  C   UNL     1      -3.868 -10.249  10.103  0.00  0.00    +0.091 C 
BRANCH  17  18
ATOM     18  C   UNL     1      -3.279  -9.914  10.573  0.00  0.00    +0.242 C 
ATOM     19  O   UNL     1      -2.909  -9.216  10.336  0.00  0.00    -0.273 OA
ATOM     20  N   UNL     1      -3.061 -10.277  11.281  0.00  0.00    -0.200 NA
BRANCH  20  21
ATOM     21  C   UNL     1      -2.471  -9.942  11.751  0.00  0.00    +0.143 C 
BRANCH  21  22
ATOM     22  C   UNL     1      -2.350 -10.219  12.519  0.00  0.00    +0.019 A 
ATOM     23  C   UNL     1      -2.987 -10.504  12.960  0.00  0.00    +0.001 A 
ATOM     24  C   UNL     1      -2.865 -10.781  13.727  0.00  0.00    +0.020 A 
ATOM     25  C   UNL     1      -2.109 -10.774  14.053  0.00  0.00    +0.099 A 
ATOM     26  N   UNL     1      -1.472 -10.490  13.613  0.00  0.00    -0.243 NA
ATOM     27  C   UNL     1      -1.593 -10.212  12.845  0.00  0.00    +0.096 A 
ENDBRANCH  21  22
ENDBRANCH  20  21
ENDBRANCH  17  18
ENDBRANCH  16  17
TORSDOF 9
ENDMDL
