MODEL 1
REMARK VINA RESULT:      -8.2      0.000      0.000
REMARK  Name = 
REMARK  11 active torsions:
REMARK  status: ('A' for Active; 'I' for Inactive)
REMARK    1  A    between atoms: O_2  and  C_3
REMARK    2  A    between atoms: C_3  and  C_4
REMARK    3  A    between atoms: C_4  and  C_5
REMARK    4  A    between atoms: N_7  and  C_8
REMARK    5  A    between atoms: C_8  and  C_9
REMARK    6  A    between atoms: C_13  and  C_14
REMARK    7  A    between atoms: C_14  and  C_15
REMARK    8  A    between atoms: N_17  and  C_18
REMARK    9  A    between atoms: C_18  and  C_19
REMARK   10  A    between atoms: C_19  and  N_20
REMARK   11  A    between atoms: C_27  and  C_28
REMARK                            x       y       z     vdW  Elec       q    Type
REMARK                         _______ _______ _______ _____ _____    ______ ____
ROOT
ATOM      9  C   UNL     1      -0.459   1.450  24.396  0.00  0.00    +0.043 C 
ATOM     10  C   UNL     1      -0.182   2.185  24.144  0.00  0.00    -0.033 C 
ATOM     11  C   UNL     1      -0.515   2.877  24.446  0.00  0.00    -0.048 C 
ATOM     12  C   UNL     1      -0.238   3.613  24.193  0.00  0.00    +0.026 C 
ATOM     13  C   UNL     1      -1.125   2.835  24.999  0.00  0.00    +0.027 C 
ATOM     26  C   UNL     1      -1.402   2.099  25.251  0.00  0.00    +0.005 C 
ATOM     27  C   UNL     1      -1.069   1.407  24.950  0.00  0.00    +0.006 C 
ENDROOT
BRANCH  27  28
ATOM     28  C   UNL     1      -1.346   0.672  25.202  0.00  0.00    +0.000 C 
ATOM     29  C   UNL     1      -1.000   0.301  25.852  0.00  0.00    +0.000 C 
ATOM     30  C   UNL     1      -1.970   0.307  24.802  0.00  0.00    +0.000 C 
ENDBRANCH  27  28
BRANCH   9   8
ATOM      8  C   UNL     1      -0.126   0.758  24.094  0.00  0.00    +0.119 C 
BRANCH   8   7
ATOM      5  C   UNL     1       0.798   0.110  23.218  0.00  0.00    +0.244 C 
ATOM      6  O   UNL     1       0.570  -0.623  23.520  0.00  0.00    -0.273 OA
ATOM      7  N   UNL     1       0.450   0.800  23.506  0.00  0.00    -0.205 NA
BRANCH   5   4
ATOM      4  C   UNL     1       1.374   0.152  22.629  0.00  0.00    +0.119 C 
BRANCH   4   3
ATOM      3  C   UNL     1       2.169   0.034  22.819  0.00  0.00    +0.152 C 
BRANCH   3   2
ATOM      1  C   UNL     1       3.491   0.455  22.477  0.00  0.00    +0.174 C 
ATOM      2  O   UNL     1       2.752   0.165  22.252  0.00  0.00    -0.351 OA
ENDBRANCH   3   2
ENDBRANCH   4   3
ENDBRANCH   5   4
ENDBRANCH   8   7
ENDBRANCH   9   8
BRANCH  13  14
ATOM     14  C   UNL     1      -1.458   3.527  25.301  0.00  0.00    +0.091 C 
BRANCH  14  15
ATOM     15  C   UNL     1      -2.209   3.508  25.642  0.00  0.00    +0.242 C 
ATOM     16  O   UNL     1      -2.291   3.405  26.455  0.00  0.00    -0.273 OA
ATOM     17  N   UNL     1      -2.879   3.592  25.167  0.00  0.00    -0.204 NA
BRANCH  17  18
ATOM     18  C   UNL     1      -3.630   3.573  25.507  0.00  0.00    +0.132 C 
BRANCH  18  19
ATOM     19  C   UNL     1      -4.301   3.584  25.027  0.00  0.00    +0.096 C 
BRANCH  19  20
ATOM     20  N   UNL     1      -4.914   3.049  25.163  0.00  0.00    -0.267 NA
ATOM     21  C   UNL     1      -5.020   2.405  24.658  0.00  0.00    +0.105 C 
ATOM     22  C   UNL     1      -5.632   1.869  24.794  0.00  0.00    +0.159 C 
ATOM     23  O   UNL     1      -6.140   1.978  25.435  0.00  0.00    -0.351 OA
ATOM     24  C   UNL     1      -6.035   2.622  25.941  0.00  0.00    +0.159 C 
ATOM     25  C   UNL     1      -5.422   3.157  25.804  0.00  0.00    +0.105 C 
ENDBRANCH  19  20
ENDBRANCH  18  19
ENDBRANCH  17  18
ENDBRANCH  14  15
ENDBRANCH  13  14
TORSDOF 11
ENDMDL
MODEL 2
REMARK VINA RESULT:      -7.8      2.749      4.410
REMARK  Name = 
REMARK  11 active torsions:
REMARK  status: ('A' for Active; 'I' for Inactive)
REMARK    1  A    between atoms: O_2  and  C_3
REMARK    2  A    between atoms: C_3  and  C_4
REMARK    3  A    between atoms: C_4  and  C_5
REMARK    4  A    between atoms: N_7  and  C_8
REMARK    5  A    between atoms: C_8  and  C_9
REMARK    6  A    between atoms: C_13  and  C_14
REMARK    7  A    between atoms: C_14  and  C_15
REMARK    8  A    between atoms: N_17  and  C_18
REMARK    9  A    between atoms: C_18  and  C_19
REMARK   10  A    between atoms: C_19  and  N_20
REMARK   11  A    between atoms: C_27  and  C_28
REMARK                            x       y       z     vdW  Elec       q    Type
REMARK                         _______ _______ _______ _____ _____    ______ ____
ROOT
ATOM      9  C   UNL     1      -4.238   0.618  24.329  0.00  0.00    +0.043 C 
ATOM     10  C   UNL     1      -4.856   0.679  24.872  0.00  0.00    -0.033 C 
ATOM     11  C   UNL     1      -5.046   1.412  25.199  0.00  0.00    -0.048 C 
ATOM     12  C   UNL     1      -5.665   1.473  25.742  0.00  0.00    +0.026 C 
ATOM     13  C   UNL     1      -4.619   2.084  24.985  0.00  0.00    +0.027 C 
ATOM     26  C   UNL     1      -4.000   2.023  24.442  0.00  0.00    +0.005 C 
ATOM     27  C   UNL     1      -3.809   1.290  24.114  0.00  0.00    +0.006 C 
ENDROOT
BRANCH  27  28
ATOM     28  C   UNL     1      -3.191   1.228  23.572  0.00  0.00    +0.000 C 
ATOM     29  C   UNL     1      -3.334   1.344  22.767  0.00  0.00    +0.000 C 
ATOM     30  C   UNL     1      -2.429   1.051  23.834  0.00  0.00    +0.000 C 
ENDBRANCH  27  28
BRANCH   9   8
ATOM      8  C   UNL     1      -4.047  -0.115  24.001  0.00  0.00    +0.119 C 
BRANCH   8   7
ATOM      5  C   UNL     1      -3.890  -1.515  24.242  0.00  0.00    +0.244 C 
ATOM      6  O   UNL     1      -4.230  -1.679  23.509  0.00  0.00    -0.273 OA
ATOM      7  N   UNL     1      -3.799  -0.732  24.488  0.00  0.00    -0.205 NA
BRANCH   5   4
ATOM      4  C   UNL     1      -3.642  -2.132  24.729  0.00  0.00    +0.119 C 
BRANCH   4   3
ATOM      3  C   UNL     1      -2.989  -2.589  24.517  0.00  0.00    +0.152 C 
BRANCH   3   2
ATOM      1  C   UNL     1      -1.609  -2.822  24.808  0.00  0.00    +0.174 C 
ATOM      2  O   UNL     1      -2.388  -2.730  25.064  0.00  0.00    -0.351 OA
ENDBRANCH   3   2
ENDBRANCH   4   3
ENDBRANCH   5   4
ENDBRANCH   8   7
ENDBRANCH   9   8
BRANCH  13  14
ATOM     14  C   UNL     1      -4.809   2.817  25.313  0.00  0.00    +0.091 C 
BRANCH  14  15
ATOM     15  C   UNL     1      -4.321   3.468  25.177  0.00  0.00    +0.242 C 
ATOM     16  O   UNL     1      -4.462   3.963  24.533  0.00  0.00    -0.273 OA
ATOM     17  N   UNL     1      -3.691   3.624  25.687  0.00  0.00    -0.204 NA
BRANCH  17  18
ATOM     18  C   UNL     1      -3.203   4.275  25.552  0.00  0.00    +0.132 C 
BRANCH  18  19
ATOM     19  C   UNL     1      -2.484   4.341  25.952  0.00  0.00    +0.096 C 
BRANCH  19  20
ATOM     20  N   UNL     1      -1.801   4.550  25.538  0.00  0.00    -0.267 NA
ATOM     21  C   UNL     1      -1.204   3.993  25.418  0.00  0.00    +0.105 C 
ATOM     22  C   UNL     1      -0.521   4.201  25.005  0.00  0.00    +0.159 C 
ATOM     23  O   UNL     1      -0.435   4.969  24.712  0.00  0.00    -0.351 OA
ATOM     24  C   UNL     1      -1.031   5.526  24.832  0.00  0.00    +0.159 C 
ATOM     25  C   UNL     1      -1.714   5.316  25.246  0.00  0.00    +0.105 C 
ENDBRANCH  19  20
ENDBRANCH  18  19
ENDBRANCH  17  18
ENDBRANCH  14  15
ENDBRANCH  13  14
TORSDOF 11
ENDMDL
MODEL 3
REMARK VINA RESULT:      -7.6      1.955      5.329
REMARK  Name = 
REMARK  11 active torsions:
REMARK  status: ('A' for Active; 'I' for Inactive)
REMARK    1  A    between atoms: O_2  and  C_3
REMARK    2  A    between atoms: C_3  and  C_4
REMARK    3  A    between atoms: C_4  and  C_5
REMARK    4  A    between atoms: N_7  and  C_8
REMARK    5  A    between atoms: C_8  and  C_9
REMARK    6  A    between atoms: C_13  and  C_14
REMARK    7  A    between atoms: C_14  and  C_15
REMARK    8  A    between atoms: N_17  and  C_18
REMARK    9  A    between atoms: C_18  and  C_19
REMARK   10  A    between atoms: C_19  and  N_20
REMARK   11  A    between atoms: C_27  and  C_28
REMARK                            x       y       z     vdW  Elec       q    Type
REMARK                         _______ _______ _______ _____ _____    ______ ____
ROOT
ATOM      9  C   UNL     1      -2.310   2.566  24.255  0.00  0.00    +0.043 C 
ATOM     10  C   UNL     1      -1.789   2.686  24.884  0.00  0.00    -0.033 C 
ATOM     11  C   UNL     1      -1.090   2.251  24.930  0.00  0.00    -0.048 C 
ATOM     12  C   UNL     1      -0.569   2.371  25.559  0.00  0.00    +0.026 C 
ATOM     13  C   UNL     1      -0.911   1.694  24.348  0.00  0.00    +0.027 C 
ATOM     26  C   UNL     1      -1.432   1.573  23.719  0.00  0.00    +0.005 C 
ATOM     27  C   UNL     1      -2.131   2.009  23.673  0.00  0.00    +0.006 C 
ENDROOT
BRANCH  27  28
ATOM     28  C   UNL     1      -2.651   1.889  23.044  0.00  0.00    +0.000 C 
ATOM     29  C   UNL     1      -2.581   2.341  22.358  0.00  0.00    +0.000 C 
ATOM     30  C   UNL     1      -3.243   1.316  23.103  0.00  0.00    +0.000 C 
ENDBRANCH  27  28
BRANCH   9   8
ATOM      8  C   UNL     1      -3.009   3.002  24.209  0.00  0.00    +0.119 C 
BRANCH   8   7
ATOM      5  C   UNL     1      -4.104   3.615  24.892  0.00  0.00    +0.244 C 
ATOM      6  O   UNL     1      -4.183   4.159  24.277  0.00  0.00    -0.273 OA
ATOM      7  N   UNL     1      -3.517   3.037  24.857  0.00  0.00    -0.205 NA
BRANCH   5   4
ATOM      4  C   UNL     1      -4.612   3.649  25.540  0.00  0.00    +0.119 C 
BRANCH   4   3
ATOM      3  C   UNL     1      -5.334   3.250  25.521  0.00  0.00    +0.152 C 
BRANCH   3   2
ATOM      1  C   UNL     1      -6.199   2.372  26.245  0.00  0.00    +0.174 C 
ATOM      2  O   UNL     1      -5.703   3.032  26.225  0.00  0.00    -0.351 OA
ENDBRANCH   3   2
ENDBRANCH   4   3
ENDBRANCH   5   4
ENDBRANCH   8   7
ENDBRANCH   9   8
BRANCH  13  14
ATOM     14  C   UNL     1      -0.212   1.258  24.395  0.00  0.00    +0.091 C 
BRANCH  14  15
ATOM     15  C   UNL     1      -0.216   0.453  24.216  0.00  0.00    +0.242 C 
ATOM     16  O   UNL     1       0.087   0.188  23.496  0.00  0.00    -0.273 OA
ATOM     17  N   UNL     1      -0.524  -0.088  24.758  0.00  0.00    -0.204 NA
BRANCH  17  18
ATOM     18  C   UNL     1      -0.528  -0.893  24.579  0.00  0.00    +0.132 C 
BRANCH  18  19
ATOM     19  C   UNL     1      -0.846  -1.433  25.117  0.00  0.00    +0.096 C 
BRANCH  19  20
ATOM     20  N   UNL     1      -1.528  -1.855  24.924  0.00  0.00    -0.267 NA
ATOM     21  C   UNL     1      -1.486  -2.484  24.392  0.00  0.00    +0.105 C 
ATOM     22  C   UNL     1      -2.167  -2.907  24.197  0.00  0.00    +0.159 C 
ATOM     23  O   UNL     1      -2.891  -2.700  24.536  0.00  0.00    -0.351 OA
ATOM     24  C   UNL     1      -2.933  -2.071  25.068  0.00  0.00    +0.159 C 
ATOM     25  C   UNL     1      -2.251  -1.649  25.262  0.00  0.00    +0.105 C 
ENDBRANCH  19  20
ENDBRANCH  18  19
ENDBRANCH  17  18
ENDBRANCH  14  15
ENDBRANCH  13  14
TORSDOF 11
ENDMDL
MODEL 4
REMARK VINA RESULT:      -7.6      1.789      6.265
REMARK  Name = 
REMARK  11 active torsions:
REMARK  status: ('A' for Active; 'I' for Inactive)
REMARK    1  A    between atoms: O_2  and  C_3
REMARK    2  A    between atoms: C_3  and  C_4
REMARK    3  A    between atoms: C_4  and  C_5
REMARK    4  A    between atoms: N_7  and  C_8
REMARK    5  A    between atoms: C_8  and  C_9
REMARK    6  A    between atoms: C_13  and  C_14
REMARK    7  A    between atoms: C_14  and  C_15
REMARK    8  A    between atoms: N_17  and  C_18
REMARK    9  A    between atoms: C_18  and  C_19
REMARK   10  A    between atoms: C_19  and  N_20
REMARK   11  A    between atoms: C_27  and  C_28
REMARK                            x       y       z     vdW  Elec       q    Type
REMARK                         _______ _______ _______ _____ _____    ______ ____
ROOT
ATOM      9  C   UNL     1      -3.315  -0.101  25.022  0.00  0.00    +0.043 C 
ATOM     10  C   UNL     1      -2.777   0.441  25.333  0.00  0.00    -0.033 C 
ATOM     11  C   UNL     1      -1.979   0.242  25.396  0.00  0.00    -0.048 C 
ATOM     12  C   UNL     1      -1.441   0.785  25.708  0.00  0.00    +0.026 C 
ATOM     13  C   UNL     1      -1.718  -0.500  25.147  0.00  0.00    +0.027 C 
ATOM     26  C   UNL     1      -2.256  -1.043  24.835  0.00  0.00    +0.005 C 
ATOM     27  C   UNL     1      -3.054  -0.843  24.772  0.00  0.00    +0.006 C 
ENDROOT
BRANCH  27  28
ATOM     28  C   UNL     1      -3.592  -1.385  24.461  0.00  0.00    +0.000 C 
ATOM     29  C   UNL     1      -3.836  -1.320  23.675  0.00  0.00    +0.000 C 
ATOM     30  C   UNL     1      -3.887  -1.993  24.935  0.00  0.00    +0.000 C 
ENDBRANCH  27  28
BRANCH   9   8
ATOM      8  C   UNL     1      -4.113   0.099  24.959  0.00  0.00    +0.119 C 
BRANCH   8   7
ATOM      5  C   UNL     1      -5.059   1.169  25.022  0.00  0.00    +0.244 C 
ATOM      6  O   UNL     1      -5.568   0.693  25.463  0.00  0.00    -0.273 OA
ATOM      7  N   UNL     1      -4.331   0.871  24.770  0.00  0.00    -0.205 NA
BRANCH   5   4
ATOM      4  C   UNL     1      -5.277   1.941  24.833  0.00  0.00    +0.119 C 
BRANCH   4   3
ATOM      3  C   UNL     1      -5.468   2.474  25.433  0.00  0.00    +0.152 C 
BRANCH   3   2
ATOM      1  C   UNL     1      -5.363   3.875  25.694  0.00  0.00    +0.174 C 
ATOM      2  O   UNL     1      -5.666   3.253  25.245  0.00  0.00    -0.351 OA
ENDBRANCH   3   2
ENDBRANCH   4   3
ENDBRANCH   5   4
ENDBRANCH   8   7
ENDBRANCH   9   8
BRANCH  13  14
ATOM     14  C   UNL     1      -0.920  -0.699  25.210  0.00  0.00    +0.091 C 
BRANCH  14  15
ATOM     15  C   UNL     1      -0.478  -0.850  24.529  0.00  0.00    +0.242 C 
ATOM     16  O   UNL     1      -0.521  -1.587  24.164  0.00  0.00    -0.273 OA
ATOM     17  N   UNL     1       0.007  -0.261  24.214  0.00  0.00    -0.204 NA
BRANCH  17  18
ATOM     18  C   UNL     1       0.448  -0.411  23.534  0.00  0.00    +0.132 C 
BRANCH  18  19
ATOM     19  C   UNL     1       0.750   0.217  23.091  0.00  0.00    +0.096 C 
BRANCH  19  20
ATOM     20  N   UNL     1       1.485   0.147  22.724  0.00  0.00    -0.267 NA
ATOM     21  C   UNL     1       1.546  -0.235  21.995  0.00  0.00    +0.105 C 
ATOM     22  C   UNL     1       2.281  -0.307  21.627  0.00  0.00    +0.159 C 
ATOM     23  O   UNL     1       2.955   0.004  21.988  0.00  0.00    -0.351 OA
ATOM     24  C   UNL     1       2.894   0.386  22.716  0.00  0.00    +0.159 C 
ATOM     25  C   UNL     1       2.159   0.457  23.084  0.00  0.00    +0.105 C 
ENDBRANCH  19  20
ENDBRANCH  18  19
ENDBRANCH  17  18
ENDBRANCH  14  15
ENDBRANCH  13  14
TORSDOF 11
ENDMDL
MODEL 5
REMARK VINA RESULT:      -7.5      0.993      6.451
REMARK  Name = 
REMARK  11 active torsions:
REMARK  status: ('A' for Active; 'I' for Inactive)
REMARK    1  A    between atoms: O_2  and  C_3
REMARK    2  A    between atoms: C_3  and  C_4
REMARK    3  A    between atoms: C_4  and  C_5
REMARK    4  A    between atoms: N_7  and  C_8
REMARK    5  A    between atoms: C_8  and  C_9
REMARK    6  A    between atoms: C_13  and  C_14
REMARK    7  A    between atoms: C_14  and  C_15
REMARK    8  A    between atoms: N_17  and  C_18
REMARK    9  A    between atoms: C_18  and  C_19
REMARK   10  A    between atoms: C_19  and  N_20
REMARK   11  A    between atoms: C_27  and  C_28
REMARK                            x       y       z     vdW  Elec       q    Type
REMARK                         _______ _______ _______ _____ _____    ______ ____
ROOT
ATOM      9  C   UNL     1      -1.861   2.284  24.696  0.00  0.00    +0.043 C 
ATOM     10  C   UNL     1      -2.293   1.628  24.443  0.00  0.00    -0.033 C 
ATOM     11  C   UNL     1      -1.912   1.008  24.055  0.00  0.00    -0.048 C 
ATOM     12  C   UNL     1      -2.344   0.352  23.801  0.00  0.00    +0.026 C 
ATOM     13  C   UNL     1      -1.099   1.042  23.920  0.00  0.00    +0.027 C 
ATOM     26  C   UNL     1      -0.666   1.698  24.173  0.00  0.00    +0.005 C 
ATOM     27  C   UNL     1      -1.047   2.319  24.561  0.00  0.00    +0.006 C 
ENDROOT
BRANCH  27  28
ATOM     28  C   UNL     1      -0.616   2.974  24.814  0.00  0.00    +0.000 C 
ATOM     29  C   UNL     1      -0.475   3.602  24.297  0.00  0.00    +0.000 C 
ATOM     30  C   UNL     1      -0.324   3.003  25.586  0.00  0.00    +0.000 C 
ENDBRANCH  27  28
BRANCH   9   8
ATOM      8  C   UNL     1      -2.242   2.904  25.084  0.00  0.00    +0.119 C 
BRANCH   8   7
ATOM      5  C   UNL     1      -3.467   3.530  25.472  0.00  0.00    +0.244 C 
ATOM      6  O   UNL     1      -3.079   3.900  26.100  0.00  0.00    -0.273 OA
ATOM      7  N   UNL     1      -3.047   3.033  24.965  0.00  0.00    -0.205 NA
BRANCH   5   4
ATOM      4  C   UNL     1      -4.272   3.659  25.353  0.00  0.00    +0.119 C 
BRANCH   4   3
ATOM      3  C   UNL     1      -4.826   3.293  25.843  0.00  0.00    +0.152 C 
BRANCH   3   2
ATOM      1  C   UNL     1      -6.088   2.621  25.820  0.00  0.00    +0.174 C 
ATOM      2  O   UNL     1      -5.621   3.274  25.625  0.00  0.00    -0.351 OA
ENDBRANCH   3   2
ENDBRANCH   4   3
ENDBRANCH   5   4
ENDBRANCH   8   7
ENDBRANCH   9   8
BRANCH  13  14
ATOM     14  C   UNL     1      -0.718   0.422  23.532  0.00  0.00    +0.091 C 
BRANCH  14  15
ATOM     15  C   UNL     1       0.077   0.266  23.686  0.00  0.00    +0.242 C 
ATOM     16  O   UNL     1       0.317   0.055  24.446  0.00  0.00    -0.273 OA
ATOM     17  N   UNL     1       0.633   0.320  23.079  0.00  0.00    -0.204 NA
BRANCH  17  18
ATOM     18  C   UNL     1       1.428   0.164  23.233  0.00  0.00    +0.132 C 
BRANCH  18  19
ATOM     19  C   UNL     1       1.962   0.084  22.608  0.00  0.00    +0.096 C 
BRANCH  19  20
ATOM     20  N   UNL     1       2.772   0.152  22.746  0.00  0.00    -0.267 NA
ATOM     21  C   UNL     1       3.155   0.870  22.609  0.00  0.00    +0.105 C 
ATOM     22  C   UNL     1       3.965   0.939  22.747  0.00  0.00    +0.159 C 
ATOM     23  O   UNL     1       4.393   0.289  23.024  0.00  0.00    -0.351 OA
ATOM     24  C   UNL     1       4.010  -0.429  23.161  0.00  0.00    +0.159 C 
ATOM     25  C   UNL     1       3.200  -0.497  23.022  0.00  0.00    +0.105 C 
ENDBRANCH  19  20
ENDBRANCH  18  19
ENDBRANCH  17  18
ENDBRANCH  14  15
ENDBRANCH  13  14
TORSDOF 11
ENDMDL
MODEL 6
REMARK VINA RESULT:      -7.4      1.381      2.427
REMARK  Name = 
REMARK  11 active torsions:
REMARK  status: ('A' for Active; 'I' for Inactive)
REMARK    1  A    between atoms: O_2  and  C_3
REMARK    2  A    between atoms: C_3  and  C_4
REMARK    3  A    between atoms: C_4  and  C_5
REMARK    4  A    between atoms: N_7  and  C_8
REMARK    5  A    between atoms: C_8  and  C_9
REMARK    6  A    between atoms: C_13  and  C_14
REMARK    7  A    between atoms: C_14  and  C_15
REMARK    8  A    between atoms: N_17  and  C_18
REMARK    9  A    between atoms: C_18  and  C_19
REMARK   10  A    between atoms: C_19  and  N_20
REMARK   11  A    between atoms: C_27  and  C_28
REMARK                            x       y       z     vdW  Elec       q    Type
REMARK                         _______ _______ _______ _____ _____    ______ ____
ROOT
ATOM      9  C   UNL     1      -0.473   0.416  24.089  0.00  0.00    +0.043 C 
ATOM     10  C   UNL     1      -0.526  -0.406  24.136  0.00  0.00    -0.033 C 
ATOM     11  C   UNL     1      -1.242  -0.763  24.339  0.00  0.00    -0.048 C 
ATOM     12  C   UNL     1      -1.295  -1.585  24.386  0.00  0.00    +0.026 C 
ATOM     13  C   UNL     1      -1.906  -0.298  24.494  0.00  0.00    +0.027 C 
ATOM     26  C   UNL     1      -1.853   0.525  24.447  0.00  0.00    +0.005 C 
ATOM     27  C   UNL     1      -1.137   0.881  24.244  0.00  0.00    +0.006 C 
ENDROOT
BRANCH  27  28
ATOM     28  C   UNL     1      -1.084   1.703  24.197  0.00  0.00    +0.000 C 
ATOM     29  C   UNL     1      -1.297   2.091  23.501  0.00  0.00    +0.000 C 
ATOM     30  C   UNL     1      -0.817   2.137  24.847  0.00  0.00    +0.000 C 
ENDBRANCH  27  28
BRANCH   9   8
ATOM      8  C   UNL     1       0.243   0.772  23.886  0.00  0.00    +0.119 C 
BRANCH   8   7
ATOM      5  C   UNL     1       1.562   0.668  23.347  0.00  0.00    +0.244 C 
ATOM      6  O   UNL     1       1.740   1.420  23.637  0.00  0.00    -0.273 OA
ATOM      7  N   UNL     1       0.813   0.345  23.472  0.00  0.00    -0.205 NA
BRANCH   5   4
ATOM      4  C   UNL     1       2.133   0.240  22.934  0.00  0.00    +0.119 C 
BRANCH   4   3
ATOM      3  C   UNL     1       2.881   0.565  22.807  0.00  0.00    +0.152 C 
BRANCH   3   2
ATOM      1  C   UNL     1       4.293   0.375  22.690  0.00  0.00    +0.174 C 
ATOM      2  O   UNL     1       3.526   0.072  22.663  0.00  0.00    -0.351 OA
ENDBRANCH   3   2
ENDBRANCH   4   3
ENDBRANCH   5   4
ENDBRANCH   8   7
ENDBRANCH   9   8
BRANCH  13  14
ATOM     14  C   UNL     1      -2.621  -0.655  24.697  0.00  0.00    +0.091 C 
BRANCH  14  15
ATOM     15  C   UNL     1      -3.177  -0.238  25.143  0.00  0.00    +0.242 C 
ATOM     16  O   UNL     1      -3.097  -0.189  25.962  0.00  0.00    -0.273 OA
ATOM     17  N   UNL     1      -3.814   0.129  24.768  0.00  0.00    -0.204 NA
BRANCH  17  18
ATOM     18  C   UNL     1      -4.370   0.545  25.213  0.00  0.00    +0.132 C 
BRANCH  18  19
ATOM     19  C   UNL     1      -4.943   1.003  24.834  0.00  0.00    +0.096 C 
BRANCH  19  20
ATOM     20  N   UNL     1      -5.230   1.686  25.196  0.00  0.00    -0.267 NA
ATOM     21  C   UNL     1      -4.905   2.421  25.006  0.00  0.00    +0.105 C 
ATOM     22  C   UNL     1      -5.191   3.105  25.367  0.00  0.00    +0.159 C 
ATOM     23  O   UNL     1      -5.803   3.054  25.919  0.00  0.00    -0.351 OA
ATOM     24  C   UNL     1      -6.128   2.320  26.109  0.00  0.00    +0.159 C 
ATOM     25  C   UNL     1      -5.841   1.637  25.747  0.00  0.00    +0.105 C 
ENDBRANCH  19  20
ENDBRANCH  18  19
ENDBRANCH  17  18
ENDBRANCH  14  15
ENDBRANCH  13  14
TORSDOF 11
ENDMDL
MODEL 7
REMARK VINA RESULT:      -7.0      1.696      5.621
REMARK  Name = 
REMARK  11 active torsions:
REMARK  status: ('A' for Active; 'I' for Inactive)
REMARK    1  A    between atoms: O_2  and  C_3
REMARK    2  A    between atoms: C_3  and  C_4
REMARK    3  A    between atoms: C_4  and  C_5
REMARK    4  A    between atoms: N_7  and  C_8
REMARK    5  A    between atoms: C_8  and  C_9
REMARK    6  A    between atoms: C_13  and  C_14
REMARK    7  A    between atoms: C_14  and  C_15
REMARK    8  A    between atoms: N_17  and  C_18
REMARK    9  A    between atoms: C_18  and  C_19
REMARK   10  A    between atoms: C_19  and  N_20
REMARK   11  A    between atoms: C_27  and  C_28
REMARK                            x       y       z     vdW  Elec       q    Type
REMARK                         _______ _______ _______ _____ _____    ______ ____
ROOT
ATOM      9  C   UNL     1      -2.913   3.180  24.566  0.00  0.00    +0.043 C 
ATOM     10  C   UNL     1      -3.055   2.720  23.896  0.00  0.00    -0.033 C 
ATOM     11  C   UNL     1      -2.426   2.367  23.497  0.00  0.00    -0.048 C 
ATOM     12  C   UNL     1      -2.568   1.907  22.826  0.00  0.00    +0.026 C 
ATOM     13  C   UNL     1      -1.653   2.473  23.766  0.00  0.00    +0.027 C 
ATOM     26  C   UNL     1      -1.511   2.933  24.437  0.00  0.00    +0.005 C 
ATOM     27  C   UNL     1      -2.140   3.286  24.837  0.00  0.00    +0.006 C 
ENDROOT
BRANCH  27  28
ATOM     28  C   UNL     1      -1.998   3.746  25.507  0.00  0.00    +0.000 C 
ATOM     29  C   UNL     1      -1.995   3.397  26.254  0.00  0.00    +0.000 C 
ATOM     30  C   UNL     1      -1.857   4.556  25.428  0.00  0.00    +0.000 C 
ENDBRANCH  27  28
BRANCH   9   8
ATOM      8  C   UNL     1      -3.542   3.534  24.966  0.00  0.00    +0.119 C 
BRANCH   8   7
ATOM      5  C   UNL     1      -4.926   3.526  25.322  0.00  0.00    +0.244 C 
ATOM      6  O   UNL     1      -4.883   4.329  25.506  0.00  0.00    -0.273 OA
ATOM      7  N   UNL     1      -4.255   3.129  25.052  0.00  0.00    -0.205 NA
BRANCH   5   4
ATOM      4  C   UNL     1      -5.639   3.122  25.407  0.00  0.00    +0.119 C 
BRANCH   4   3
ATOM      3  C   UNL     1      -5.752   2.614  26.049  0.00  0.00    +0.152 C 
BRANCH   3   2
ATOM      1  C   UNL     1      -6.544   1.613  26.691  0.00  0.00    +0.174 C 
ATOM      2  O   UNL     1      -6.318   2.017  26.008  0.00  0.00    -0.351 OA
ENDBRANCH   3   2
ENDBRANCH   4   3
ENDBRANCH   5   4
ENDBRANCH   8   7
ENDBRANCH   9   8
BRANCH  13  14
ATOM     14  C   UNL     1      -1.024   2.119  23.367  0.00  0.00    +0.091 C 
BRANCH  14  15
ATOM     15  C   UNL     1      -0.546   1.570  23.755  0.00  0.00    +0.242 C 
ATOM     16  O   UNL     1       0.111   1.825  24.184  0.00  0.00    -0.273 OA
ATOM     17  N   UNL     1      -0.725   0.766  23.714  0.00  0.00    -0.204 NA
BRANCH  17  18
ATOM     18  C   UNL     1      -0.248   0.217  24.102  0.00  0.00    +0.132 C 
BRANCH  18  19
ATOM     19  C   UNL     1      -0.250  -0.574  23.863  0.00  0.00    +0.096 C 
BRANCH  19  20
ATOM     20  N   UNL     1      -0.592  -1.149  24.346  0.00  0.00    -0.267 NA
ATOM     21  C   UNL     1      -0.224  -1.365  25.053  0.00  0.00    +0.105 C 
ATOM     22  C   UNL     1      -0.565  -1.939  25.537  0.00  0.00    +0.159 C 
ATOM     23  O   UNL     1      -1.274  -2.299  25.313  0.00  0.00    -0.351 OA
ATOM     24  C   UNL     1      -1.641  -2.083  24.607  0.00  0.00    +0.159 C 
ATOM     25  C   UNL     1      -1.300  -1.508  24.124  0.00  0.00    +0.105 C 
ENDBRANCH  19  20
ENDBRANCH  18  19
ENDBRANCH  17  18
ENDBRANCH  14  15
ENDBRANCH  13  14
TORSDOF 11
ENDMDL
MODEL 8
REMARK VINA RESULT:      -6.9      1.622      2.395
REMARK  Name = 
REMARK  11 active torsions:
REMARK  status: ('A' for Active; 'I' for Inactive)
REMARK    1  A    between atoms: O_2  and  C_3
REMARK    2  A    between atoms: C_3  and  C_4
REMARK    3  A    between atoms: C_4  and  C_5
REMARK    4  A    between atoms: N_7  and  C_8
REMARK    5  A    between atoms: C_8  and  C_9
REMARK    6  A    between atoms: C_13  and  C_14
REMARK    7  A    between atoms: C_14  and  C_15
REMARK    8  A    between atoms: N_17  and  C_18
REMARK    9  A    between atoms: C_18  and  C_19
REMARK   10  A    between atoms: C_19  and  N_20
REMARK   11  A    between atoms: C_27  and  C_28
REMARK                            x       y       z     vdW  Elec       q    Type
REMARK                         _______ _______ _______ _____ _____    ______ ____
ROOT
ATOM      9  C   UNL     1      -0.742   1.421  24.534  0.00  0.00    +0.043 C 
ATOM     10  C   UNL     1      -0.382   1.598  25.255  0.00  0.00    -0.033 C 
ATOM     11  C   UNL     1      -0.500   2.336  25.605  0.00  0.00    -0.048 C 
ATOM     12  C   UNL     1      -0.140   2.512  26.327  0.00  0.00    +0.026 C 
ATOM     13  C   UNL     1      -0.978   2.897  25.235  0.00  0.00    +0.027 C 
ATOM     26  C   UNL     1      -1.338   2.721  24.513  0.00  0.00    +0.005 C 
ATOM     27  C   UNL     1      -1.220   1.983  24.163  0.00  0.00    +0.006 C 
ENDROOT
BRANCH  27  28
ATOM     28  C   UNL     1      -1.579   1.806  23.442  0.00  0.00    +0.000 C 
ATOM     29  C   UNL     1      -1.171   1.928  22.736  0.00  0.00    +0.000 C 
ATOM     30  C   UNL     1      -2.349   1.506  23.428  0.00  0.00    +0.000 C 
ENDBRANCH  27  28
BRANCH   9   8
ATOM      8  C   UNL     1      -0.624   0.684  24.184  0.00  0.00    +0.119 C 
BRANCH   8   7
ATOM      5  C   UNL     1      -0.490  -0.725  24.385  0.00  0.00    +0.244 C 
ATOM      6  O   UNL     1       0.064  -0.759  23.775  0.00  0.00    -0.273 OA
ATOM      7  N   UNL     1      -0.834  -0.003  24.589  0.00  0.00    -0.205 NA
BRANCH   5   4
ATOM      4  C   UNL     1      -0.701  -1.412  24.789  0.00  0.00    +0.119 C 
BRANCH   4   3
ATOM      3  C   UNL     1      -1.237  -1.941  24.454  0.00  0.00    +0.152 C 
BRANCH   3   2
ATOM      1  C   UNL     1      -2.287  -2.895  24.627  0.00  0.00    +0.174 C 
ATOM      2  O   UNL     1      -1.650  -2.469  24.934  0.00  0.00    -0.351 OA
ENDBRANCH   3   2
ENDBRANCH   4   3
ENDBRANCH   5   4
ENDBRANCH   8   7
ENDBRANCH   9   8
BRANCH  13  14
ATOM     14  C   UNL     1      -1.095   3.635  25.585  0.00  0.00    +0.091 C 
BRANCH  14  15
ATOM     15  C   UNL     1      -1.826   4.012  25.517  0.00  0.00    +0.242 C 
ATOM     16  O   UNL     1      -1.923   4.631  24.981  0.00  0.00    -0.273 OA
ATOM     17  N   UNL     1      -2.461   3.768  25.985  0.00  0.00    -0.204 NA
BRANCH  17  18
ATOM     18  C   UNL     1      -3.191   4.144  25.916  0.00  0.00    +0.132 C 
BRANCH  18  19
ATOM     19  C   UNL     1      -3.827   3.899  26.384  0.00  0.00    +0.096 C 
BRANCH  19  20
ATOM     20  N   UNL     1      -4.521   3.630  26.027  0.00  0.00    -0.267 NA
ATOM     21  C   UNL     1      -5.040   4.168  25.679  0.00  0.00    +0.105 C 
ATOM     22  C   UNL     1      -5.734   3.901  25.322  0.00  0.00    +0.159 C 
ATOM     23  O   UNL     1      -5.908   3.094  25.314  0.00  0.00    -0.351 OA
ATOM     24  C   UNL     1      -5.389   2.556  25.663  0.00  0.00    +0.159 C 
ATOM     25  C   UNL     1      -4.695   2.825  26.019  0.00  0.00    +0.105 C 
ENDBRANCH  19  20
ENDBRANCH  18  19
ENDBRANCH  17  18
ENDBRANCH  14  15
ENDBRANCH  13  14
TORSDOF 11
ENDMDL
MODEL 9
REMARK VINA RESULT:      -6.3     14.919     16.120
REMARK  Name = 
REMARK  11 active torsions:
REMARK  status: ('A' for Active; 'I' for Inactive)
REMARK    1  A    between atoms: O_2  and  C_3
REMARK    2  A    between atoms: C_3  and  C_4
REMARK    3  A    between atoms: C_4  and  C_5
REMARK    4  A    between atoms: N_7  and  C_8
REMARK    5  A    between atoms: C_8  and  C_9
REMARK    6  A    between atoms: C_13  and  C_14
REMARK    7  A    between atoms: C_14  and  C_15
REMARK    8  A    between atoms: N_17  and  C_18
REMARK    9  A    between atoms: C_18  and  C_19
REMARK   10  A    between atoms: C_19  and  N_20
REMARK   11  A    between atoms: C_27  and  C_28
REMARK                            x       y       z     vdW  Elec       q    Type
REMARK                         _______ _______ _______ _____ _____    ______ ____
ROOT
ATOM      9  C   UNL     1      -4.686 -10.452  13.616  0.00  0.00    +0.043 C 
ATOM     10  C   UNL     1      -4.249 -10.607  14.298  0.00  0.00    -0.033 C 
ATOM     11  C   UNL     1      -4.622 -10.625  15.033  0.00  0.00    -0.048 C 
ATOM     12  C   UNL     1      -4.184 -10.780  15.715  0.00  0.00    +0.026 C 
ATOM     13  C   UNL     1      -5.434 -10.488  15.088  0.00  0.00    +0.027 C 
ATOM     26  C   UNL     1      -5.872 -10.332  14.405  0.00  0.00    +0.005 C 
ATOM     27  C   UNL     1      -5.499 -10.314  13.670  0.00  0.00    +0.006 C 
ENDROOT
BRANCH  27  28
ATOM     28  C   UNL     1      -5.936 -10.159  12.988  0.00  0.00    +0.000 C 
ATOM     29  C   UNL     1      -6.022  -9.384  12.720  0.00  0.00    +0.000 C 
ATOM     30  C   UNL     1      -6.289 -10.781  12.574  0.00  0.00    +0.000 C 
ENDBRANCH  27  28
BRANCH   9   8
ATOM      8  C   UNL     1      -4.313 -10.434  12.880  0.00  0.00    +0.119 C 
BRANCH   8   7
ATOM      5  C   UNL     1      -3.111 -10.430  12.108  0.00  0.00    +0.244 C 
ATOM      6  O   UNL     1      -3.551 -10.561  11.422  0.00  0.00    -0.273 OA
ATOM      7  N   UNL     1      -3.492 -10.367  12.836  0.00  0.00    -0.205 NA
BRANCH   5   4
ATOM      4  C   UNL     1      -2.291 -10.363  12.064  0.00  0.00    +0.119 C 
BRANCH   4   3
ATOM      3  C   UNL     1      -1.947  -9.819  11.547  0.00  0.00    +0.152 C 
BRANCH   3   2
ATOM      1  C   UNL     1      -0.814  -9.049  11.142  0.00  0.00    +0.174 C 
ATOM      2  O   UNL     1      -1.141  -9.656  11.595  0.00  0.00    -0.351 OA
ENDBRANCH   3   2
ENDBRANCH   4   3
ENDBRANCH   5   4
ENDBRANCH   8   7
ENDBRANCH   9   8
BRANCH  13  14
ATOM     14  C   UNL     1      -5.807 -10.506  15.823  0.00  0.00    +0.091 C 
BRANCH  14  15
ATOM     15  C   UNL     1      -6.303  -9.886  16.048  0.00  0.00    +0.242 C 
ATOM     16  O   UNL     1      -5.996  -9.129  16.155  0.00  0.00    -0.273 OA
ATOM     17  N   UNL     1      -7.108 -10.025  16.167  0.00  0.00    -0.204 NA
BRANCH  17  18
ATOM     18  C   UNL     1      -7.604  -9.407  16.392  0.00  0.00    +0.132 C 
BRANCH  18  19
ATOM     19  C   UNL     1      -8.381  -9.565  16.625  0.00  0.00    +0.096 C 
BRANCH  19  20
ATOM     20  N   UNL     1      -8.945  -8.962  16.613  0.00  0.00    -0.267 NA
ATOM     21  C   UNL     1      -9.295  -8.740  15.900  0.00  0.00    +0.105 C 
ATOM     22  C   UNL     1      -9.859  -8.138  15.887  0.00  0.00    +0.159 C 
ATOM     23  O   UNL     1     -10.073  -7.759  16.588  0.00  0.00    -0.351 OA
ATOM     24  C   UNL     1      -9.723  -7.981  17.301  0.00  0.00    +0.159 C 
ATOM     25  C   UNL     1      -9.159  -8.583  17.313  0.00  0.00    +0.105 C 
ENDBRANCH  19  20
ENDBRANCH  18  19
ENDBRANCH  17  18
ENDBRANCH  14  15
ENDBRANCH  13  14
TORSDOF 11
ENDMDL
MODEL 10
REMARK VINA RESULT:      -5.8     17.102     19.043
REMARK  Name = 
REMARK  11 active torsions:
REMARK  status: ('A' for Active; 'I' for Inactive)
REMARK    1  A    between atoms: O_2  and  C_3
REMARK    2  A    between atoms: C_3  and  C_4
REMARK    3  A    between atoms: C_4  and  C_5
REMARK    4  A    between atoms: N_7  and  C_8
REMARK    5  A    between atoms: C_8  and  C_9
REMARK    6  A    between atoms: C_13  and  C_14
REMARK    7  A    between atoms: C_14  and  C_15
REMARK    8  A    between atoms: N_17  and  C_18
REMARK    9  A    between atoms: C_18  and  C_19
REMARK   10  A    between atoms: C_19  and  N_20
REMARK   11  A    between atoms: C_27  and  C_28
REMARK                            x       y       z     vdW  Elec       q    Type
REMARK                         _______ _______ _______ _____ _____    ______ ____
ROOT
ATOM      9  C   UNL     1      -6.975  -8.887   9.660  0.00  0.00    +0.043 C 
ATOM     10  C   UNL     1      -6.345  -8.650   9.183  0.00  0.00    -0.033 C 
ATOM     11  C   UNL     1      -5.586  -8.938   9.328  0.00  0.00    -0.048 C 
ATOM     12  C   UNL     1      -4.956  -8.700   8.850  0.00  0.00    +0.026 C 
ATOM     13  C   UNL     1      -5.455  -9.464   9.949  0.00  0.00    +0.027 C 
ATOM     26  C   UNL     1      -6.085  -9.702  10.427  0.00  0.00    +0.005 C 
ATOM     27  C   UNL     1      -6.844  -9.414  10.283  0.00  0.00    +0.006 C 
ENDROOT
BRANCH  27  28
ATOM     28  C   UNL     1      -7.474  -9.652  10.760  0.00  0.00    +0.000 C 
ATOM     29  C   UNL     1      -7.661  -9.223  11.440  0.00  0.00    +0.000 C 
ATOM     30  C   UNL     1      -7.916 -10.319  10.557  0.00  0.00    +0.000 C 
ENDBRANCH  27  28
BRANCH   9   8
ATOM      8  C   UNL     1      -7.734  -8.599   9.516  0.00  0.00    +0.119 C 
BRANCH   8   7
ATOM      5  C   UNL     1      -8.577  -7.669   8.834  0.00  0.00    +0.244 C 
ATOM      6  O   UNL     1      -9.220  -8.177   8.935  0.00  0.00    -0.273 OA
ATOM      7  N   UNL     1      -7.835  -7.881   9.125  0.00  0.00    -0.205 NA
BRANCH   5   4
ATOM      4  C   UNL     1      -8.678  -6.951   8.442  0.00  0.00    +0.119 C 
BRANCH   4   3
ATOM      3  C   UNL     1      -9.364  -6.508   8.561  0.00  0.00    +0.152 C 
BRANCH   3   2
ATOM      1  C   UNL     1      -9.636  -5.106   8.514  0.00  0.00    +0.174 C 
ATOM      2  O   UNL     1      -9.492  -5.819   8.126  0.00  0.00    -0.351 OA
ENDBRANCH   3   2
ENDBRANCH   4   3
ENDBRANCH   5   4
ENDBRANCH   8   7
ENDBRANCH   9   8
BRANCH  13  14
ATOM     14  C   UNL     1      -4.695  -9.752  10.094  0.00  0.00    +0.091 C 
BRANCH  14  15
ATOM     15  C   UNL     1      -4.343  -9.633  10.830  0.00  0.00    +0.242 C 
ATOM     16  O   UNL     1      -4.267  -8.870  11.133  0.00  0.00    -0.273 OA
ATOM     17  N   UNL     1      -4.065 -10.278  11.263  0.00  0.00    -0.204 NA
BRANCH  17  18
ATOM     18  C   UNL     1      -3.713 -10.159  11.999  0.00  0.00    +0.132 C 
BRANCH  18  19
ATOM     19  C   UNL     1      -3.319 -10.781  12.373  0.00  0.00    +0.096 C 
BRANCH  19  20
ATOM     20  N   UNL     1      -3.034 -10.686  13.142  0.00  0.00    -0.267 NA
ATOM     21  C   UNL     1      -3.544 -10.774  13.784  0.00  0.00    +0.105 C 
ATOM     22  C   UNL     1      -3.261 -10.679  14.553  0.00  0.00    +0.159 C 
ATOM     23  O   UNL     1      -2.466 -10.495  14.679  0.00  0.00    -0.351 OA
ATOM     24  C   UNL     1      -1.956 -10.407  14.037  0.00  0.00    +0.159 C 
ATOM     25  C   UNL     1      -2.240 -10.502  13.268  0.00  0.00    +0.105 C 
ENDBRANCH  19  20
ENDBRANCH  18  19
ENDBRANCH  17  18
ENDBRANCH  14  15
ENDBRANCH  13  14
TORSDOF 11
ENDMDL
