MODEL 1
REMARK VINA RESULT:     -11.5      0.000      0.000
REMARK  Name = 
REMARK  6 active torsions:
REMARK  status: ('A' for Active; 'I' for Inactive)
REMARK    1  A    between atoms: C_4  and  C_14
REMARK    2  A    between atoms: N_5  and  C_6
REMARK    3  A    between atoms: C_6  and  C_7
REMARK    4  A    between atoms: C_16  and  C_17
REMARK    5  A    between atoms: C_17  and  S_18
REMARK    6  A    between atoms: S_18  and  C_21
REMARK                            x       y       z     vdW  Elec       q    Type
REMARK                         _______ _______ _______ _____ _____    ______ ____
ROOT
ATOM     14  C   UNL     1      -4.292   0.244  24.761  0.00  0.00    +0.251 A 
ATOM     15  N   UNL     1      -4.157   0.939  24.336  0.00  0.00    -0.192 NA
ATOM     16  C   UNL     1      -4.516   1.560  24.743  0.00  0.00    +0.205 A 
ATOM     28  N   UNL     1      -4.872   1.250  25.420  0.00  0.00    -0.059 NA
ATOM     29  O   UNL     1      -4.734   0.437  25.431  0.00  0.00    -0.336 OA
ENDROOT
BRANCH  14   4
ATOM      1  O   UNL     1      -4.201  -2.439  23.653  0.00  0.00    -0.222 OA
ATOM      2  C   UNL     1      -3.990  -1.744  24.043  0.00  0.00    +0.170 C 
ATOM      3  C   UNL     1      -4.460  -1.070  24.124  0.00  0.00    +0.060 C 
ATOM      4  C   UNL     1      -4.032  -0.510  24.553  0.00  0.00    +0.140 C 
ATOM      5  N   UNL     1      -3.297  -0.837  24.737  0.00  0.00    -0.259 NA
ATOM     13  C   UNL     1      -3.271  -1.600  24.422  0.00  0.00    +0.106 C 
BRANCH   5   6
ATOM      6  C   UNL     1      -2.694  -0.468  25.162  0.00  0.00    +0.119 C 
BRANCH   6   7
ATOM      7  C   UNL     1      -1.909  -0.694  25.046  0.00  0.00    +0.075 A 
ATOM      8  N   UNL     1      -1.467  -0.356  24.437  0.00  0.00    -0.247 NA
ATOM      9  C   UNL     1      -0.683  -0.582  24.321  0.00  0.00    +0.098 A 
ATOM     10  C   UNL     1      -0.339  -1.147  24.815  0.00  0.00    +0.021 A 
ATOM     11  C   UNL     1      -0.780  -1.485  25.425  0.00  0.00    +0.003 A 
ATOM     12  C   UNL     1      -1.566  -1.258  25.540  0.00  0.00    +0.016 A 
ENDBRANCH   6   7
ENDBRANCH   5   6
ENDBRANCH  14   4
BRANCH  16  17
ATOM     17  C   UNL     1      -4.518   2.353  24.514  0.00  0.00    +0.224 C 
BRANCH  17  18
ATOM     18  S   UNL     1      -3.906   2.853  24.752  0.00  0.00    +0.016 S 
ATOM     19  O   UNL     1      -3.543   2.756  24.017  0.00  0.00    -0.168 OA
ATOM     20  O   UNL     1      -4.269   2.949  25.486  0.00  0.00    -0.168 OA
BRANCH  18  21
ATOM     21  C   UNL     1      -3.293   3.352  24.988  0.00  0.00    +0.106 A 
ATOM     22  C   UNL     1      -3.404   3.866  25.625  0.00  0.00    +0.021 A 
ATOM     23  C   UNL     1      -2.792   4.365  25.861  0.00  0.00    +0.031 A 
ATOM     24  C   UNL     1      -2.070   4.351  25.463  0.00  0.00    +0.140 A 
ATOM     25  F   UNL     1      -1.458   4.851  25.700  0.00  0.00    -0.204 F 
ATOM     26  C   UNL     1      -1.960   3.838  24.827  0.00  0.00    +0.031 A 
ATOM     27  C   UNL     1      -2.571   3.338  24.590  0.00  0.00    +0.021 A 
ENDBRANCH  18  21
ENDBRANCH  17  18
ENDBRANCH  16  17
TORSDOF 6
ENDMDL
MODEL 2
REMARK VINA RESULT:     -11.4      2.513      5.343
REMARK  Name = 
REMARK  6 active torsions:
REMARK  status: ('A' for Active; 'I' for Inactive)
REMARK    1  A    between atoms: C_4  and  C_14
REMARK    2  A    between atoms: N_5  and  C_6
REMARK    3  A    between atoms: C_6  and  C_7
REMARK    4  A    between atoms: C_16  and  C_17
REMARK    5  A    between atoms: C_17  and  S_18
REMARK    6  A    between atoms: S_18  and  C_21
REMARK                            x       y       z     vdW  Elec       q    Type
REMARK                         _______ _______ _______ _____ _____    ______ ____
ROOT
ATOM     14  C   UNL     1      -1.043   1.815  24.642  0.00  0.00    +0.251 A 
ATOM     15  N   UNL     1      -1.036   1.213  25.206  0.00  0.00    -0.192 NA
ATOM     16  C   UNL     1      -0.847   0.507  24.822  0.00  0.00    +0.205 A 
ATOM     28  N   UNL     1      -0.737   0.673  24.022  0.00  0.00    -0.059 NA
ATOM     29  O   UNL     1      -0.858   1.481  23.910  0.00  0.00    -0.336 OA
ENDROOT
BRANCH  14   4
ATOM      1  O   UNL     1      -0.714   4.635  25.252  0.00  0.00    -0.222 OA
ATOM      2  C   UNL     1      -1.055   3.908  25.064  0.00  0.00    +0.170 C 
ATOM      3  C   UNL     1      -0.651   3.194  24.967  0.00  0.00    +0.060 C 
ATOM      4  C   UNL     1      -1.206   2.611  24.784  0.00  0.00    +0.140 C 
ATOM      5  N   UNL     1      -1.951   2.964  24.767  0.00  0.00    -0.259 NA
ATOM     13  C   UNL     1      -1.858   3.765  24.941  0.00  0.00    +0.106 C 
BRANCH   5   6
ATOM      6  C   UNL     1      -2.665   2.583  24.606  0.00  0.00    +0.119 C 
BRANCH   6   7
ATOM      7  C   UNL     1      -3.381   2.956  24.779  0.00  0.00    +0.075 A 
ATOM      8  N   UNL     1      -3.686   2.927  25.545  0.00  0.00    -0.247 NA
ATOM      9  C   UNL     1      -4.401   3.300  25.718  0.00  0.00    +0.098 A 
ATOM     10  C   UNL     1      -4.811   3.701  25.124  0.00  0.00    +0.021 A 
ATOM     11  C   UNL     1      -4.506   3.730  24.359  0.00  0.00    +0.003 A 
ATOM     12  C   UNL     1      -3.790   3.357  24.186  0.00  0.00    +0.016 A 
ENDBRANCH   6   7
ENDBRANCH   5   6
ENDBRANCH  14   4
BRANCH  16  17
ATOM     17  C   UNL     1      -0.779  -0.234  25.178  0.00  0.00    +0.224 C 
BRANCH  17  18
ATOM     18  S   UNL     1      -1.396  -0.779  25.118  0.00  0.00    +0.016 S 
ATOM     19  O   UNL     1      -1.138  -0.987  24.363  0.00  0.00    -0.168 OA
ATOM     20  O   UNL     1      -1.654  -0.570  25.873  0.00  0.00    -0.168 OA
BRANCH  18  21
ATOM     21  C   UNL     1      -2.013  -1.323  25.057  0.00  0.00    +0.106 A 
ATOM     22  C   UNL     1      -1.902  -2.026  24.639  0.00  0.00    +0.021 A 
ATOM     23  C   UNL     1      -2.518  -2.570  24.578  0.00  0.00    +0.031 A 
ATOM     24  C   UNL     1      -3.245  -2.412  24.936  0.00  0.00    +0.140 A 
ATOM     25  F   UNL     1      -3.861  -2.958  24.874  0.00  0.00    -0.204 F 
ATOM     26  C   UNL     1      -3.356  -1.711  25.354  0.00  0.00    +0.031 A 
ATOM     27  C   UNL     1      -2.739  -1.166  25.415  0.00  0.00    +0.021 A 
ENDBRANCH  18  21
ENDBRANCH  17  18
ENDBRANCH  16  17
TORSDOF 6
ENDMDL
MODEL 3
REMARK VINA RESULT:     -11.2      1.890      4.514
REMARK  Name = 
REMARK  6 active torsions:
REMARK  status: ('A' for Active; 'I' for Inactive)
REMARK    1  A    between atoms: C_4  and  C_14
REMARK    2  A    between atoms: N_5  and  C_6
REMARK    3  A    between atoms: C_6  and  C_7
REMARK    4  A    between atoms: C_16  and  C_17
REMARK    5  A    between atoms: C_17  and  S_18
REMARK    6  A    between atoms: S_18  and  C_21
REMARK                            x       y       z     vdW  Elec       q    Type
REMARK                         _______ _______ _______ _____ _____    ______ ____
ROOT
ATOM     14  C   UNL     1      -4.474   1.290  24.842  0.00  0.00    +0.251 A 
ATOM     15  N   UNL     1      -4.271   0.652  25.325  0.00  0.00    -0.192 NA
ATOM     16  C   UNL     1      -4.152  -0.005  24.841  0.00  0.00    +0.205 A 
ATOM     28  N   UNL     1      -4.282   0.225  24.060  0.00  0.00    -0.059 NA
ATOM     29  O   UNL     1      -4.481   1.025  24.060  0.00  0.00    -0.336 OA
ENDROOT
BRANCH  14   4
ATOM      1  O   UNL     1      -5.877   3.611  25.880  0.00  0.00    -0.222 OA
ATOM      2  C   UNL     1      -5.286   3.124  25.573  0.00  0.00    +0.170 C 
ATOM      3  C   UNL     1      -5.366   2.324  25.385  0.00  0.00    +0.060 C 
ATOM      4  C   UNL     1      -4.641   2.056  25.095  0.00  0.00    +0.140 C 
ATOM      5  N   UNL     1      -4.113   2.690  25.104  0.00  0.00    -0.259 NA
ATOM     13  C   UNL     1      -4.512   3.350  25.399  0.00  0.00    +0.106 C 
BRANCH   5   6
ATOM      6  C   UNL     1      -3.326   2.669  24.861  0.00  0.00    +0.119 C 
BRANCH   6   7
ATOM      7  C   UNL     1      -2.816   3.288  25.057  0.00  0.00    +0.075 A 
ATOM      8  N   UNL     1      -2.792   3.967  24.591  0.00  0.00    -0.247 NA
ATOM      9  C   UNL     1      -2.283   4.585  24.787  0.00  0.00    +0.098 A 
ATOM     10  C   UNL     1      -1.796   4.524  25.451  0.00  0.00    +0.021 A 
ATOM     11  C   UNL     1      -1.819   3.844  25.917  0.00  0.00    +0.003 A 
ATOM     12  C   UNL     1      -2.329   3.226  25.721  0.00  0.00    +0.016 A 
ENDBRANCH   6   7
ENDBRANCH   5   6
ENDBRANCH  14   4
BRANCH  16  17
ATOM     17  C   UNL     1      -3.940  -0.761  25.095  0.00  0.00    +0.224 C 
BRANCH  17  18
ATOM     18  S   UNL     1      -3.144  -0.973  25.143  0.00  0.00    +0.016 S 
ATOM     19  O   UNL     1      -3.127  -1.088  24.326  0.00  0.00    -0.168 OA
ATOM     20  O   UNL     1      -3.163  -0.858  25.960  0.00  0.00    -0.168 OA
BRANCH  18  21
ATOM     21  C   UNL     1      -2.348  -1.185  25.190  0.00  0.00    +0.106 A 
ATOM     22  C   UNL     1      -2.077  -1.856  24.793  0.00  0.00    +0.021 A 
ATOM     23  C   UNL     1      -1.281  -2.067  24.839  0.00  0.00    +0.031 A 
ATOM     24  C   UNL     1      -0.757  -1.609  25.283  0.00  0.00    +0.140 A 
ATOM     25  F   UNL     1       0.039  -1.822  25.329  0.00  0.00    -0.204 F 
ATOM     26  C   UNL     1      -1.028  -0.940  25.679  0.00  0.00    +0.031 A 
ATOM     27  C   UNL     1      -1.824  -0.727  25.633  0.00  0.00    +0.021 A 
ENDBRANCH  18  21
ENDBRANCH  17  18
ENDBRANCH  16  17
TORSDOF 6
ENDMDL
MODEL 4
REMARK VINA RESULT:     -11.1      2.683      5.220
REMARK  Name = 
REMARK  6 active torsions:
REMARK  status: ('A' for Active; 'I' for Inactive)
REMARK    1  A    between atoms: C_4  and  C_14
REMARK    2  A    between atoms: N_5  and  C_6
REMARK    3  A    between atoms: C_6  and  C_7
REMARK    4  A    between atoms: C_16  and  C_17
REMARK    5  A    between atoms: C_17  and  S_18
REMARK    6  A    between atoms: S_18  and  C_21
REMARK                            x       y       z     vdW  Elec       q    Type
REMARK                         _______ _______ _______ _____ _____    ______ ____
ROOT
ATOM     14  C   UNL     1      -1.733   1.480  24.925  0.00  0.00    +0.251 A 
ATOM     15  N   UNL     1      -2.455   1.217  25.225  0.00  0.00    -0.192 NA
ATOM     16  C   UNL     1      -2.835   0.785  24.634  0.00  0.00    +0.205 A 
ATOM     28  N   UNL     1      -2.348   0.781  23.968  0.00  0.00    -0.059 NA
ATOM     29  O   UNL     1      -1.667   1.210  24.147  0.00  0.00    -0.336 OA
ENDROOT
BRANCH  14   4
ATOM      1  O   UNL     1       0.469   2.251  26.654  0.00  0.00    -0.222 OA
ATOM      2  C   UNL     1      -0.163   2.287  26.125  0.00  0.00    +0.170 C 
ATOM      3  C   UNL     1      -0.599   1.645  25.846  0.00  0.00    +0.060 C 
ATOM      4  C   UNL     1      -1.175   1.933  25.329  0.00  0.00    +0.140 C 
ATOM      5  N   UNL     1      -1.095   2.753  25.290  0.00  0.00    -0.259 NA
ATOM     13  C   UNL     1      -0.469   2.972  25.781  0.00  0.00    +0.106 C 
BRANCH   5   6
ATOM      6  C   UNL     1      -1.558   3.264  24.838  0.00  0.00    +0.119 C 
BRANCH   6   7
ATOM      7  C   UNL     1      -1.441   4.080  24.887  0.00  0.00    +0.075 A 
ATOM      8  N   UNL     1      -0.791   4.427  24.515  0.00  0.00    -0.247 NA
ATOM      9  C   UNL     1      -0.674   5.241  24.564  0.00  0.00    +0.098 A 
ATOM     10  C   UNL     1      -1.207   5.710  24.985  0.00  0.00    +0.021 A 
ATOM     11  C   UNL     1      -1.857   5.364  25.357  0.00  0.00    +0.003 A 
ATOM     12  C   UNL     1      -1.974   4.548  25.308  0.00  0.00    +0.016 A 
ENDBRANCH   6   7
ENDBRANCH   5   6
ENDBRANCH  14   4
BRANCH  16  17
ATOM     17  C   UNL     1      -3.573   0.421  24.697  0.00  0.00    +0.224 C 
BRANCH  17  18
ATOM     18  S   UNL     1      -3.637  -0.398  24.619  0.00  0.00    +0.016 S 
ATOM     19  O   UNL     1      -3.570  -0.481  25.436  0.00  0.00    -0.168 OA
ATOM     20  O   UNL     1      -3.705  -0.314  23.800  0.00  0.00    -0.168 OA
BRANCH  18  21
ATOM     21  C   UNL     1      -3.702  -1.216  24.541  0.00  0.00    +0.106 A 
ATOM     22  C   UNL     1      -4.149  -1.537  23.926  0.00  0.00    +0.021 A 
ATOM     23  C   UNL     1      -4.213  -2.356  23.848  0.00  0.00    +0.031 A 
ATOM     24  C   UNL     1      -3.832  -2.853  24.385  0.00  0.00    +0.140 A 
ATOM     25  F   UNL     1      -3.897  -3.672  24.306  0.00  0.00    -0.204 F 
ATOM     26  C   UNL     1      -3.385  -2.532  24.999  0.00  0.00    +0.031 A 
ATOM     27  C   UNL     1      -3.320  -1.713  25.077  0.00  0.00    +0.021 A 
ENDBRANCH  18  21
ENDBRANCH  17  18
ENDBRANCH  16  17
TORSDOF 6
ENDMDL
MODEL 5
REMARK VINA RESULT:     -11.0      1.898      3.176
REMARK  Name = 
REMARK  6 active torsions:
REMARK  status: ('A' for Active; 'I' for Inactive)
REMARK    1  A    between atoms: C_4  and  C_14
REMARK    2  A    between atoms: N_5  and  C_6
REMARK    3  A    between atoms: C_6  and  C_7
REMARK    4  A    between atoms: C_16  and  C_17
REMARK    5  A    between atoms: C_17  and  S_18
REMARK    6  A    between atoms: S_18  and  C_21
REMARK                            x       y       z     vdW  Elec       q    Type
REMARK                         _______ _______ _______ _____ _____    ______ ____
ROOT
ATOM     14  C   UNL     1      -0.569   0.324  24.620  0.00  0.00    +0.251 A 
ATOM     15  N   UNL     1      -0.462   0.885  25.216  0.00  0.00    -0.192 NA
ATOM     16  C   UNL     1      -0.054   1.525  24.892  0.00  0.00    +0.205 A 
ATOM     28  N   UNL     1       0.091   1.360  24.097  0.00  0.00    -0.059 NA
ATOM     29  O   UNL     1      -0.227   0.618  23.929  0.00  0.00    -0.336 OA
ENDROOT
BRANCH  14   4
ATOM      1  O   UNL     1      -1.073  -2.485  25.156  0.00  0.00    -0.222 OA
ATOM      2  C   UNL     1      -1.182  -1.695  24.948  0.00  0.00    +0.170 C 
ATOM      3  C   UNL     1      -0.600  -1.109  24.946  0.00  0.00    +0.060 C 
ATOM      4  C   UNL     1      -0.950  -0.403  24.701  0.00  0.00    +0.140 C 
ATOM      5  N   UNL     1      -1.747  -0.552  24.553  0.00  0.00    -0.259 NA
ATOM     13  C   UNL     1      -1.891  -1.350  24.705  0.00  0.00    +0.106 C 
BRANCH   5   6
ATOM      6  C   UNL     1      -2.304   0.000  24.297  0.00  0.00    +0.119 C 
BRANCH   6   7
ATOM      7  C   UNL     1      -3.107  -0.125  24.441  0.00  0.00    +0.075 A 
ATOM      8  N   UNL     1      -3.450   0.151  25.138  0.00  0.00    -0.247 NA
ATOM      9  C   UNL     1      -4.252   0.026  25.282  0.00  0.00    +0.098 A 
ATOM     10  C   UNL     1      -4.712  -0.377  24.728  0.00  0.00    +0.021 A 
ATOM     11  C   UNL     1      -4.370  -0.654  24.031  0.00  0.00    +0.003 A 
ATOM     12  C   UNL     1      -3.567  -0.528  23.887  0.00  0.00    +0.016 A 
ENDBRANCH   6   7
ENDBRANCH   5   6
ENDBRANCH  14   4
BRANCH  16  17
ATOM     17  C   UNL     1       0.169   2.211  25.293  0.00  0.00    +0.224 C 
BRANCH  17  18
ATOM     18  S   UNL     1      -0.336   2.863  25.310  0.00  0.00    +0.016 S 
ATOM     19  O   UNL     1      -0.115   3.053  24.538  0.00  0.00    -0.168 OA
ATOM     20  O   UNL     1      -0.557   2.672  26.082  0.00  0.00    -0.168 OA
BRANCH  18  21
ATOM     21  C   UNL     1      -0.842   3.515  25.326  0.00  0.00    +0.106 A 
ATOM     22  C   UNL     1      -1.579   3.455  25.691  0.00  0.00    +0.021 A 
ATOM     23  C   UNL     1      -2.084   4.107  25.707  0.00  0.00    +0.031 A 
ATOM     24  C   UNL     1      -1.852   4.817  25.358  0.00  0.00    +0.140 A 
ATOM     25  F   UNL     1      -2.358   5.469  25.374  0.00  0.00    -0.204 F 
ATOM     26  C   UNL     1      -1.116   4.877  24.993  0.00  0.00    +0.031 A 
ATOM     27  C   UNL     1      -0.610   4.225  24.976  0.00  0.00    +0.021 A 
ENDBRANCH  18  21
ENDBRANCH  17  18
ENDBRANCH  16  17
TORSDOF 6
ENDMDL
MODEL 6
REMARK VINA RESULT:     -11.0      1.773      2.824
REMARK  Name = 
REMARK  6 active torsions:
REMARK  status: ('A' for Active; 'I' for Inactive)
REMARK    1  A    between atoms: C_4  and  C_14
REMARK    2  A    between atoms: N_5  and  C_6
REMARK    3  A    between atoms: C_6  and  C_7
REMARK    4  A    between atoms: C_16  and  C_17
REMARK    5  A    between atoms: C_17  and  S_18
REMARK    6  A    between atoms: S_18  and  C_21
REMARK                            x       y       z     vdW  Elec       q    Type
REMARK                         _______ _______ _______ _____ _____    ______ ____
ROOT
ATOM     14  C   UNL     1      -1.215   1.137  24.976  0.00  0.00    +0.251 A 
ATOM     15  N   UNL     1      -1.668   1.684  24.556  0.00  0.00    -0.192 NA
ATOM     16  C   UNL     1      -1.738   2.364  25.018  0.00  0.00    +0.205 A 
ATOM     28  N   UNL     1      -1.329   2.238  25.723  0.00  0.00    -0.059 NA
ATOM     29  O   UNL     1      -1.006   1.480  25.697  0.00  0.00    -0.336 OA
ENDROOT
BRANCH  14   4
ATOM      1  O   UNL     1       0.249  -1.074  23.793  0.00  0.00    -0.222 OA
ATOM      2  C   UNL     1      -0.335  -0.636  24.177  0.00  0.00    +0.170 C 
ATOM      3  C   UNL     1      -0.313   0.175  24.326  0.00  0.00    +0.060 C 
ATOM      4  C   UNL     1      -1.008   0.381  24.721  0.00  0.00    +0.140 C 
ATOM      5  N   UNL     1      -1.460  -0.304  24.815  0.00  0.00    -0.259 NA
ATOM     13  C   UNL     1      -1.043  -0.932  24.478  0.00  0.00    +0.106 C 
BRANCH   5   6
ATOM      6  C   UNL     1      -2.197  -0.352  25.180  0.00  0.00    +0.119 C 
BRANCH   6   7
ATOM      7  C   UNL     1      -2.735  -0.935  24.951  0.00  0.00    +0.075 A 
ATOM      8  N   UNL     1      -3.221  -0.813  24.295  0.00  0.00    -0.247 NA
ATOM      9  C   UNL     1      -3.758  -1.395  24.066  0.00  0.00    +0.098 A 
ATOM     10  C   UNL     1      -3.810  -2.100  24.493  0.00  0.00    +0.021 A 
ATOM     11  C   UNL     1      -3.324  -2.221  25.148  0.00  0.00    +0.003 A 
ATOM     12  C   UNL     1      -2.786  -1.639  25.378  0.00  0.00    +0.016 A 
ENDBRANCH   6   7
ENDBRANCH   5   6
ENDBRANCH  14   4
BRANCH  16  17
ATOM     17  C   UNL     1      -2.146   3.051  24.810  0.00  0.00    +0.224 C 
BRANCH  17  18
ATOM     18  S   UNL     1      -2.957   3.109  24.955  0.00  0.00    +0.016 S 
ATOM     19  O   UNL     1      -3.111   2.904  24.171  0.00  0.00    -0.168 OA
ATOM     20  O   UNL     1      -2.802   3.314  25.739  0.00  0.00    -0.168 OA
BRANCH  18  21
ATOM     21  C   UNL     1      -3.767   3.167  25.099  0.00  0.00    +0.106 A 
ATOM     22  C   UNL     1      -4.053   3.746  25.612  0.00  0.00    +0.021 A 
ATOM     23  C   UNL     1      -4.863   3.805  25.756  0.00  0.00    +0.031 A 
ATOM     24  C   UNL     1      -5.386   3.285  25.387  0.00  0.00    +0.140 A 
ATOM     25  F   UNL     1      -6.196   3.343  25.532  0.00  0.00    -0.204 F 
ATOM     26  C   UNL     1      -5.100   2.706  24.874  0.00  0.00    +0.031 A 
ATOM     27  C   UNL     1      -4.290   2.647  24.730  0.00  0.00    +0.021 A 
ENDBRANCH  18  21
ENDBRANCH  17  18
ENDBRANCH  16  17
TORSDOF 6
ENDMDL
