MODEL 1
REMARK VINA RESULT:     -15.8      0.000      0.000
REMARK  Name = 
REMARK  4 active torsions:
REMARK  status: ('A' for Active; 'I' for Inactive)
REMARK    1  A    between atoms: O_2  and  C_3
REMARK    2  A    between atoms: C_6  and  C_9
REMARK    3  A    between atoms: N_15  and  S_17
REMARK    4  A    between atoms: S_17  and  C_20
REMARK                            x       y       z     vdW  Elec       q    Type
REMARK                         _______ _______ _______ _____ _____    ______ ____
ROOT
ATOM      9  C   UNL     1      -3.526   0.851  24.746  0.00  0.00    +0.012 A 
ATOM     10  C   UNL     1      -4.147   1.373  24.895  0.00  0.00    +0.041 A 
ATOM     11  C   UNL     1      -5.060   1.386  24.994  0.00  0.00    +0.056 C 
ATOM     12  C   UNL     1      -5.621   0.964  24.987  0.00  0.00    +0.011 C 
ATOM     13  C   UNL     1      -5.465   1.756  25.096  0.00  0.00    +0.041 C 
ATOM     14  C   UNL     1      -5.481   2.732  25.253  0.00  0.00    +0.098 C 
ATOM     15  N   UNL     1      -4.664   2.896  25.192  0.00  0.00    -0.155 NA
ATOM     16  C   UNL     1      -5.092   2.328  25.148  0.00  0.00    +0.102 C 
ATOM     27  C   UNL     1      -4.511   1.752  24.994  0.00  0.00    +0.110 C 
ATOM     28  N   UNL     1      -3.993   2.176  25.006  0.00  0.00    -0.299 N 
ATOM     29  C   UNL     1      -3.218   2.457  24.969  0.00  0.00    +0.261 A 
ATOM     30  O   UNL     1      -3.064   3.260  25.080  0.00  0.00    -0.267 OA
ATOM     31  C   UNL     1      -2.597   1.935  24.819  0.00  0.00    +0.061 A 
ATOM     32  C   UNL     1      -2.752   1.132  24.708  0.00  0.00    +0.006 A 
ENDROOT
BRANCH   9   6
ATOM      3  C   UNL     1      -3.989  -1.558  24.411  0.00  0.00    +0.139 A 
ATOM      4  C   UNL     1      -4.010  -1.041  23.769  0.00  0.00    +0.037 A 
ATOM      5  C   UNL     1      -3.855  -0.238  23.881  0.00  0.00    +0.003 A 
ATOM      6  C   UNL     1      -3.680   0.048  24.634  0.00  0.00    +0.001 A 
ATOM      7  C   UNL     1      -3.660  -0.469  25.277  0.00  0.00    +0.003 A 
ATOM      8  C   UNL     1      -3.814  -1.272  25.165  0.00  0.00    +0.037 A 
BRANCH   3   2
ATOM      1  C   UNL     1      -3.562  -2.920  24.475  0.00  0.00    +0.252 C 
ATOM      2  O   UNL     1      -4.143  -2.360  24.300  0.00  0.00    -0.471 OA
ENDBRANCH   3   2
ENDBRANCH   9   6
BRANCH  15  17
ATOM     17  S   UNL     1      -3.965   3.336  25.188  0.00  0.00    +0.063 S 
ATOM     18  O   UNL     1      -3.886   3.218  26.001  0.00  0.00    -0.153 OA
ATOM     19  O   UNL     1      -4.044   3.453  24.375  0.00  0.00    -0.153 OA
BRANCH  17  20
ATOM     20  C   UNL     1      -3.267   3.776  25.184  0.00  0.00    +0.122 A 
ATOM     21  C   UNL     1      -2.982   4.089  24.477  0.00  0.00    +0.021 A 
ATOM     22  C   UNL     1      -2.283   4.529  24.472  0.00  0.00    +0.013 A 
ATOM     23  C   UNL     1      -1.872   4.655  25.176  0.00  0.00    +0.058 A 
ATOM     24 CL   UNL     1      -1.173   5.095  25.171  0.00  0.00    -0.082 Cl
ATOM     25  C   UNL     1      -2.157   4.342  25.883  0.00  0.00    +0.013 A 
ATOM     26  C   UNL     1      -2.855   3.902  25.887  0.00  0.00    +0.021 A 
ENDBRANCH  17  20
ENDBRANCH  15  17
TORSDOF 4
ENDMDL
MODEL 2
REMARK VINA RESULT:     -15.1      2.080      4.498
REMARK  Name = 
REMARK  4 active torsions:
REMARK  status: ('A' for Active; 'I' for Inactive)
REMARK    1  A    between atoms: O_2  and  C_3
REMARK    2  A    between atoms: C_6  and  C_9
REMARK    3  A    between atoms: N_15  and  S_17
REMARK    4  A    between atoms: S_17  and  C_20
REMARK                            x       y       z     vdW  Elec       q    Type
REMARK                         _______ _______ _______ _____ _____    ______ ____
ROOT
ATOM      9  C   UNL     1      -2.309   1.750  24.893  0.00  0.00    +0.012 A 
ATOM     10  C   UNL     1      -3.133   1.742  24.858  0.00  0.00    +0.041 A 
ATOM     11  C   UNL     1      -3.852   2.314  24.840  0.00  0.00    +0.056 C 
ATOM     12  C   UNL     1      -4.012   2.998  24.847  0.00  0.00    +0.011 C 
ATOM     13  C   UNL     1      -4.408   2.287  24.816  0.00  0.00    +0.041 C 
ATOM     14  C   UNL     1      -5.058   1.544  24.774  0.00  0.00    +0.098 C 
ATOM     15  N   UNL     1      -4.530   0.896  24.783  0.00  0.00    -0.155 NA
ATOM     16  C   UNL     1      -4.492   1.607  24.799  0.00  0.00    +0.102 C 
ATOM     27  C   UNL     1      -3.664   1.681  24.835  0.00  0.00    +0.110 C 
ATOM     28  N   UNL     1      -3.538   1.024  24.827  0.00  0.00    -0.299 N 
ATOM     29  C   UNL     1      -3.119   0.313  24.830  0.00  0.00    +0.261 A 
ATOM     30  O   UNL     1      -3.524  -0.405  24.798  0.00  0.00    -0.267 OA
ATOM     31  C   UNL     1      -2.295   0.321  24.864  0.00  0.00    +0.061 A 
ATOM     32  C   UNL     1      -1.890   1.039  24.896  0.00  0.00    +0.006 A 
ENDROOT
BRANCH   9   6
ATOM      3  C   UNL     1      -1.094   3.904  24.987  0.00  0.00    +0.139 A 
ATOM      4  C   UNL     1      -1.352   3.545  25.684  0.00  0.00    +0.037 A 
ATOM      5  C   UNL     1      -1.757   2.827  25.652  0.00  0.00    +0.003 A 
ATOM      6  C   UNL     1      -1.904   2.468  24.924  0.00  0.00    +0.001 A 
ATOM      7  C   UNL     1      -1.646   2.827  24.228  0.00  0.00    +0.003 A 
ATOM      8  C   UNL     1      -1.241   3.545  24.260  0.00  0.00    +0.037 A 
BRANCH   3   2
ATOM      1  C   UNL     1      -1.105   5.333  24.970  0.00  0.00    +0.252 C 
ATOM      2  O   UNL     1      -0.689   4.621  25.019  0.00  0.00    -0.471 OA
ENDBRANCH   3   2
ENDBRANCH   9   6
BRANCH  15  17
ATOM     17  S   UNL     1      -4.275   0.111  24.777  0.00  0.00    +0.063 S 
ATOM     18  O   UNL     1      -4.216   0.136  23.954  0.00  0.00    -0.153 OA
ATOM     19  O   UNL     1      -4.334   0.086  25.600  0.00  0.00    -0.153 OA
BRANCH  17  20
ATOM     20  C   UNL     1      -4.020  -0.674  24.772  0.00  0.00    +0.122 A 
ATOM     21  C   UNL     1      -3.820  -1.047  25.480  0.00  0.00    +0.021 A 
ATOM     22  C   UNL     1      -3.565  -1.832  25.475  0.00  0.00    +0.013 A 
ATOM     23  C   UNL     1      -3.509  -2.242  24.761  0.00  0.00    +0.058 A 
ATOM     24 CL   UNL     1      -3.254  -3.027  24.756  0.00  0.00    -0.082 Cl
ATOM     25  C   UNL     1      -3.708  -1.869  24.054  0.00  0.00    +0.013 A 
ATOM     26  C   UNL     1      -3.964  -1.084  24.059  0.00  0.00    +0.021 A 
ENDBRANCH  17  20
ENDBRANCH  15  17
TORSDOF 4
ENDMDL
MODEL 3
REMARK VINA RESULT:     -13.6      1.582      2.472
REMARK  Name = 
REMARK  4 active torsions:
REMARK  status: ('A' for Active; 'I' for Inactive)
REMARK    1  A    between atoms: O_2  and  C_3
REMARK    2  A    between atoms: C_6  and  C_9
REMARK    3  A    between atoms: N_15  and  S_17
REMARK    4  A    between atoms: S_17  and  C_20
REMARK                            x       y       z     vdW  Elec       q    Type
REMARK                         _______ _______ _______ _____ _____    ______ ____
ROOT
ATOM      9  C   UNL     1      -2.903   1.032  24.628  0.00  0.00    +0.012 A 
ATOM     10  C   UNL     1      -2.150   0.982  24.961  0.00  0.00    +0.041 A 
ATOM     11  C   UNL     1      -1.537   0.361  25.250  0.00  0.00    +0.056 C 
ATOM     12  C   UNL     1      -1.443  -0.331  25.313  0.00  0.00    +0.011 C 
ATOM     13  C   UNL     1      -1.027   0.350  25.475  0.00  0.00    +0.041 C 
ATOM     14  C   UNL     1      -0.378   1.046  25.740  0.00  0.00    +0.098 C 
ATOM     15  N   UNL     1      -0.810   1.729  25.528  0.00  0.00    -0.155 NA
ATOM     16  C   UNL     1      -0.899   1.022  25.511  0.00  0.00    +0.102 C 
ATOM     27  C   UNL     1      -1.661   1.006  25.175  0.00  0.00    +0.110 C 
ATOM     28  N   UNL     1      -1.726   1.670  25.126  0.00  0.00    -0.299 N 
ATOM     29  C   UNL     1      -2.054   2.408  24.959  0.00  0.00    +0.261 A 
ATOM     30  O   UNL     1      -1.630   3.096  25.124  0.00  0.00    -0.267 OA
ATOM     31  C   UNL     1      -2.807   2.458  24.626  0.00  0.00    +0.061 A 
ATOM     32  C   UNL     1      -3.231   1.770  24.460  0.00  0.00    +0.006 A 
ENDROOT
BRANCH   9   6
ATOM      3  C   UNL     1      -4.176  -1.032  24.131  0.00  0.00    +0.139 A 
ATOM      4  C   UNL     1      -3.688  -0.700  23.555  0.00  0.00    +0.037 A 
ATOM      5  C   UNL     1      -3.263  -0.012  23.720  0.00  0.00    +0.003 A 
ATOM      6  C   UNL     1      -3.327   0.344  24.462  0.00  0.00    +0.001 A 
ATOM      7  C   UNL     1      -3.815   0.012  25.038  0.00  0.00    +0.003 A 
ATOM      8  C   UNL     1      -4.239  -0.676  24.872  0.00  0.00    +0.037 A 
BRANCH   3   2
ATOM      1  C   UNL     1      -4.210  -2.446  23.926  0.00  0.00    +0.252 C 
ATOM      2  O   UNL     1      -4.600  -1.719  23.965  0.00  0.00    -0.471 OA
ENDBRANCH   3   2
ENDBRANCH   9   6
BRANCH  15  17
ATOM     17  S   UNL     1      -0.984   2.529  25.427  0.00  0.00    +0.063 S 
ATOM     18  O   UNL     1      -1.307   2.555  26.186  0.00  0.00    -0.153 OA
ATOM     19  O   UNL     1      -0.661   2.503  24.668  0.00  0.00    -0.153 OA
BRANCH  17  20
ATOM     20  C   UNL     1      -1.157   3.330  25.325  0.00  0.00    +0.122 A 
ATOM     21  C   UNL     1      -1.648   3.716  25.863  0.00  0.00    +0.021 A 
ATOM     22  C   UNL     1      -1.822   4.517  25.762  0.00  0.00    +0.013 A 
ATOM     23  C   UNL     1      -1.504   4.929  25.123  0.00  0.00    +0.058 A 
ATOM     24 CL   UNL     1      -1.677   5.730  25.022  0.00  0.00    -0.082 Cl
ATOM     25  C   UNL     1      -1.013   4.543  24.585  0.00  0.00    +0.013 A 
ATOM     26  C   UNL     1      -0.839   3.742  24.686  0.00  0.00    +0.021 A 
ENDBRANCH  17  20
ENDBRANCH  15  17
TORSDOF 4
ENDMDL
MODEL 4
REMARK VINA RESULT:     -13.5      1.385      2.248
REMARK  Name = 
REMARK  4 active torsions:
REMARK  status: ('A' for Active; 'I' for Inactive)
REMARK    1  A    between atoms: O_2  and  C_3
REMARK    2  A    between atoms: C_6  and  C_9
REMARK    3  A    between atoms: N_15  and  S_17
REMARK    4  A    between atoms: S_17  and  C_20
REMARK                            x       y       z     vdW  Elec       q    Type
REMARK                         _______ _______ _______ _____ _____    ______ ____
ROOT
ATOM      9  C   UNL     1      -3.848   0.071  24.801  0.00  0.00    +0.012 A 
ATOM     10  C   UNL     1      -3.191   0.542  24.639  0.00  0.00    +0.041 A 
ATOM     11  C   UNL     1      -2.310   0.475  24.386  0.00  0.00    +0.056 C 
ATOM     12  C   UNL     1      -1.819   0.001  24.222  0.00  0.00    +0.011 C 
ATOM     13  C   UNL     1      -1.878   0.811  24.280  0.00  0.00    +0.041 C 
ATOM     14  C   UNL     1      -1.751   1.791  24.295  0.00  0.00    +0.098 C 
ATOM     15  N   UNL     1      -2.519   2.028  24.525  0.00  0.00    -0.155 NA
ATOM     16  C   UNL     1      -2.172   1.420  24.395  0.00  0.00    +0.102 C 
ATOM     27  C   UNL     1      -2.797   0.891  24.545  0.00  0.00    +0.110 C 
ATOM     28  N   UNL     1      -3.247   1.363  24.697  0.00  0.00    -0.299 N 
ATOM     29  C   UNL     1      -3.961   1.713  24.918  0.00  0.00    +0.261 A 
ATOM     30  O   UNL     1      -4.017   2.535  24.976  0.00  0.00    -0.267 OA
ATOM     31  C   UNL     1      -4.618   1.242  25.080  0.00  0.00    +0.061 A 
ATOM     32  C   UNL     1      -4.562   0.421  25.021  0.00  0.00    +0.006 A 
ENDROOT
BRANCH   9   6
ATOM      3  C   UNL     1      -3.680  -2.393  24.626  0.00  0.00    +0.139 A 
ATOM      4  C   UNL     1      -3.468  -2.013  25.328  0.00  0.00    +0.037 A 
ATOM      5  C   UNL     1      -3.524  -1.192  25.386  0.00  0.00    +0.003 A 
ATOM      6  C   UNL     1      -3.792  -0.750  24.743  0.00  0.00    +0.001 A 
ATOM      7  C   UNL     1      -4.004  -1.129  24.042  0.00  0.00    +0.003 A 
ATOM      8  C   UNL     1      -3.948  -1.950  23.983  0.00  0.00    +0.037 A 
BRANCH   3   2
ATOM      1  C   UNL     1      -2.985  -3.556  24.174  0.00  0.00    +0.252 C 
ATOM      2  O   UNL     1      -3.624  -3.213  24.568  0.00  0.00    -0.471 OA
ENDBRANCH   3   2
ENDBRANCH   9   6
BRANCH  15  17
ATOM     17  S   UNL     1      -3.140   2.532  24.727  0.00  0.00    +0.063 S 
ATOM     18  O   UNL     1      -3.371   2.566  23.935  0.00  0.00    -0.153 OA
ATOM     19  O   UNL     1      -2.910   2.498  25.519  0.00  0.00    -0.153 OA
BRANCH  17  20
ATOM     20  C   UNL     1      -3.762   3.036  24.929  0.00  0.00    +0.122 A 
ATOM     21  C   UNL     1      -4.273   3.315  24.346  0.00  0.00    +0.021 A 
ATOM     22  C   UNL     1      -4.895   3.818  24.548  0.00  0.00    +0.013 A 
ATOM     23  C   UNL     1      -5.005   4.042  25.334  0.00  0.00    +0.058 A 
ATOM     24 CL   UNL     1      -5.626   4.546  25.536  0.00  0.00    -0.082 Cl
ATOM     25  C   UNL     1      -4.493   3.763  25.918  0.00  0.00    +0.013 A 
ATOM     26  C   UNL     1      -3.872   3.260  25.715  0.00  0.00    +0.021 A 
ENDBRANCH  17  20
ENDBRANCH  15  17
TORSDOF 4
ENDMDL
MODEL 5
REMARK VINA RESULT:     -12.8      2.306      4.620
REMARK  Name = 
REMARK  4 active torsions:
REMARK  status: ('A' for Active; 'I' for Inactive)
REMARK    1  A    between atoms: O_2  and  C_3
REMARK    2  A    between atoms: C_6  and  C_9
REMARK    3  A    between atoms: N_15  and  S_17
REMARK    4  A    between atoms: S_17  and  C_20
REMARK                            x       y       z     vdW  Elec       q    Type
REMARK                         _______ _______ _______ _____ _____    ______ ____
ROOT
ATOM      9  C   UNL     1      -4.600   1.490  25.081  0.00  0.00    +0.012 A 
ATOM     10  C   UNL     1      -4.041   1.452  24.475  0.00  0.00    +0.041 A 
ATOM     11  C   UNL     1      -3.606   1.992  23.872  0.00  0.00    +0.056 C 
ATOM     12  C   UNL     1      -3.558   2.661  23.666  0.00  0.00    +0.011 C 
ATOM     13  C   UNL     1      -3.226   1.945  23.466  0.00  0.00    +0.041 C 
ATOM     14  C   UNL     1      -2.720   1.187  23.084  0.00  0.00    +0.098 C 
ATOM     15  N   UNL     1      -3.019   0.566  23.557  0.00  0.00    -0.155 NA
ATOM     16  C   UNL     1      -3.109   1.270  23.493  0.00  0.00    +0.102 C 
ATOM     27  C   UNL     1      -3.676   1.373  24.093  0.00  0.00    +0.110 C 
ATOM     28  N   UNL     1      -3.703   0.728  24.270  0.00  0.00    -0.299 N 
ATOM     29  C   UNL     1      -3.923   0.042  24.671  0.00  0.00    +0.261 A 
ATOM     30  O   UNL     1      -3.585  -0.682  24.466  0.00  0.00    -0.267 OA
ATOM     31  C   UNL     1      -4.482   0.079  25.276  0.00  0.00    +0.061 A 
ATOM     32  C   UNL     1      -4.820   0.803  25.481  0.00  0.00    +0.006 A 
ENDROOT
BRANCH   9   6
ATOM      3  C   UNL     1      -5.615   3.662  25.697  0.00  0.00    +0.139 A 
ATOM      4  C   UNL     1      -4.868   3.460  25.982  0.00  0.00    +0.037 A 
ATOM      5  C   UNL     1      -4.530   2.736  25.777  0.00  0.00    +0.003 A 
ATOM      6  C   UNL     1      -4.938   2.214  25.286  0.00  0.00    +0.001 A 
ATOM      7  C   UNL     1      -5.685   2.415  25.001  0.00  0.00    +0.003 A 
ATOM      8  C   UNL     1      -6.024   3.139  25.206  0.00  0.00    +0.037 A 
BRANCH   3   2
ATOM      1  C   UNL     1      -5.952   5.010  25.362  0.00  0.00    +0.252 C 
ATOM      2  O   UNL     1      -5.953   4.385  25.902  0.00  0.00    -0.471 OA
ENDBRANCH   3   2
ENDBRANCH   9   6
BRANCH  15  17
ATOM     17  S   UNL     1      -3.122  -0.200  23.846  0.00  0.00    +0.063 S 
ATOM     18  O   UNL     1      -2.502  -0.082  24.378  0.00  0.00    -0.153 OA
ATOM     19  O   UNL     1      -3.742  -0.318  23.314  0.00  0.00    -0.153 OA
BRANCH  17  20
ATOM     20  C   UNL     1      -3.225  -0.966  24.136  0.00  0.00    +0.122 A 
ATOM     21  C   UNL     1      -2.736  -1.249  24.736  0.00  0.00    +0.021 A 
ATOM     22  C   UNL     1      -2.839  -2.015  25.026  0.00  0.00    +0.013 A 
ATOM     23  C   UNL     1      -3.431  -2.497  24.714  0.00  0.00    +0.058 A 
ATOM     24 CL   UNL     1      -3.534  -3.263  25.004  0.00  0.00    -0.082 Cl
ATOM     25  C   UNL     1      -3.920  -2.214  24.114  0.00  0.00    +0.013 A 
ATOM     26  C   UNL     1      -3.818  -1.448  23.824  0.00  0.00    +0.021 A 
ENDBRANCH  17  20
ENDBRANCH  15  17
TORSDOF 4
ENDMDL
MODEL 6
REMARK VINA RESULT:     -12.7      2.322      5.002
REMARK  Name = 
REMARK  4 active torsions:
REMARK  status: ('A' for Active; 'I' for Inactive)
REMARK    1  A    between atoms: O_2  and  C_3
REMARK    2  A    between atoms: C_6  and  C_9
REMARK    3  A    between atoms: N_15  and  S_17
REMARK    4  A    between atoms: S_17  and  C_20
REMARK                            x       y       z     vdW  Elec       q    Type
REMARK                         _______ _______ _______ _____ _____    ______ ____
ROOT
ATOM      9  C   UNL     1      -2.430   1.984  24.964  0.00  0.00    +0.012 A 
ATOM     10  C   UNL     1      -1.869   1.423  25.189  0.00  0.00    +0.041 A 
ATOM     11  C   UNL     1      -1.025   1.361  25.547  0.00  0.00    +0.056 C 
ATOM     12  C   UNL     1      -0.496   1.759  25.783  0.00  0.00    +0.011 C 
ATOM     13  C   UNL     1      -0.659   0.966  25.693  0.00  0.00    +0.041 C 
ATOM     14  C   UNL     1      -0.668  -0.022  25.663  0.00  0.00    +0.098 C 
ATOM     15  N   UNL     1      -1.427  -0.145  25.337  0.00  0.00    -0.155 NA
ATOM     16  C   UNL     1      -1.018   0.407  25.525  0.00  0.00    +0.102 C 
ATOM     27  C   UNL     1      -1.541   1.020  25.318  0.00  0.00    +0.110 C 
ATOM     28  N   UNL     1      -2.030   0.618  25.099  0.00  0.00    -0.299 N 
ATOM     29  C   UNL     1      -2.753   0.375  24.785  0.00  0.00    +0.261 A 
ATOM     30  O   UNL     1      -2.915  -0.429  24.695  0.00  0.00    -0.267 OA
ATOM     31  C   UNL     1      -3.314   0.936  24.560  0.00  0.00    +0.061 A 
ATOM     32  C   UNL     1      -3.153   1.740  24.650  0.00  0.00    +0.006 A 
ENDROOT
BRANCH   9   6
ATOM      3  C   UNL     1      -1.945   4.396  25.233  0.00  0.00    +0.139 A 
ATOM      4  C   UNL     1      -1.707   4.001  24.549  0.00  0.00    +0.037 A 
ATOM      5  C   UNL     1      -1.868   3.197  24.460  0.00  0.00    +0.003 A 
ATOM      6  C   UNL     1      -2.268   2.788  25.054  0.00  0.00    +0.001 A 
ATOM      7  C   UNL     1      -2.506   3.183  25.738  0.00  0.00    +0.003 A 
ATOM      8  C   UNL     1      -2.345   3.987  25.827  0.00  0.00    +0.037 A 
BRANCH   3   2
ATOM      1  C   UNL     1      -1.111   5.527  24.973  0.00  0.00    +0.252 C 
ATOM      2  O   UNL     1      -1.783   5.199  25.323  0.00  0.00    -0.471 OA
ENDBRANCH   3   2
ENDBRANCH   9   6
BRANCH  15  17
ATOM     17  S   UNL     1      -2.083  -0.553  25.047  0.00  0.00    +0.063 S 
ATOM     18  O   UNL     1      -2.405  -0.576  25.806  0.00  0.00    -0.153 OA
ATOM     19  O   UNL     1      -1.761  -0.531  24.287  0.00  0.00    -0.153 OA
BRANCH  17  20
ATOM     20  C   UNL     1      -2.739  -0.962  24.756  0.00  0.00    +0.122 A 
ATOM     21  C   UNL     1      -3.329  -1.216  25.274  0.00  0.00    +0.021 A 
ATOM     22  C   UNL     1      -3.985  -1.624  24.984  0.00  0.00    +0.013 A 
ATOM     23  C   UNL     1      -4.050  -1.777  24.176  0.00  0.00    +0.058 A 
ATOM     24 CL   UNL     1      -4.706  -2.186  23.886  0.00  0.00    -0.082 Cl
ATOM     25  C   UNL     1      -3.461  -1.523  23.659  0.00  0.00    +0.013 A 
ATOM     26  C   UNL     1      -2.805  -1.114  23.949  0.00  0.00    +0.021 A 
ENDBRANCH  17  20
ENDBRANCH  15  17
TORSDOF 4
ENDMDL
MODEL 7
REMARK VINA RESULT:     -12.0      2.539      4.582
REMARK  Name = 
REMARK  4 active torsions:
REMARK  status: ('A' for Active; 'I' for Inactive)
REMARK    1  A    between atoms: O_2  and  C_3
REMARK    2  A    between atoms: C_6  and  C_9
REMARK    3  A    between atoms: N_15  and  S_17
REMARK    4  A    between atoms: S_17  and  C_20
REMARK                            x       y       z     vdW  Elec       q    Type
REMARK                         _______ _______ _______ _____ _____    ______ ____
ROOT
ATOM      9  C   UNL     1      -2.969   1.988  25.002  0.00  0.00    +0.012 A 
ATOM     10  C   UNL     1      -2.177   2.134  25.180  0.00  0.00    +0.041 A 
ATOM     11  C   UNL     1      -1.614   2.820  25.418  0.00  0.00    +0.056 C 
ATOM     12  C   UNL     1      -1.612   3.509  25.551  0.00  0.00    +0.011 C 
ATOM     13  C   UNL     1      -1.074   2.897  25.535  0.00  0.00    +0.041 C 
ATOM     14  C   UNL     1      -0.287   2.301  25.569  0.00  0.00    +0.098 C 
ATOM     15  N   UNL     1      -0.650   1.578  25.362  0.00  0.00    -0.155 NA
ATOM     16  C   UNL     1      -0.844   2.257  25.456  0.00  0.00    +0.102 C 
ATOM     27  C   UNL     1      -1.655   2.174  25.286  0.00  0.00    +0.110 C 
ATOM     28  N   UNL     1      -1.630   1.516  25.165  0.00  0.00    -0.299 N 
ATOM     29  C   UNL     1      -1.875   0.753  24.972  0.00  0.00    +0.261 A 
ATOM     30  O   UNL     1      -1.328   0.135  24.956  0.00  0.00    -0.267 OA
ATOM     31  C   UNL     1      -2.667   0.607  24.794  0.00  0.00    +0.061 A 
ATOM     32  C   UNL     1      -3.214   1.224  24.809  0.00  0.00    +0.006 A 
ENDROOT
BRANCH   9   6
ATOM      3  C   UNL     1      -4.610   3.841  25.047  0.00  0.00    +0.139 A 
ATOM      4  C   UNL     1      -4.213   3.659  24.348  0.00  0.00    +0.037 A 
ATOM      5  C   UNL     1      -3.666   3.041  24.333  0.00  0.00    +0.003 A 
ATOM      6  C   UNL     1      -3.516   2.606  25.017  0.00  0.00    +0.001 A 
ATOM      7  C   UNL     1      -3.913   2.788  25.717  0.00  0.00    +0.003 A 
ATOM      8  C   UNL     1      -4.460   3.406  25.732  0.00  0.00    +0.037 A 
BRANCH   3   2
ATOM      1  C   UNL     1      -5.870   4.368  25.467  0.00  0.00    +0.252 C 
ATOM      2  O   UNL     1      -5.156   4.458  25.062  0.00  0.00    -0.471 OA
ENDBRANCH   3   2
ENDBRANCH   9   6
BRANCH  15  17
ATOM     17  S   UNL     1      -0.722   0.773  25.194  0.00  0.00    +0.063 S 
ATOM     18  O   UNL     1      -0.559   0.924  24.399  0.00  0.00    -0.153 OA
ATOM     19  O   UNL     1      -0.885   0.621  25.988  0.00  0.00    -0.153 OA
BRANCH  17  20
ATOM     20  C   UNL     1      -0.794  -0.032  25.025  0.00  0.00    +0.122 A 
ATOM     21  C   UNL     1      -0.994  -0.562  25.625  0.00  0.00    +0.021 A 
ATOM     22  C   UNL     1      -1.066  -1.367  25.456  0.00  0.00    +0.013 A 
ATOM     23  C   UNL     1      -0.938  -1.640  24.689  0.00  0.00    +0.058 A 
ATOM     24 CL   UNL     1      -1.009  -2.445  24.521  0.00  0.00    -0.082 Cl
ATOM     25  C   UNL     1      -0.737  -1.110  24.090  0.00  0.00    +0.013 A 
ATOM     26  C   UNL     1      -0.666  -0.306  24.258  0.00  0.00    +0.021 A 
ENDBRANCH  17  20
ENDBRANCH  15  17
TORSDOF 4
ENDMDL
MODEL 8
REMARK VINA RESULT:     -12.0      1.976      2.679
REMARK  Name = 
REMARK  4 active torsions:
REMARK  status: ('A' for Active; 'I' for Inactive)
REMARK    1  A    between atoms: O_2  and  C_3
REMARK    2  A    between atoms: C_6  and  C_9
REMARK    3  A    between atoms: N_15  and  S_17
REMARK    4  A    between atoms: S_17  and  C_20
REMARK                            x       y       z     vdW  Elec       q    Type
REMARK                         _______ _______ _______ _____ _____    ______ ____
ROOT
ATOM      9  C   UNL     1      -2.286   0.334  25.027  0.00  0.00    +0.012 A 
ATOM     10  C   UNL     1      -3.043   0.082  24.816  0.00  0.00    +0.041 A 
ATOM     11  C   UNL     1      -3.499  -0.676  24.566  0.00  0.00    +0.056 C 
ATOM     12  C   UNL     1      -3.404  -1.361  24.448  0.00  0.00    +0.011 C 
ATOM     13  C   UNL     1      -4.017  -0.825  24.426  0.00  0.00    +0.041 C 
ATOM     14  C   UNL     1      -4.873  -0.338  24.343  0.00  0.00    +0.098 C 
ATOM     15  N   UNL     1      -4.618   0.429  24.552  0.00  0.00    -0.155 NA
ATOM     16  C   UNL     1      -4.333  -0.220  24.481  0.00  0.00    +0.102 C 
ATOM     27  C   UNL     1      -3.549  -0.028  24.686  0.00  0.00    +0.110 C 
ATOM     28  N   UNL     1      -3.666   0.622  24.792  0.00  0.00    -0.299 N 
ATOM     29  C   UNL     1      -3.533   1.414  24.980  0.00  0.00    +0.261 A 
ATOM     30  O   UNL     1      -4.156   1.955  24.957  0.00  0.00    -0.267 OA
ATOM     31  C   UNL     1      -2.776   1.666  25.191  0.00  0.00    +0.061 A 
ATOM     32  C   UNL     1      -2.153   1.126  25.215  0.00  0.00    +0.006 A 
ENDROOT
BRANCH   9   6
ATOM      3  C   UNL     1      -0.416  -1.287  25.097  0.00  0.00    +0.139 A 
ATOM      4  C   UNL     1      -0.571  -0.865  24.405  0.00  0.00    +0.037 A 
ATOM      5  C   UNL     1      -1.194  -0.324  24.382  0.00  0.00    +0.003 A 
ATOM      6  C   UNL     1      -1.663  -0.206  25.050  0.00  0.00    +0.001 A 
ATOM      7  C   UNL     1      -1.509  -0.629  25.742  0.00  0.00    +0.003 A 
ATOM      8  C   UNL     1      -0.886  -1.169  25.765  0.00  0.00    +0.037 A 
BRANCH   3   2
ATOM      1  C   UNL     1       0.094  -2.573  25.453  0.00  0.00    +0.252 C 
ATOM      2  O   UNL     1       0.206  -1.827  25.120  0.00  0.00    -0.471 OA
ENDBRANCH   3   2
ENDBRANCH   9   6
BRANCH  15  17
ATOM     17  S   UNL     1      -4.661   1.239  24.706  0.00  0.00    +0.063 S 
ATOM     18  O   UNL     1      -4.448   1.399  23.925  0.00  0.00    -0.153 OA
ATOM     19  O   UNL     1      -4.874   1.079  25.487  0.00  0.00    -0.153 OA
BRANCH  17  20
ATOM     20  C   UNL     1      -4.704   2.049  24.860  0.00  0.00    +0.122 A 
ATOM     21  C   UNL     1      -4.499   2.591  24.273  0.00  0.00    +0.021 A 
ATOM     22  C   UNL     1      -4.542   3.401  24.428  0.00  0.00    +0.013 A 
ATOM     23  C   UNL     1      -4.789   3.667  25.168  0.00  0.00    +0.058 A 
ATOM     24 CL   UNL     1      -4.831   4.477  25.322  0.00  0.00    -0.082 Cl
ATOM     25  C   UNL     1      -4.993   3.124  25.754  0.00  0.00    +0.013 A 
ATOM     26  C   UNL     1      -4.950   2.315  25.600  0.00  0.00    +0.021 A 
ENDBRANCH  17  20
ENDBRANCH  15  17
TORSDOF 4
ENDMDL
