MODEL 1
REMARK VINA RESULT:     -15.6      0.000      0.000
REMARK  Name = 
REMARK  5 active torsions:
REMARK  status: ('A' for Active; 'I' for Inactive)
REMARK    1  A    between atoms: O_2  and  C_3
REMARK    2  A    between atoms: C_8  and  N_9
REMARK    3  A    between atoms: C_19  and  C_26
REMARK    4  A    between atoms: C_29  and  O_30
REMARK    5  A    between atoms: O_30  and  C_31
REMARK                            x       y       z     vdW  Elec       q    Type
REMARK                         _______ _______ _______ _____ _____    ______ ____
ROOT
ATOM      9  N   UNL     1      -3.629   3.156  25.034  0.00  0.00    -0.159 NA
ATOM     10  C   UNL     1      -4.389   3.464  25.123  0.00  0.00    +0.328 C 
ATOM     11  O   UNL     1      -4.497   4.276  25.216  0.00  0.00    -0.250 OA
ATOM     12  N   UNL     1      -5.042   2.959  25.120  0.00  0.00    -0.262 N 
ATOM     13  C   UNL     1      -5.842   2.720  25.155  0.00  0.00    +0.097 C 
ATOM     14  C   UNL     1      -5.727   1.744  25.045  0.00  0.00    +0.043 C 
ATOM     15  C   UNL     1      -5.802   0.937  24.966  0.00  0.00    +0.011 C 
ATOM     16  C   UNL     1      -5.285   1.411  24.977  0.00  0.00    +0.058 C 
ATOM     17  C   UNL     1      -5.412   2.352  25.084  0.00  0.00    +0.101 C 
ATOM     18  C   UNL     1      -4.371   1.482  24.915  0.00  0.00    +0.041 A 
ATOM     19  C   UNL     1      -3.698   1.017  24.816  0.00  0.00    +0.012 A 
ATOM     20  C   UNL     1      -2.952   1.369  24.797  0.00  0.00    +0.006 A 
ATOM     21  C   UNL     1      -2.880   2.187  24.877  0.00  0.00    +0.061 A 
ATOM     22  C   UNL     1      -3.553   2.653  24.976  0.00  0.00    +0.261 A 
ATOM     23  O   UNL     1      -3.013   3.275  25.000  0.00  0.00    -0.267 OA
ATOM     24  N   UNL     1      -4.299   2.301  24.995  0.00  0.00    -0.299 N 
ATOM     25  C   UNL     1      -4.773   1.829  24.982  0.00  0.00    +0.110 C 
ENDROOT
BRANCH   9   8
ATOM      3  C   UNL     1      -2.689   3.957  25.752  0.00  0.00    +0.154 A 
ATOM      4  C   UNL     1      -2.036   4.462  25.757  0.00  0.00    +0.038 A 
ATOM      5  C   UNL     1      -1.672   4.670  25.047  0.00  0.00    +0.003 A 
ATOM      6  C   UNL     1      -1.959   4.374  24.332  0.00  0.00    +0.002 A 
ATOM      7  C   UNL     1      -2.612   3.869  24.329  0.00  0.00    +0.020 A 
ATOM      8  C   UNL     1      -2.977   3.660  25.038  0.00  0.00    +0.109 A 
BRANCH   3   2
ATOM      1  C   UNL     1      -2.785   4.067  27.174  0.00  0.00    +0.253 C 
ATOM      2  O   UNL     1      -3.054   3.748  26.462  0.00  0.00    -0.470 OA
ENDBRANCH   3   2
ENDBRANCH   9   8
BRANCH  19  26
ATOM     26  C   UNL     1      -3.770   0.199  24.737  0.00  0.00    +0.001 A 
ATOM     27  C   UNL     1      -3.738  -0.285  25.404  0.00  0.00    +0.003 A 
ATOM     28  C   UNL     1      -3.811  -1.103  25.324  0.00  0.00    +0.037 A 
ATOM     29  C   UNL     1      -3.915  -1.438  24.577  0.00  0.00    +0.147 A 
ATOM     35  C   UNL     1      -3.946  -0.954  23.910  0.00  0.00    +0.037 A 
ATOM     36  C   UNL     1      -3.874  -0.136  23.990  0.00  0.00    +0.003 A 
BRANCH  29  30
ATOM     30  O   UNL     1      -3.987  -2.255  24.497  0.00  0.00    -0.404 OA
BRANCH  30  31
ATOM     31  C   UNL     1      -3.346  -2.745  24.671  0.00  0.00    +0.575 C 
ATOM     32  F   UNL     1      -2.706  -3.235  24.845  0.00  0.00    -0.133 F 
ATOM     33  F   UNL     1      -3.048  -2.626  23.911  0.00  0.00    -0.133 F 
ATOM     34  F   UNL     1      -3.645  -2.864  25.431  0.00  0.00    -0.133 F 
ENDBRANCH  30  31
ENDBRANCH  29  30
ENDBRANCH  19  26
TORSDOF 5
ENDMDL
MODEL 2
REMARK VINA RESULT:     -15.2      2.736      4.796
REMARK  Name = 
REMARK  5 active torsions:
REMARK  status: ('A' for Active; 'I' for Inactive)
REMARK    1  A    between atoms: O_2  and  C_3
REMARK    2  A    between atoms: C_8  and  N_9
REMARK    3  A    between atoms: C_19  and  C_26
REMARK    4  A    between atoms: C_29  and  O_30
REMARK    5  A    between atoms: O_30  and  C_31
REMARK                            x       y       z     vdW  Elec       q    Type
REMARK                         _______ _______ _______ _____ _____    ______ ____
ROOT
ATOM      9  N   UNL     1      -4.001   0.142  24.629  0.00  0.00    -0.159 NA
ATOM     10  C   UNL     1      -4.772   0.409  24.753  0.00  0.00    +0.328 C 
ATOM     11  O   UNL     1      -5.402  -0.122  24.722  0.00  0.00    -0.250 OA
ATOM     12  N   UNL     1      -4.912   1.208  24.907  0.00  0.00    -0.262 N 
ATOM     13  C   UNL     1      -5.340   1.906  25.072  0.00  0.00    +0.097 C 
ATOM     14  C   UNL     1      -4.594   2.552  25.111  0.00  0.00    +0.043 C 
ATOM     15  C   UNL     1      -4.102   3.198  25.176  0.00  0.00    +0.011 C 
ATOM     16  C   UNL     1      -4.042   2.510  25.049  0.00  0.00    +0.058 C 
ATOM     17  C   UNL     1      -4.774   1.898  25.014  0.00  0.00    +0.101 C 
ATOM     18  C   UNL     1      -3.414   1.862  24.873  0.00  0.00    +0.041 A 
ATOM     19  C   UNL     1      -2.601   1.768  24.776  0.00  0.00    +0.012 A 
ATOM     20  C   UNL     1      -2.289   1.022  24.614  0.00  0.00    +0.006 A 
ATOM     21  C   UNL     1      -2.790   0.370  24.549  0.00  0.00    +0.061 A 
ATOM     22  C   UNL     1      -3.604   0.464  24.646  0.00  0.00    +0.261 A 
ATOM     23  O   UNL     1      -3.627  -0.348  24.506  0.00  0.00    -0.267 OA
ATOM     24  N   UNL     1      -3.916   1.210  24.808  0.00  0.00    -0.299 N 
ATOM     25  C   UNL     1      -3.946   1.868  24.927  0.00  0.00    +0.110 C 
ENDROOT
BRANCH   9   8
ATOM      3  C   UNL     1      -3.708  -1.176  25.099  0.00  0.00    +0.154 A 
ATOM      4  C   UNL     1      -3.568  -1.974  24.945  0.00  0.00    +0.038 A 
ATOM      5  C   UNL     1      -3.582  -2.253  24.169  0.00  0.00    +0.003 A 
ATOM      6  C   UNL     1      -3.735  -1.734  23.546  0.00  0.00    +0.002 A 
ATOM      7  C   UNL     1      -3.874  -0.936  23.700  0.00  0.00    +0.020 A 
ATOM      8  C   UNL     1      -3.861  -0.656  24.475  0.00  0.00    +0.109 A 
BRANCH   3   2
ATOM      1  C   UNL     1      -3.518  -1.410  26.495  0.00  0.00    +0.253 C 
ATOM      2  O   UNL     1      -3.695  -0.896  25.874  0.00  0.00    -0.470 OA
ENDBRANCH   3   2
ENDBRANCH   9   8
BRANCH  19  26
ATOM     26  C   UNL     1      -2.099   2.420  24.840  0.00  0.00    +0.001 A 
ATOM     27  C   UNL     1      -1.892   2.849  24.167  0.00  0.00    +0.003 A 
ATOM     28  C   UNL     1      -1.391   3.502  24.232  0.00  0.00    +0.037 A 
ATOM     29  C   UNL     1      -1.096   3.724  24.969  0.00  0.00    +0.147 A 
ATOM     35  C   UNL     1      -1.304   3.295  25.643  0.00  0.00    +0.037 A 
ATOM     36  C   UNL     1      -1.805   2.643  25.578  0.00  0.00    +0.003 A 
BRANCH  29  30
ATOM     30  O   UNL     1      -0.595   4.376  25.034  0.00  0.00    -0.404 OA
BRANCH  30  31
ATOM     31  C   UNL     1      -0.897   5.139  24.947  0.00  0.00    +0.575 C 
ATOM     32  F   UNL     1      -1.198   5.902  24.860  0.00  0.00    -0.133 F 
ATOM     33  F   UNL     1      -1.295   5.064  25.666  0.00  0.00    -0.133 F 
ATOM     34  F   UNL     1      -0.498   5.214  24.228  0.00  0.00    -0.133 F 
ENDBRANCH  30  31
ENDBRANCH  29  30
ENDBRANCH  19  26
TORSDOF 5
ENDMDL
MODEL 3
REMARK VINA RESULT:     -14.8      1.055      2.103
REMARK  Name = 
REMARK  5 active torsions:
REMARK  status: ('A' for Active; 'I' for Inactive)
REMARK    1  A    between atoms: O_2  and  C_3
REMARK    2  A    between atoms: C_8  and  N_9
REMARK    3  A    between atoms: C_19  and  C_26
REMARK    4  A    between atoms: C_29  and  O_30
REMARK    5  A    between atoms: O_30  and  C_31
REMARK                            x       y       z     vdW  Elec       q    Type
REMARK                         _______ _______ _______ _____ _____    ______ ____
ROOT
ATOM      9  N   UNL     1      -4.157   2.597  24.564  0.00  0.00    -0.159 NA
ATOM     10  C   UNL     1      -3.709   2.870  23.927  0.00  0.00    +0.328 C 
ATOM     11  O   UNL     1      -3.709   3.673  23.737  0.00  0.00    -0.250 OA
ATOM     12  N   UNL     1      -3.261   2.340  23.481  0.00  0.00    -0.262 N 
ATOM     13  C   UNL     1      -2.743   2.067  22.885  0.00  0.00    +0.097 C 
ATOM     14  C   UNL     1      -2.734   1.104  23.102  0.00  0.00    +0.043 C 
ATOM     15  C   UNL     1      -2.620   0.298  23.149  0.00  0.00    +0.011 C 
ATOM     16  C   UNL     1      -2.982   0.792  23.493  0.00  0.00    +0.058 C 
ATOM     17  C   UNL     1      -2.980   1.721  23.270  0.00  0.00    +0.101 C 
ATOM     18  C   UNL     1      -3.557   0.902  24.201  0.00  0.00    +0.041 A 
ATOM     19  C   UNL     1      -3.938   0.469  24.790  0.00  0.00    +0.012 A 
ATOM     20  C   UNL     1      -4.432   0.851  25.329  0.00  0.00    +0.006 A 
ATOM     21  C   UNL     1      -4.544   1.667  25.279  0.00  0.00    +0.061 A 
ATOM     22  C   UNL     1      -4.163   2.101  24.690  0.00  0.00    +0.261 A 
ATOM     23  O   UNL     1      -4.551   2.743  25.032  0.00  0.00    -0.267 OA
ATOM     24  N   UNL     1      -3.670   1.718  24.151  0.00  0.00    -0.299 N 
ATOM     25  C   UNL     1      -3.335   1.229  23.840  0.00  0.00    +0.110 C 
ENDROOT
BRANCH   9   8
ATOM      3  C   UNL     1      -4.237   3.607  25.572  0.00  0.00    +0.154 A 
ATOM      4  C   UNL     1      -4.685   4.137  26.018  0.00  0.00    +0.038 A 
ATOM      5  C   UNL     1      -5.500   4.187  25.903  0.00  0.00    +0.003 A 
ATOM      6  C   UNL     1      -5.868   3.707  25.341  0.00  0.00    +0.002 A 
ATOM      7  C   UNL     1      -5.420   3.178  24.896  0.00  0.00    +0.020 A 
ATOM      8  C   UNL     1      -4.605   3.127  25.010  0.00  0.00    +0.109 A 
BRANCH   3   2
ATOM      1  C   UNL     1      -3.052   4.048  26.236  0.00  0.00    +0.253 C 
ATOM      2  O   UNL     1      -3.422   3.557  25.687  0.00  0.00    -0.470 OA
ENDBRANCH   3   2
ENDBRANCH   9   8
BRANCH  19  26
ATOM     26  C   UNL     1      -3.825  -0.347  24.840  0.00  0.00    +0.001 A 
ATOM     27  C   UNL     1      -4.267  -0.854  24.363  0.00  0.00    +0.003 A 
ATOM     28  C   UNL     1      -4.154  -1.670  24.413  0.00  0.00    +0.037 A 
ATOM     29  C   UNL     1      -3.600  -1.979  24.940  0.00  0.00    +0.147 A 
ATOM     35  C   UNL     1      -3.159  -1.471  25.418  0.00  0.00    +0.037 A 
ATOM     36  C   UNL     1      -3.271  -0.655  25.368  0.00  0.00    +0.003 A 
BRANCH  29  30
ATOM     30  O   UNL     1      -3.488  -2.794  24.991  0.00  0.00    -0.404 OA
BRANCH  30  31
ATOM     31  C   UNL     1      -3.150  -3.204  24.359  0.00  0.00    +0.575 C 
ATOM     32  F   UNL     1      -2.812  -3.614  23.728  0.00  0.00    -0.133 F 
ATOM     33  F   UNL     1      -2.398  -2.988  24.621  0.00  0.00    -0.133 F 
ATOM     34  F   UNL     1      -3.902  -3.419  24.098  0.00  0.00    -0.133 F 
ENDBRANCH  30  31
ENDBRANCH  29  30
ENDBRANCH  19  26
TORSDOF 5
ENDMDL
MODEL 4
REMARK VINA RESULT:     -14.2      3.055      5.460
REMARK  Name = 
REMARK  5 active torsions:
REMARK  status: ('A' for Active; 'I' for Inactive)
REMARK    1  A    between atoms: O_2  and  C_3
REMARK    2  A    between atoms: C_8  and  N_9
REMARK    3  A    between atoms: C_19  and  C_26
REMARK    4  A    between atoms: C_29  and  O_30
REMARK    5  A    between atoms: O_30  and  C_31
REMARK                            x       y       z     vdW  Elec       q    Type
REMARK                         _______ _______ _______ _____ _____    ______ ____
ROOT
ATOM      9  N   UNL     1      -2.354  -0.424  24.472  0.00  0.00    -0.159 NA
ATOM     10  C   UNL     1      -1.602  -0.749  24.364  0.00  0.00    +0.328 C 
ATOM     11  O   UNL     1      -1.520  -1.555  24.208  0.00  0.00    -0.250 OA
ATOM     12  N   UNL     1      -0.934  -0.268  24.413  0.00  0.00    -0.262 N 
ATOM     13  C   UNL     1      -0.127  -0.052  24.404  0.00  0.00    +0.097 C 
ATOM     14  C   UNL     1      -0.211   0.914  24.591  0.00  0.00    +0.043 C 
ATOM     15  C   UNL     1      -0.112   1.710  24.734  0.00  0.00    +0.011 C 
ATOM     16  C   UNL     1      -0.643   1.255  24.681  0.00  0.00    +0.058 C 
ATOM     17  C   UNL     1      -0.545   0.323  24.500  0.00  0.00    +0.101 C 
ATOM     18  C   UNL     1      -1.560   1.209  24.729  0.00  0.00    +0.041 A 
ATOM     19  C   UNL     1      -2.219   1.687  24.859  0.00  0.00    +0.012 A 
ATOM     20  C   UNL     1      -2.976   1.359  24.844  0.00  0.00    +0.006 A 
ATOM     21  C   UNL     1      -3.073   0.553  24.699  0.00  0.00    +0.061 A 
ATOM     22  C   UNL     1      -2.414   0.074  24.569  0.00  0.00    +0.261 A 
ATOM     23  O   UNL     1      -2.973  -0.526  24.490  0.00  0.00    -0.267 OA
ATOM     24  N   UNL     1      -1.657   0.403  24.584  0.00  0.00    -0.299 N 
ATOM     25  C   UNL     1      -1.168   0.857  24.639  0.00  0.00    +0.110 C 
ENDROOT
BRANCH   9   8
ATOM      3  C   UNL     1      -3.259  -1.348  25.077  0.00  0.00    +0.154 A 
ATOM      4  C   UNL     1      -3.928  -1.830  25.028  0.00  0.00    +0.038 A 
ATOM      5  C   UNL     1      -4.357  -1.869  24.326  0.00  0.00    +0.003 A 
ATOM      6  C   UNL     1      -4.119  -1.426  23.671  0.00  0.00    +0.002 A 
ATOM      7  C   UNL     1      -3.452  -0.945  23.720  0.00  0.00    +0.020 A 
ATOM      8  C   UNL     1      -3.021  -0.905  24.422  0.00  0.00    +0.109 A 
BRANCH   3   2
ATOM      1  C   UNL     1      -3.081  -1.733  26.441  0.00  0.00    +0.253 C 
ATOM      2  O   UNL     1      -2.830  -1.309  25.780  0.00  0.00    -0.470 OA
ENDBRANCH   3   2
ENDBRANCH   9   8
BRANCH  19  26
ATOM     26  C   UNL     1      -2.122   2.494  25.005  0.00  0.00    +0.001 A 
ATOM     27  C   UNL     1      -1.981   2.760  25.772  0.00  0.00    +0.003 A 
ATOM     28  C   UNL     1      -1.883   3.567  25.918  0.00  0.00    +0.037 A 
ATOM     29  C   UNL     1      -1.927   4.106  25.295  0.00  0.00    +0.147 A 
ATOM     35  C   UNL     1      -2.068   3.840  24.528  0.00  0.00    +0.037 A 
ATOM     36  C   UNL     1      -2.166   3.033  24.382  0.00  0.00    +0.003 A 
BRANCH  29  30
ATOM     30  O   UNL     1      -1.830   4.912  25.440  0.00  0.00    -0.404 OA
BRANCH  30  31
ATOM     31  C   UNL     1      -1.228   5.331  25.060  0.00  0.00    +0.575 C 
ATOM     32  F   UNL     1      -0.628   5.749  24.680  0.00  0.00    -0.133 F 
ATOM     33  F   UNL     1      -0.664   4.921  25.501  0.00  0.00    -0.133 F 
ATOM     34  F   UNL     1      -1.794   5.740  24.620  0.00  0.00    -0.133 F 
ENDBRANCH  30  31
ENDBRANCH  29  30
ENDBRANCH  19  26
TORSDOF 5
ENDMDL
MODEL 5
REMARK VINA RESULT:     -14.1      2.265      3.271
REMARK  Name = 
REMARK  5 active torsions:
REMARK  status: ('A' for Active; 'I' for Inactive)
REMARK    1  A    between atoms: O_2  and  C_3
REMARK    2  A    between atoms: C_8  and  N_9
REMARK    3  A    between atoms: C_19  and  C_26
REMARK    4  A    between atoms: C_29  and  O_30
REMARK    5  A    between atoms: O_30  and  C_31
REMARK                            x       y       z     vdW  Elec       q    Type
REMARK                         _______ _______ _______ _____ _____    ______ ____
ROOT
ATOM      9  N   UNL     1      -0.700   1.955  24.611  0.00  0.00    -0.159 NA
ATOM     10  C   UNL     1       0.018   1.687  24.303  0.00  0.00    +0.328 C 
ATOM     11  O   UNL     1       0.647   2.212  24.208  0.00  0.00    -0.250 OA
ATOM     12  N   UNL     1       0.106   0.894  24.090  0.00  0.00    -0.262 N 
ATOM     13  C   UNL     1       0.473   0.201  23.805  0.00  0.00    +0.097 C 
ATOM     14  C   UNL     1      -0.272  -0.438  23.914  0.00  0.00    +0.043 C 
ATOM     15  C   UNL     1      -0.777  -1.078  23.940  0.00  0.00    +0.011 C 
ATOM     16  C   UNL     1      -0.795  -0.395  24.103  0.00  0.00    +0.058 C 
ATOM     17  C   UNL     1      -0.065   0.210  23.992  0.00  0.00    +0.101 C 
ATOM     18  C   UNL     1      -1.354   0.250  24.444  0.00  0.00    +0.041 A 
ATOM     19  C   UNL     1      -2.122   0.345  24.730  0.00  0.00    +0.012 A 
ATOM     20  C   UNL     1      -2.376   1.087  24.988  0.00  0.00    +0.006 A 
ATOM     21  C   UNL     1      -1.863   1.732  24.960  0.00  0.00    +0.061 A 
ATOM     22  C   UNL     1      -1.095   1.636  24.674  0.00  0.00    +0.261 A 
ATOM     23  O   UNL     1      -1.027   2.442  24.836  0.00  0.00    -0.267 OA
ATOM     24  N   UNL     1      -0.841   0.895  24.416  0.00  0.00    -0.299 N 
ATOM     25  C   UNL     1      -0.850   0.242  24.269  0.00  0.00    +0.110 C 
ENDROOT
BRANCH   9   8
ATOM      3  C   UNL     1      -0.506   3.011  25.553  0.00  0.00    +0.154 A 
ATOM      4  C   UNL     1      -0.594   3.804  25.766  0.00  0.00    +0.038 A 
ATOM      5  C   UNL     1      -0.961   4.331  25.250  0.00  0.00    +0.003 A 
ATOM      6  C   UNL     1      -1.242   4.067  24.520  0.00  0.00    +0.002 A 
ATOM      7  C   UNL     1      -1.155   3.275  24.308  0.00  0.00    +0.020 A 
ATOM      8  C   UNL     1      -0.787   2.747  24.823  0.00  0.00    +0.109 A 
BRANCH   3   2
ATOM      1  C   UNL     1       0.163   2.752  26.789  0.00  0.00    +0.253 C 
ATOM      2  O   UNL     1      -0.139   2.484  26.070  0.00  0.00    -0.470 OA
ENDBRANCH   3   2
ENDBRANCH   9   8
BRANCH  19  26
ATOM     26  C   UNL     1      -2.636  -0.300  24.758  0.00  0.00    +0.001 A 
ATOM     27  C   UNL     1      -3.144  -0.450  24.126  0.00  0.00    +0.003 A 
ATOM     28  C   UNL     1      -3.657  -1.096  24.154  0.00  0.00    +0.037 A 
ATOM     29  C   UNL     1      -3.663  -1.591  24.814  0.00  0.00    +0.147 A 
ATOM     35  C   UNL     1      -3.154  -1.440  25.446  0.00  0.00    +0.037 A 
ATOM     36  C   UNL     1      -2.641  -0.795  25.418  0.00  0.00    +0.003 A 
BRANCH  29  30
ATOM     30  O   UNL     1      -4.175  -2.235  24.842  0.00  0.00    -0.404 OA
BRANCH  30  31
ATOM     31  C   UNL     1      -3.986  -2.932  24.441  0.00  0.00    +0.575 C 
ATOM     32  F   UNL     1      -3.796  -3.628  24.042  0.00  0.00    -0.133 F 
ATOM     33  F   UNL     1      -4.375  -2.652  23.770  0.00  0.00    -0.133 F 
ATOM     34  F   UNL     1      -3.597  -3.211  25.114  0.00  0.00    -0.133 F 
ENDBRANCH  30  31
ENDBRANCH  29  30
ENDBRANCH  19  26
TORSDOF 5
ENDMDL
