MODEL 1
REMARK VINA RESULT:     -10.0      0.000      0.000
REMARK  Name = 
REMARK  4 active torsions:
REMARK  status: ('A' for Active; 'I' for Inactive)
REMARK    1  A    between atoms: O_2  and  C_3
REMARK    2  A    between atoms: C_6  and  C_9
REMARK    3  A    between atoms: C_12  and  C_14
REMARK    4  A    between atoms: N_21  and  C_22
REMARK                            x       y       z     vdW  Elec       q    Type
REMARK                         _______ _______ _______ _____ _____    ______ ____
ROOT
ATOM     14  C   UNL     1      -4.060   1.745  25.088  0.00  0.00    +0.100 C 
ATOM     15  C   UNL     1      -4.839   1.474  25.059  0.00  0.00    +0.033 C 
ATOM     16  C   UNL     1      -4.821   0.660  24.934  0.00  0.00    +0.096 C 
ATOM     17  N   UNL     1      -4.032   0.425  24.886  0.00  0.00    -0.262 N 
ATOM     18  C   UNL     1      -3.561   1.097  24.981  0.00  0.00    +0.104 C 
ATOM     19  C   UNL     1      -3.760  -0.343  24.764  0.00  0.00    +0.328 C 
ATOM     20  O   UNL     1      -2.949  -0.493  24.728  0.00  0.00    -0.250 OA
ATOM     21  N   UNL     1      -4.299  -0.963  24.677  0.00  0.00    -0.160 NA
ENDROOT
BRANCH  21  22
ATOM     22  C   UNL     1      -4.027  -1.731  24.555  0.00  0.00    +0.102 A 
ATOM     23  C   UNL     1      -3.535  -2.088  25.114  0.00  0.00    +0.021 A 
ATOM     24  C   UNL     1      -3.262  -2.856  24.993  0.00  0.00    +0.031 A 
ATOM     25  C   UNL     1      -3.481  -3.270  24.312  0.00  0.00    +0.142 A 
ATOM     26  F   UNL     1      -3.208  -4.038  24.191  0.00  0.00    -0.204 F 
ATOM     27  C   UNL     1      -3.972  -2.913  23.754  0.00  0.00    +0.061 A 
ATOM     28  C   UNL     1      -4.245  -2.144  23.875  0.00  0.00    +0.158 A 
ATOM     29  F   UNL     1      -4.737  -1.788  23.316  0.00  0.00    -0.203 F 
ENDBRANCH  21  22
BRANCH  14  12
ATOM      9  C   UNL     1      -3.077   3.633  25.251  0.00  0.00    +0.250 A 
ATOM     10  N   UNL     1      -3.835   3.825  25.514  0.00  0.00    -0.107 NA
ATOM     11  N   UNL     1      -4.296   3.141  25.485  0.00  0.00    -0.111 NA
ATOM     12  C   UNL     1      -3.823   2.526  25.204  0.00  0.00    +0.228 A 
ATOM     13  O   UNL     1      -3.069   2.830  25.060  0.00  0.00    -0.419 OA
BRANCH   9   6
ATOM      3  C   UNL     1      -1.163   5.191  25.069  0.00  0.00    +0.139 A 
ATOM      4  C   UNL     1      -1.036   4.377  25.050  0.00  0.00    +0.037 A 
ATOM      5  C   UNL     1      -1.674   3.857  25.110  0.00  0.00    +0.008 A 
ATOM      6  C   UNL     1      -2.439   4.153  25.190  0.00  0.00    +0.055 A 
ATOM      7  C   UNL     1      -2.568   4.967  25.210  0.00  0.00    +0.008 A 
ATOM      8  C   UNL     1      -1.930   5.487  25.149  0.00  0.00    +0.037 A 
BRANCH   3   2
ATOM      1  C   UNL     1      -0.050   5.703  24.334  0.00  0.00    +0.252 C 
ATOM      2  O   UNL     1      -0.525   5.711  25.008  0.00  0.00    -0.471 OA
ENDBRANCH   3   2
ENDBRANCH   9   6
ENDBRANCH  14  12
TORSDOF 4
ENDMDL
MODEL 2
REMARK VINA RESULT:     -10.0      4.607      5.629
REMARK  Name = 
REMARK  4 active torsions:
REMARK  status: ('A' for Active; 'I' for Inactive)
REMARK    1  A    between atoms: O_2  and  C_3
REMARK    2  A    between atoms: C_6  and  C_9
REMARK    3  A    between atoms: C_12  and  C_14
REMARK    4  A    between atoms: N_21  and  C_22
REMARK                            x       y       z     vdW  Elec       q    Type
REMARK                         _______ _______ _______ _____ _____    ______ ____
ROOT
ATOM     14  C   UNL     1      -0.109   0.282  23.664  0.00  0.00    +0.100 C 
ATOM     15  C   UNL     1      -0.298  -0.057  24.393  0.00  0.00    +0.033 C 
ATOM     16  C   UNL     1      -1.041   0.219  24.617  0.00  0.00    +0.096 C 
ATOM     17  N   UNL     1      -1.314   0.729  24.028  0.00  0.00    -0.262 N 
ATOM     18  C   UNL     1      -0.737   0.768  23.439  0.00  0.00    +0.104 C 
ATOM     19  C   UNL     1      -2.034   1.129  24.028  0.00  0.00    +0.328 C 
ATOM     20  O   UNL     1      -2.231   1.623  23.397  0.00  0.00    -0.250 OA
ATOM     21  N   UNL     1      -2.558   1.036  24.659  0.00  0.00    -0.160 NA
ENDROOT
BRANCH  21  22
ATOM     22  C   UNL     1      -3.279   1.437  24.658  0.00  0.00    +0.102 A 
ATOM     23  C   UNL     1      -3.299   2.250  24.518  0.00  0.00    +0.021 A 
ATOM     24  C   UNL     1      -4.019   2.651  24.516  0.00  0.00    +0.031 A 
ATOM     25  C   UNL     1      -4.721   2.240  24.656  0.00  0.00    +0.142 A 
ATOM     26  F   UNL     1      -5.441   2.641  24.655  0.00  0.00    -0.204 F 
ATOM     27  C   UNL     1      -4.701   1.427  24.796  0.00  0.00    +0.061 A 
ATOM     28  C   UNL     1      -3.980   1.025  24.797  0.00  0.00    +0.158 A 
ATOM     29  F   UNL     1      -3.961   0.213  24.938  0.00  0.00    -0.203 F 
ENDBRANCH  21  22
BRANCH  14  12
ATOM      9  C   UNL     1       1.874   0.124  22.889  0.00  0.00    +0.250 A 
ATOM     10  N   UNL     1       1.434  -0.195  22.269  0.00  0.00    -0.107 NA
ATOM     11  N   UNL     1       0.637  -0.175  22.483  0.00  0.00    -0.111 NA
ATOM     12  C   UNL     1       0.585   0.157  23.237  0.00  0.00    +0.228 A 
ATOM     13  O   UNL     1       1.349   0.341  23.488  0.00  0.00    -0.419 OA
BRANCH   9   6
ATOM      3  C   UNL     1       4.335   0.382  22.947  0.00  0.00    +0.139 A 
ATOM      4  C   UNL     1       3.992  -0.349  23.115  0.00  0.00    +0.037 A 
ATOM      5  C   UNL     1       3.172  -0.435  23.095  0.00  0.00    +0.008 A 
ATOM      6  C   UNL     1       2.694   0.210  22.909  0.00  0.00    +0.055 A 
ATOM      7  C   UNL     1       3.035   0.942  22.741  0.00  0.00    +0.008 A 
ATOM      8  C   UNL     1       3.856   1.029  22.760  0.00  0.00    +0.037 A 
BRANCH   3   2
ATOM      1  C   UNL     1       5.596   0.081  23.546  0.00  0.00    +0.252 C 
ATOM      2  O   UNL     1       5.155   0.469  22.966  0.00  0.00    -0.471 OA
ENDBRANCH   3   2
ENDBRANCH   9   6
ENDBRANCH  14  12
TORSDOF 4
ENDMDL
MODEL 3
REMARK VINA RESULT:     -10.0      3.718      5.195
REMARK  Name = 
REMARK  4 active torsions:
REMARK  status: ('A' for Active; 'I' for Inactive)
REMARK    1  A    between atoms: O_2  and  C_3
REMARK    2  A    between atoms: C_6  and  C_9
REMARK    3  A    between atoms: C_12  and  C_14
REMARK    4  A    between atoms: N_21  and  C_22
REMARK                            x       y       z     vdW  Elec       q    Type
REMARK                         _______ _______ _______ _____ _____    ______ ____
ROOT
ATOM     14  C   UNL     1      -1.899   0.290  24.264  0.00  0.00    +0.100 C 
ATOM     15  C   UNL     1      -2.594  -0.126  24.106  0.00  0.00    +0.033 C 
ATOM     16  C   UNL     1      -3.231   0.364  24.288  0.00  0.00    +0.096 C 
ATOM     17  N   UNL     1      -2.932   1.083  24.560  0.00  0.00    -0.262 N 
ATOM     18  C   UNL     1      -2.108   1.037  24.545  0.00  0.00    +0.104 C 
ATOM     19  C   UNL     1      -3.377   1.733  24.803  0.00  0.00    +0.328 C 
ATOM     20  O   UNL     1      -2.998   2.419  25.061  0.00  0.00    -0.250 OA
ATOM     21  N   UNL     1      -4.202   1.698  24.787  0.00  0.00    -0.160 NA
ENDROOT
BRANCH  21  22
ATOM     22  C   UNL     1      -4.646   2.349  25.030  0.00  0.00    +0.102 A 
ATOM     23  C   UNL     1      -4.417   3.110  24.810  0.00  0.00    +0.021 A 
ATOM     24  C   UNL     1      -4.861   3.761  25.053  0.00  0.00    +0.031 A 
ATOM     25  C   UNL     1      -5.535   3.652  25.517  0.00  0.00    +0.142 A 
ATOM     26  F   UNL     1      -5.978   4.303  25.759  0.00  0.00    -0.204 F 
ATOM     27  C   UNL     1      -5.764   2.890  25.737  0.00  0.00    +0.061 A 
ATOM     28  C   UNL     1      -5.319   2.239  25.494  0.00  0.00    +0.158 A 
ATOM     29  F   UNL     1      -5.549   1.478  25.715  0.00  0.00    -0.203 F 
ENDBRANCH  21  22
BRANCH  14  12
ATOM      9  C   UNL     1       0.132  -0.112  23.745  0.00  0.00    +0.250 A 
ATOM     10  N   UNL     1      -0.029  -0.739  24.256  0.00  0.00    -0.107 NA
ATOM     11  N   UNL     1      -0.810  -0.665  24.513  0.00  0.00    -0.111 NA
ATOM     12  C   UNL     1      -1.131   0.008  24.161  0.00  0.00    +0.228 A 
ATOM     13  O   UNL     1      -0.549   0.350  23.686  0.00  0.00    -0.419 OA
BRANCH   9   6
ATOM      3  C   UNL     1       2.281   0.311  22.592  0.00  0.00    +0.139 A 
ATOM      4  C   UNL     1       2.069   0.762  23.250  0.00  0.00    +0.037 A 
ATOM      5  C   UNL     1       1.353   0.621  23.634  0.00  0.00    +0.008 A 
ATOM      6  C   UNL     1       0.849   0.029  23.361  0.00  0.00    +0.055 A 
ATOM      7  C   UNL     1       1.059  -0.423  22.703  0.00  0.00    +0.008 A 
ATOM      8  C   UNL     1       1.775  -0.282  22.319  0.00  0.00    +0.037 A 
BRANCH   3   2
ATOM      1  C   UNL     1       3.654   0.702  22.640  0.00  0.00    +0.252 C 
ATOM      2  O   UNL     1       2.997   0.452  22.208  0.00  0.00    -0.471 OA
ENDBRANCH   3   2
ENDBRANCH   9   6
ENDBRANCH  14  12
TORSDOF 4
ENDMDL
MODEL 4
REMARK VINA RESULT:      -9.9      1.788      2.229
REMARK  Name = 
REMARK  4 active torsions:
REMARK  status: ('A' for Active; 'I' for Inactive)
REMARK    1  A    between atoms: O_2  and  C_3
REMARK    2  A    between atoms: C_6  and  C_9
REMARK    3  A    between atoms: C_12  and  C_14
REMARK    4  A    between atoms: N_21  and  C_22
REMARK                            x       y       z     vdW  Elec       q    Type
REMARK                         _______ _______ _______ _____ _____    ______ ____
ROOT
ATOM     14  C   UNL     1      -1.185   0.823  25.469  0.00  0.00    +0.100 C 
ATOM     15  C   UNL     1      -0.897   0.150  25.850  0.00  0.00    +0.033 C 
ATOM     16  C   UNL     1      -1.364  -0.490  25.625  0.00  0.00    +0.096 C 
ATOM     17  N   UNL     1      -1.941  -0.216  25.104  0.00  0.00    -0.262 N 
ATOM     18  C   UNL     1      -1.831   0.597  25.007  0.00  0.00    +0.104 C 
ATOM     19  C   UNL     1      -2.526  -0.672  24.743  0.00  0.00    +0.328 C 
ATOM     20  O   UNL     1      -3.068  -0.317  24.232  0.00  0.00    -0.250 OA
ATOM     21  N   UNL     1      -2.568  -1.482  24.892  0.00  0.00    -0.160 NA
ENDROOT
BRANCH  21  22
ATOM     22  C   UNL     1      -3.153  -1.937  24.531  0.00  0.00    +0.102 A 
ATOM     23  C   UNL     1      -3.823  -1.573  24.216  0.00  0.00    +0.021 A 
ATOM     24  C   UNL     1      -4.408  -2.028  23.855  0.00  0.00    +0.031 A 
ATOM     25  C   UNL     1      -4.324  -2.848  23.808  0.00  0.00    +0.142 A 
ATOM     26  F   UNL     1      -4.910  -3.302  23.446  0.00  0.00    -0.204 F 
ATOM     27  C   UNL     1      -3.654  -3.212  24.122  0.00  0.00    +0.061 A 
ATOM     28  C   UNL     1      -3.068  -2.756  24.484  0.00  0.00    +0.158 A 
ATOM     29  F   UNL     1      -2.399  -3.121  24.799  0.00  0.00    -0.203 F 
ENDBRANCH  21  22
BRANCH  14  12
ATOM      9  C   UNL     1      -0.759   2.915  25.474  0.00  0.00    +0.250 A 
ATOM     10  N   UNL     1      -0.070   2.611  25.810  0.00  0.00    -0.107 NA
ATOM     11  N   UNL     1      -0.146   1.790  25.849  0.00  0.00    -0.111 NA
ATOM     12  C   UNL     1      -0.882   1.586  25.537  0.00  0.00    +0.228 A 
ATOM     13  O   UNL     1      -1.261   2.282  25.305  0.00  0.00    -0.419 OA
BRANCH   9   6
ATOM      3  C   UNL     1      -1.238   5.305  25.046  0.00  0.00    +0.139 A 
ATOM      4  C   UNL     1      -0.562   4.956  24.727  0.00  0.00    +0.037 A 
ATOM      5  C   UNL     1      -0.402   4.159  24.870  0.00  0.00    +0.008 A 
ATOM      6  C   UNL     1      -0.919   3.711  25.331  0.00  0.00    +0.055 A 
ATOM      7  C   UNL     1      -1.595   4.060  25.650  0.00  0.00    +0.008 A 
ATOM      8  C   UNL     1      -1.755   4.856  25.507  0.00  0.00    +0.037 A 
BRANCH   3   2
ATOM      1  C   UNL     1      -2.163   6.340  24.705  0.00  0.00    +0.252 C 
ATOM      2  O   UNL     1      -1.398   6.102  24.903  0.00  0.00    -0.471 OA
ENDBRANCH   3   2
ENDBRANCH   9   6
ENDBRANCH  14  12
TORSDOF 4
ENDMDL
MODEL 5
REMARK VINA RESULT:      -9.5      3.010      6.770
REMARK  Name = 
REMARK  4 active torsions:
REMARK  status: ('A' for Active; 'I' for Inactive)
REMARK    1  A    between atoms: O_2  and  C_3
REMARK    2  A    between atoms: C_6  and  C_9
REMARK    3  A    between atoms: C_12  and  C_14
REMARK    4  A    between atoms: N_21  and  C_22
REMARK                            x       y       z     vdW  Elec       q    Type
REMARK                         _______ _______ _______ _____ _____    ______ ____
ROOT
ATOM     14  C   UNL     1      -0.833   0.713  25.126  0.00  0.00    +0.100 C 
ATOM     15  C   UNL     1      -0.073   1.021  25.033  0.00  0.00    +0.033 C 
ATOM     16  C   UNL     1      -0.131   1.843  25.022  0.00  0.00    +0.096 C 
ATOM     17  N   UNL     1      -0.926   2.045  25.109  0.00  0.00    -0.262 N 
ATOM     18  C   UNL     1      -1.361   1.346  25.173  0.00  0.00    +0.104 C 
ATOM     19  C   UNL     1      -1.233   2.810  25.127  0.00  0.00    +0.328 C 
ATOM     20  O   UNL     1      -2.046   2.925  25.217  0.00  0.00    -0.250 OA
ATOM     21  N   UNL     1      -0.729   3.459  25.056  0.00  0.00    -0.160 NA
ENDROOT
BRANCH  21  22
ATOM     22  C   UNL     1      -1.037   4.223  25.075  0.00  0.00    +0.102 A 
ATOM     23  C   UNL     1      -1.722   4.381  25.508  0.00  0.00    +0.021 A 
ATOM     24  C   UNL     1      -2.031   5.146  25.527  0.00  0.00    +0.031 A 
ATOM     25  C   UNL     1      -1.655   5.754  25.114  0.00  0.00    +0.142 A 
ATOM     26  F   UNL     1      -1.964   6.518  25.133  0.00  0.00    -0.204 F 
ATOM     27  C   UNL     1      -0.970   5.595  24.682  0.00  0.00    +0.061 A 
ATOM     28  C   UNL     1      -0.661   4.830  24.662  0.00  0.00    +0.158 A 
ATOM     29  F   UNL     1       0.023   4.673  24.230  0.00  0.00    -0.203 F 
ENDBRANCH  21  22
BRANCH  14  12
ATOM      9  C   UNL     1      -1.692  -1.240  25.034  0.00  0.00    +0.250 A 
ATOM     10  N   UNL     1      -0.979  -1.397  25.418  0.00  0.00    -0.107 NA
ATOM     11  N   UNL     1      -0.570  -0.684  25.499  0.00  0.00    -0.111 NA
ATOM     12  C   UNL     1      -1.031  -0.087  25.165  0.00  0.00    +0.228 A 
ATOM     13  O   UNL     1      -1.724  -0.430  24.878  0.00  0.00    -0.419 OA
BRANCH   9   6
ATOM      3  C   UNL     1      -3.429  -2.904  24.452  0.00  0.00    +0.139 A 
ATOM      4  C   UNL     1      -2.674  -2.964  24.125  0.00  0.00    +0.037 A 
ATOM      5  C   UNL     1      -2.095  -2.409  24.319  0.00  0.00    +0.008 A 
ATOM      6  C   UNL     1      -2.271  -1.794  24.840  0.00  0.00    +0.055 A 
ATOM      7  C   UNL     1      -3.026  -1.733  25.167  0.00  0.00    +0.008 A 
ATOM      8  C   UNL     1      -3.605  -2.288  24.973  0.00  0.00    +0.037 A 
BRANCH   3   2
ATOM      1  C   UNL     1      -4.523  -3.314  23.629  0.00  0.00    +0.252 C 
ATOM      2  O   UNL     1      -4.008  -3.458  24.258  0.00  0.00    -0.471 OA
ENDBRANCH   3   2
ENDBRANCH   9   6
ENDBRANCH  14  12
TORSDOF 4
ENDMDL
MODEL 6
REMARK VINA RESULT:      -9.4      2.534      6.371
REMARK  Name = 
REMARK  4 active torsions:
REMARK  status: ('A' for Active; 'I' for Inactive)
REMARK    1  A    between atoms: O_2  and  C_3
REMARK    2  A    between atoms: C_6  and  C_9
REMARK    3  A    between atoms: C_12  and  C_14
REMARK    4  A    between atoms: N_21  and  C_22
REMARK                            x       y       z     vdW  Elec       q    Type
REMARK                         _______ _______ _______ _____ _____    ______ ____
ROOT
ATOM     14  C   UNL     1      -3.971   1.740  24.983  0.00  0.00    +0.100 C 
ATOM     15  C   UNL     1      -4.386   2.380  25.299  0.00  0.00    +0.033 C 
ATOM     16  C   UNL     1      -3.881   3.032  25.307  0.00  0.00    +0.096 C 
ATOM     17  N   UNL     1      -3.154   2.796  24.997  0.00  0.00    -0.262 N 
ATOM     18  C   UNL     1      -3.209   1.997  24.797  0.00  0.00    +0.104 C 
ATOM     19  C   UNL     1      -2.489   3.274  24.904  0.00  0.00    +0.328 C 
ATOM     20  O   UNL     1      -1.796   2.959  24.584  0.00  0.00    -0.250 OA
ATOM     21  N   UNL     1      -2.515   4.067  25.130  0.00  0.00    -0.160 NA
ENDROOT
BRANCH  21  22
ATOM     22  C   UNL     1      -1.849   4.544  25.036  0.00  0.00    +0.102 A 
ATOM     23  C   UNL     1      -1.111   4.201  24.901  0.00  0.00    +0.021 A 
ATOM     24  C   UNL     1      -0.445   4.677  24.807  0.00  0.00    +0.031 A 
ATOM     25  C   UNL     1      -0.516   5.499  24.848  0.00  0.00    +0.142 A 
ATOM     26  F   UNL     1       0.151   5.976  24.755  0.00  0.00    -0.204 F 
ATOM     27  C   UNL     1      -1.254   5.843  24.984  0.00  0.00    +0.061 A 
ATOM     28  C   UNL     1      -1.920   5.365  25.078  0.00  0.00    +0.158 A 
ATOM     29  F   UNL     1      -2.658   5.710  25.213  0.00  0.00    -0.203 F 
ENDBRANCH  21  22
BRANCH  14  12
ATOM      9  C   UNL     1      -4.334  -0.343  24.692  0.00  0.00    +0.250 A 
ATOM     10  N   UNL     1      -5.104  -0.049  24.718  0.00  0.00    -0.107 NA
ATOM     11  N   UNL     1      -5.062   0.768  24.830  0.00  0.00    -0.111 NA
ATOM     12  C   UNL     1      -4.266   0.978  24.874  0.00  0.00    +0.228 A 
ATOM     13  O   UNL     1      -3.815   0.292  24.789  0.00  0.00    -0.419 OA
BRANCH   9   6
ATOM      3  C   UNL     1      -3.691  -2.713  24.381  0.00  0.00    +0.139 A 
ATOM      4  C   UNL     1      -3.467  -2.310  25.066  0.00  0.00    +0.037 A 
ATOM      5  C   UNL     1      -3.681  -1.520  25.169  0.00  0.00    +0.008 A 
ATOM      6  C   UNL     1      -4.120  -1.133  24.589  0.00  0.00    +0.055 A 
ATOM      7  C   UNL     1      -4.345  -1.535  23.904  0.00  0.00    +0.008 A 
ATOM      8  C   UNL     1      -4.131  -2.325  23.800  0.00  0.00    +0.037 A 
BRANCH   3   2
ATOM      1  C   UNL     1      -2.736  -3.691  23.966  0.00  0.00    +0.252 C 
ATOM      2  O   UNL     1      -3.477  -3.503  24.278  0.00  0.00    -0.471 OA
ENDBRANCH   3   2
ENDBRANCH   9   6
ENDBRANCH  14  12
TORSDOF 4
ENDMDL
MODEL 7
REMARK VINA RESULT:      -9.1      4.046      5.307
REMARK  Name = 
REMARK  4 active torsions:
REMARK  status: ('A' for Active; 'I' for Inactive)
REMARK    1  A    between atoms: O_2  and  C_3
REMARK    2  A    between atoms: C_6  and  C_9
REMARK    3  A    between atoms: C_12  and  C_14
REMARK    4  A    between atoms: N_21  and  C_22
REMARK                            x       y       z     vdW  Elec       q    Type
REMARK                         _______ _______ _______ _____ _____    ______ ____
ROOT
ATOM     14  C   UNL     1      -1.381  -0.263  24.343  0.00  0.00    +0.100 C 
ATOM     15  C   UNL     1      -1.094  -1.023  24.195  0.00  0.00    +0.033 C 
ATOM     16  C   UNL     1      -0.344  -0.950  23.862  0.00  0.00    +0.096 C 
ATOM     17  N   UNL     1      -0.166  -0.147  23.804  0.00  0.00    -0.262 N 
ATOM     18  C   UNL     1      -0.807   0.278  24.101  0.00  0.00    +0.104 C 
ATOM     19  C   UNL     1       0.531   0.175  23.502  0.00  0.00    +0.328 C 
ATOM     20  O   UNL     1       0.630   0.994  23.479  0.00  0.00    -0.250 OA
ATOM     21  N   UNL     1       1.128  -0.321  23.222  0.00  0.00    -0.160 NA
ENDROOT
BRANCH  21  22
ATOM     22  C   UNL     1       1.824   0.001  22.920  0.00  0.00    +0.102 A 
ATOM     23  C   UNL     1       2.291   0.489  23.394  0.00  0.00    +0.021 A 
ATOM     24  C   UNL     1       2.987   0.812  23.093  0.00  0.00    +0.031 A 
ATOM     25  C   UNL     1       3.218   0.648  22.317  0.00  0.00    +0.142 A 
ATOM     26  F   UNL     1       3.914   0.971  22.016  0.00  0.00    -0.204 F 
ATOM     27  C   UNL     1       2.750   0.160  21.844  0.00  0.00    +0.061 A 
ATOM     28  C   UNL     1       2.053  -0.164  22.145  0.00  0.00    +0.158 A 
ATOM     29  F   UNL     1       1.586  -0.651  21.671  0.00  0.00    -0.203 F 
ENDBRANCH  21  22
BRANCH  14  12
ATOM      9  C   UNL     1      -3.246   0.563  24.976  0.00  0.00    +0.250 A 
ATOM     10  N   UNL     1      -3.236  -0.148  25.394  0.00  0.00    -0.107 NA
ATOM     11  N   UNL     1      -2.536  -0.544  25.208  0.00  0.00    -0.111 NA
ATOM     12  C   UNL     1      -2.113  -0.078  24.674  0.00  0.00    +0.228 A 
ATOM     13  O   UNL     1      -2.552   0.606  24.531  0.00  0.00    -0.419 OA
BRANCH   9   6
ATOM      3  C   UNL     1      -5.040   2.267  25.042  0.00  0.00    +0.139 A 
ATOM      4  C   UNL     1      -4.249   2.499  25.070  0.00  0.00    +0.037 A 
ATOM      5  C   UNL     1      -3.651   1.931  25.048  0.00  0.00    +0.008 A 
ATOM      6  C   UNL     1      -3.844   1.131  24.998  0.00  0.00    +0.055 A 
ATOM      7  C   UNL     1      -4.635   0.898  24.969  0.00  0.00    +0.008 A 
ATOM      8  C   UNL     1      -5.233   1.466  24.991  0.00  0.00    +0.037 A 
BRANCH   3   2
ATOM      1  C   UNL     1      -5.532   3.528  25.500  0.00  0.00    +0.252 C 
ATOM      2  O   UNL     1      -5.638   2.835  25.064  0.00  0.00    -0.471 OA
ENDBRANCH   3   2
ENDBRANCH   9   6
ENDBRANCH  14  12
TORSDOF 4
ENDMDL
MODEL 8
REMARK VINA RESULT:      -8.3     14.107     15.903
REMARK  Name = 
REMARK  4 active torsions:
REMARK  status: ('A' for Active; 'I' for Inactive)
REMARK    1  A    between atoms: O_2  and  C_3
REMARK    2  A    between atoms: C_6  and  C_9
REMARK    3  A    between atoms: C_12  and  C_14
REMARK    4  A    between atoms: N_21  and  C_22
REMARK                            x       y       z     vdW  Elec       q    Type
REMARK                         _______ _______ _______ _____ _____    ______ ____
ROOT
ATOM     14  C   UNL     1      -3.152 -10.693  15.622  0.00  0.00    +0.100 C 
ATOM     15  C   UNL     1      -2.774 -10.781  16.350  0.00  0.00    +0.033 C 
ATOM     16  C   UNL     1      -3.349 -10.768  16.939  0.00  0.00    +0.096 C 
ATOM     17  N   UNL     1      -4.085 -10.672  16.577  0.00  0.00    -0.262 N 
ATOM     18  C   UNL     1      -3.962 -10.627  15.762  0.00  0.00    +0.104 C 
ATOM     19  C   UNL     1      -4.813 -10.631  16.962  0.00  0.00    +0.328 C 
ATOM     20  O   UNL     1      -5.505 -10.534  16.522  0.00  0.00    -0.250 OA
ATOM     21  N   UNL     1      -4.850 -10.685  17.784  0.00  0.00    -0.160 NA
ENDROOT
BRANCH  21  22
ATOM     22  C   UNL     1      -5.578 -10.643  18.167  0.00  0.00    +0.102 A 
ATOM     23  C   UNL     1      -6.271 -10.555  17.728  0.00  0.00    +0.021 A 
ATOM     24  C   UNL     1      -7.000 -10.513  18.110  0.00  0.00    +0.031 A 
ATOM     25  C   UNL     1      -7.038 -10.559  18.934  0.00  0.00    +0.142 A 
ATOM     26  F   UNL     1      -7.767 -10.517  19.316  0.00  0.00    -0.204 F 
ATOM     27  C   UNL     1      -6.345 -10.647  19.373  0.00  0.00    +0.061 A 
ATOM     28  C   UNL     1      -5.616 -10.689  18.990  0.00  0.00    +0.158 A 
ATOM     29  F   UNL     1      -4.924 -10.778  19.430  0.00  0.00    -0.203 F 
ENDBRANCH  21  22
BRANCH  14  12
ATOM      9  C   UNL     1      -2.584 -10.579  13.567  0.00  0.00    +0.250 A 
ATOM     10  N   UNL     1      -1.855 -10.720  13.926  0.00  0.00    -0.107 NA
ATOM     11  N   UNL     1      -1.979 -10.780  14.740  0.00  0.00    -0.111 NA
ATOM     12  C   UNL     1      -2.785 -10.676  14.884  0.00  0.00    +0.228 A 
ATOM     13  O   UNL     1      -3.159 -10.551  14.159  0.00  0.00    -0.419 OA
BRANCH   9   6
ATOM      3  C   UNL     1      -2.979 -10.287  11.141  0.00  0.00    +0.139 A 
ATOM      4  C   UNL     1      -3.614 -10.281  11.667  0.00  0.00    +0.037 A 
ATOM      5  C   UNL     1      -3.483 -10.378  12.475  0.00  0.00    +0.008 A 
ATOM      6  C   UNL     1      -2.716 -10.481  12.759  0.00  0.00    +0.055 A 
ATOM      7  C   UNL     1      -2.079 -10.487  12.234  0.00  0.00    +0.008 A 
ATOM      8  C   UNL     1      -2.210 -10.390  11.425  0.00  0.00    +0.037 A 
BRANCH   3   2
ATOM      1  C   UNL     1      -3.534  -9.536  10.060  0.00  0.00    +0.252 C 
ATOM      2  O   UNL     1      -3.110 -10.190  10.333  0.00  0.00    -0.471 OA
ENDBRANCH   3   2
ENDBRANCH   9   6
ENDBRANCH  14  12
TORSDOF 4
ENDMDL
MODEL 9
REMARK VINA RESULT:      -7.9     14.277     16.662
REMARK  Name = 
REMARK  4 active torsions:
REMARK  status: ('A' for Active; 'I' for Inactive)
REMARK    1  A    between atoms: O_2  and  C_3
REMARK    2  A    between atoms: C_6  and  C_9
REMARK    3  A    between atoms: C_12  and  C_14
REMARK    4  A    between atoms: N_21  and  C_22
REMARK                            x       y       z     vdW  Elec       q    Type
REMARK                         _______ _______ _______ _____ _____    ______ ____
ROOT
ATOM     14  C   UNL     1      -3.385 -10.584  14.454  0.00  0.00    +0.100 C 
ATOM     15  C   UNL     1      -2.649 -10.692  14.096  0.00  0.00    +0.033 C 
ATOM     16  C   UNL     1      -2.748 -10.607  13.282  0.00  0.00    +0.096 C 
ATOM     17  N   UNL     1      -3.544 -10.446  13.136  0.00  0.00    -0.262 N 
ATOM     18  C   UNL     1      -3.938 -10.432  13.861  0.00  0.00    +0.104 C 
ATOM     19  C   UNL     1      -3.886 -10.322  12.396  0.00  0.00    +0.328 C 
ATOM     20  O   UNL     1      -4.695 -10.165  12.338  0.00  0.00    -0.250 OA
ATOM     21  N   UNL     1      -3.421 -10.353  11.715  0.00  0.00    -0.160 NA
ENDROOT
BRANCH  21  22
ATOM     22  C   UNL     1      -3.764 -10.228  10.976  0.00  0.00    +0.102 A 
ATOM     23  C   UNL     1      -4.539 -10.474  10.835  0.00  0.00    +0.021 A 
ATOM     24  C   UNL     1      -4.883 -10.350  10.096  0.00  0.00    +0.031 A 
ATOM     25  C   UNL     1      -4.452  -9.979   9.497  0.00  0.00    +0.142 A 
ATOM     26  F   UNL     1      -4.796  -9.855   8.758  0.00  0.00    -0.204 F 
ATOM     27  C   UNL     1      -3.678  -9.733   9.638  0.00  0.00    +0.061 A 
ATOM     28  C   UNL     1      -3.334  -9.858  10.378  0.00  0.00    +0.158 A 
ATOM     29  F   UNL     1      -2.559  -9.612  10.519  0.00  0.00    -0.203 F 
ENDBRANCH  21  22
BRANCH  14  12
ATOM      9  C   UNL     1      -4.181 -10.642  16.434  0.00  0.00    +0.250 A 
ATOM     10  N   UNL     1      -3.373 -10.714  16.585  0.00  0.00    -0.107 NA
ATOM     11  N   UNL     1      -2.976 -10.701  15.862  0.00  0.00    -0.111 NA
ATOM     12  C   UNL     1      -3.539 -10.621  15.264  0.00  0.00    +0.228 A 
ATOM     13  O   UNL     1      -4.284 -10.585  15.617  0.00  0.00    -0.419 OA
BRANCH   9   6
ATOM      3  C   UNL     1      -5.981 -10.606  18.132  0.00  0.00    +0.139 A 
ATOM      4  C   UNL     1      -6.157 -10.456  17.341  0.00  0.00    +0.037 A 
ATOM      5  C   UNL     1      -5.557 -10.468  16.775  0.00  0.00    +0.008 A 
ATOM      6  C   UNL     1      -4.781 -10.630  17.000  0.00  0.00    +0.055 A 
ATOM      7  C   UNL     1      -4.604 -10.781  17.792  0.00  0.00    +0.008 A 
ATOM      8  C   UNL     1      -5.204 -10.769  18.358  0.00  0.00    +0.037 A 
BRANCH   3   2
ATOM      1  C   UNL     1      -6.420 -10.331  19.464  0.00  0.00    +0.252 C 
ATOM      2  O   UNL     1      -6.581 -10.594  18.699  0.00  0.00    -0.471 OA
ENDBRANCH   3   2
ENDBRANCH   9   6
ENDBRANCH  14  12
TORSDOF 4
ENDMDL
MODEL 10
REMARK VINA RESULT:      -7.9     17.916     19.265
REMARK  Name = 
REMARK  4 active torsions:
REMARK  status: ('A' for Active; 'I' for Inactive)
REMARK    1  A    between atoms: O_2  and  C_3
REMARK    2  A    between atoms: C_6  and  C_9
REMARK    3  A    between atoms: C_12  and  C_14
REMARK    4  A    between atoms: N_21  and  C_22
REMARK                            x       y       z     vdW  Elec       q    Type
REMARK                         _______ _______ _______ _____ _____    ______ ____
ROOT
ATOM     14  C   UNL     1      -6.294  -9.100   8.824  0.00  0.00    +0.100 C 
ATOM     15  C   UNL     1      -6.975  -9.552   8.712  0.00  0.00    +0.033 C 
ATOM     16  C   UNL     1      -7.616  -9.038   8.653  0.00  0.00    +0.096 C 
ATOM     17  N   UNL     1      -7.333  -8.266   8.729  0.00  0.00    -0.262 N 
ATOM     18  C   UNL     1      -6.516  -8.305   8.835  0.00  0.00    +0.104 C 
ATOM     19  C   UNL     1      -7.787  -7.578   8.704  0.00  0.00    +0.328 C 
ATOM     20  O   UNL     1      -7.424  -6.842   8.789  0.00  0.00    -0.250 OA
ATOM     21  N   UNL     1      -8.603  -7.626   8.594  0.00  0.00    -0.160 NA
ENDROOT
BRANCH  21  22
ATOM     22  C   UNL     1      -9.056  -6.938   8.568  0.00  0.00    +0.102 A 
ATOM     23  C   UNL     1      -8.779  -6.276   8.161  0.00  0.00    +0.021 A 
ATOM     24  C   UNL     1      -9.231  -5.587   8.135  0.00  0.00    +0.031 A 
ATOM     25  C   UNL     1      -9.962  -5.559   8.517  0.00  0.00    +0.142 A 
ATOM     26  F   UNL     1     -10.414  -4.870   8.492  0.00  0.00    -0.204 F 
ATOM     27  C   UNL     1     -10.239  -6.220   8.925  0.00  0.00    +0.061 A 
ATOM     28  C   UNL     1      -9.786  -6.909   8.951  0.00  0.00    +0.158 A 
ATOM     29  F   UNL     1     -10.064  -7.570   9.359  0.00  0.00    -0.203 F 
ENDBRANCH  21  22
BRANCH  14  12
ATOM      9  C   UNL     1      -4.347  -9.722   9.441  0.00  0.00    +0.250 A 
ATOM     10  N   UNL     1      -4.346  -9.956   8.650  0.00  0.00    -0.107 NA
ATOM     11  N   UNL     1      -5.076  -9.751   8.322  0.00  0.00    -0.111 NA
ATOM     12  C   UNL     1      -5.528  -9.391   8.911  0.00  0.00    +0.228 A 
ATOM     13  O   UNL     1      -5.077  -9.373   9.603  0.00  0.00    -0.419 OA
BRANCH   9   6
ATOM      3  C   UNL     1      -2.487 -10.016  11.047  0.00  0.00    +0.139 A 
ATOM      4  C   UNL     1      -3.034 -10.624  10.932  0.00  0.00    +0.037 A 
ATOM      5  C   UNL     1      -3.654 -10.525  10.397  0.00  0.00    +0.008 A 
ATOM      6  C   UNL     1      -3.727  -9.820   9.976  0.00  0.00    +0.055 A 
ATOM      7  C   UNL     1      -3.181  -9.212  10.090  0.00  0.00    +0.008 A 
ATOM      8  C   UNL     1      -2.561  -9.310  10.625  0.00  0.00    +0.037 A 
BRANCH   3   2
ATOM      1  C   UNL     1      -2.020 -10.402  12.341  0.00  0.00    +0.252 C 
ATOM      2  O   UNL     1      -1.867 -10.115  11.582  0.00  0.00    -0.471 OA
ENDBRANCH   3   2
ENDBRANCH   9   6
ENDBRANCH  14  12
TORSDOF 4
ENDMDL
