MODEL 1
REMARK VINA RESULT:     -10.4      0.000      0.000
REMARK  Name = 
REMARK  3 active torsions:
REMARK  status: ('A' for Active; 'I' for Inactive)
REMARK    1  A    between atoms: S_2  and  C_3
REMARK    2  A    between atoms: C_3  and  C_4
REMARK    3  A    between atoms: N_6  and  C_7
REMARK                            x       y       z     vdW  Elec       q    Type
REMARK                         _______ _______ _______ _____ _____    ______ ____
ROOT
ATOM      7  C   UNL     1      -2.983   2.021  24.849  0.00  0.00    +0.124 C 
ATOM      8  C   UNL     1      -3.746   2.307  24.716  0.00  0.00    +0.045 C 
ATOM      9  C   UNL     1      -4.238   1.661  24.570  0.00  0.00    +0.096 C 
ATOM     10  N   UNL     1      -3.780   0.976  24.612  0.00  0.00    -0.268 N 
ATOM     11  C   UNL     1      -3.005   1.200  24.784  0.00  0.00    +0.174 C 
ATOM     12  C   UNL     1      -2.342   0.718  24.883  0.00  0.00    +0.265 C 
ATOM     13  O   UNL     1      -1.636   1.112  25.053  0.00  0.00    -0.271 OA
ATOM     14  N   UNL     1      -2.289  -0.103  24.833  0.00  0.00    -0.178 NA
ATOM     15  C   UNL     1      -2.889  -0.648  24.673  0.00  0.00    +0.079 A 
ATOM     16  C   UNL     1      -2.602  -1.421  24.674  0.00  0.00    +0.028 A 
ATOM     17  C   UNL     1      -3.112  -2.051  24.525  0.00  0.00    +0.059 A 
ATOM     18 CL   UNL     1      -2.825  -2.824  24.527  0.00  0.00    -0.082 Cl
ATOM     19  C   UNL     1      -3.911  -1.909  24.375  0.00  0.00    +0.012 A 
ATOM     20  C   UNL     1      -4.198  -1.136  24.374  0.00  0.00    +0.007 A 
ATOM     21  C   UNL     1      -3.687  -0.505  24.523  0.00  0.00    +0.069 A 
ATOM     22  C   UNL     1      -4.083   0.218  24.496  0.00  0.00    +0.251 C 
ATOM     23  O   UNL     1      -4.891   0.177  24.330  0.00  0.00    -0.270 OA
ENDROOT
BRANCH   7   6
ATOM      4  C   UNL     1      -2.379   3.299  25.054  0.00  0.00    +0.252 C 
ATOM      5  O   UNL     1      -3.107   3.665  24.925  0.00  0.00    -0.272 OA
ATOM      6  N   UNL     1      -2.317   2.478  25.016  0.00  0.00    -0.204 NA
BRANCH   4   3
ATOM      3  C   UNL     1      -1.713   3.756  25.222  0.00  0.00    +0.144 C 
BRANCH   3   2
ATOM      1  C   UNL     1      -1.031   5.005  25.082  0.00  0.00    +0.070 C 
ATOM      2  S   UNL     1      -1.734   4.573  25.112  0.00  0.00    -0.130 S 
ENDBRANCH   3   2
ENDBRANCH   4   3
ENDBRANCH   7   6
TORSDOF 3
ENDMDL
MODEL 2
REMARK VINA RESULT:     -10.3      1.126      1.841
REMARK  Name = 
REMARK  3 active torsions:
REMARK  status: ('A' for Active; 'I' for Inactive)
REMARK    1  A    between atoms: S_2  and  C_3
REMARK    2  A    between atoms: C_3  and  C_4
REMARK    3  A    between atoms: N_6  and  C_7
REMARK                            x       y       z     vdW  Elec       q    Type
REMARK                         _______ _______ _______ _____ _____    ______ ____
ROOT
ATOM      7  C   UNL     1      -1.756   1.372  25.118  0.00  0.00    +0.124 C 
ATOM      8  C   UNL     1      -1.046   1.134  25.465  0.00  0.00    +0.045 C 
ATOM      9  C   UNL     1      -1.035   0.310  25.482  0.00  0.00    +0.096 C 
ATOM     10  N   UNL     1      -1.738   0.037  25.147  0.00  0.00    -0.268 N 
ATOM     11  C   UNL     1      -2.183   0.695  24.922  0.00  0.00    +0.174 C 
ATOM     12  C   UNL     1      -2.926   0.713  24.563  0.00  0.00    +0.265 C 
ATOM     13  O   UNL     1      -3.228   1.465  24.406  0.00  0.00    -0.271 OA
ATOM     14  N   UNL     1      -3.406   0.081  24.341  0.00  0.00    -0.178 NA
ATOM     15  C   UNL     1      -3.263  -0.728  24.422  0.00  0.00    +0.079 A 
ATOM     16  C   UNL     1      -3.888  -1.176  24.127  0.00  0.00    +0.028 A 
ATOM     17  C   UNL     1      -3.855  -2.000  24.155  0.00  0.00    +0.059 A 
ATOM     18 CL   UNL     1      -4.481  -2.448  23.859  0.00  0.00    -0.082 Cl
ATOM     19  C   UNL     1      -3.196  -2.375  24.479  0.00  0.00    +0.012 A 
ATOM     20  C   UNL     1      -2.570  -1.927  24.774  0.00  0.00    +0.007 A 
ATOM     21  C   UNL     1      -2.603  -1.103  24.746  0.00  0.00    +0.069 A 
ATOM     22  C   UNL     1      -1.925  -0.762  25.068  0.00  0.00    +0.251 C 
ATOM     23  O   UNL     1      -1.358  -1.291  25.350  0.00  0.00    -0.270 OA
ENDROOT
BRANCH   7   6
ATOM      4  C   UNL     1      -1.519   2.776  25.240  0.00  0.00    +0.252 C 
ATOM      5  O   UNL     1      -0.802   2.622  25.617  0.00  0.00    -0.272 OA
ATOM      6  N   UNL     1      -1.996   2.151  24.991  0.00  0.00    -0.204 NA
BRANCH   4   3
ATOM      3  C   UNL     1      -1.759   3.555  25.113  0.00  0.00    +0.144 C 
BRANCH   3   2
ATOM      1  C   UNL     1      -1.474   4.956  25.131  0.00  0.00    +0.070 C 
ATOM      2  S   UNL     1      -1.222   4.173  25.207  0.00  0.00    -0.130 S 
ENDBRANCH   3   2
ENDBRANCH   4   3
ENDBRANCH   7   6
TORSDOF 3
ENDMDL
MODEL 3
REMARK VINA RESULT:     -10.3      2.323      4.496
REMARK  Name = 
REMARK  3 active torsions:
REMARK  status: ('A' for Active; 'I' for Inactive)
REMARK    1  A    between atoms: S_2  and  C_3
REMARK    2  A    between atoms: C_3  and  C_4
REMARK    3  A    between atoms: N_6  and  C_7
REMARK                            x       y       z     vdW  Elec       q    Type
REMARK                         _______ _______ _______ _____ _____    ______ ____
ROOT
ATOM      7  C   UNL     1      -3.657   1.037  24.607  0.00  0.00    +0.124 C 
ATOM      8  C   UNL     1      -4.427   1.218  24.846  0.00  0.00    +0.045 C 
ATOM      9  C   UNL     1      -4.439   2.006  25.089  0.00  0.00    +0.096 C 
ATOM     10  N   UNL     1      -3.678   2.313  25.001  0.00  0.00    -0.268 N 
ATOM     11  C   UNL     1      -3.196   1.713  24.702  0.00  0.00    +0.174 C 
ATOM     12  C   UNL     1      -2.391   1.744  24.520  0.00  0.00    +0.265 C 
ATOM     13  O   UNL     1      -2.064   1.045  24.228  0.00  0.00    -0.271 OA
ATOM     14  N   UNL     1      -1.872   2.381  24.589  0.00  0.00    -0.178 NA
ATOM     15  C   UNL     1      -2.028   3.145  24.860  0.00  0.00    +0.079 A 
ATOM     16  C   UNL     1      -1.351   3.616  24.841  0.00  0.00    +0.028 A 
ATOM     17  C   UNL     1      -1.387   4.401  25.089  0.00  0.00    +0.059 A 
ATOM     18 CL   UNL     1      -0.710   4.871  25.071  0.00  0.00    -0.082 Cl
ATOM     19  C   UNL     1      -2.101   4.717  25.356  0.00  0.00    +0.012 A 
ATOM     20  C   UNL     1      -2.778   4.246  25.375  0.00  0.00    +0.007 A 
ATOM     21  C   UNL     1      -2.742   3.460  25.127  0.00  0.00    +0.069 A 
ATOM     22  C   UNL     1      -3.476   3.089  25.189  0.00  0.00    +0.251 C 
ATOM     23  O   UNL     1      -4.090   3.559  25.479  0.00  0.00    -0.270 OA
ENDROOT
BRANCH   7   6
ATOM      4  C   UNL     1      -3.910  -0.338  24.311  0.00  0.00    +0.252 C 
ATOM      5  O   UNL     1      -4.684  -0.255  24.584  0.00  0.00    -0.272 OA
ATOM      6  N   UNL     1      -3.397   0.307  24.322  0.00  0.00    -0.204 NA
BRANCH   4   3
ATOM      3  C   UNL     1      -3.650  -1.068  24.026  0.00  0.00    +0.144 C 
BRANCH   3   2
ATOM      1  C   UNL     1      -3.753  -2.492  24.079  0.00  0.00    +0.070 C 
ATOM      2  S   UNL     1      -4.097  -1.747  24.162  0.00  0.00    -0.130 S 
ENDBRANCH   3   2
ENDBRANCH   4   3
ENDBRANCH   7   6
TORSDOF 3
ENDMDL
MODEL 4
REMARK VINA RESULT:      -9.9      2.498      4.826
REMARK  Name = 
REMARK  3 active torsions:
REMARK  status: ('A' for Active; 'I' for Inactive)
REMARK    1  A    between atoms: S_2  and  C_3
REMARK    2  A    between atoms: C_3  and  C_4
REMARK    3  A    between atoms: N_6  and  C_7
REMARK                            x       y       z     vdW  Elec       q    Type
REMARK                         _______ _______ _______ _____ _____    ______ ____
ROOT
ATOM      7  C   UNL     1      -2.107   0.360  24.980  0.00  0.00    +0.124 C 
ATOM      8  C   UNL     1      -1.396  -0.015  25.165  0.00  0.00    +0.045 C 
ATOM      9  C   UNL     1      -0.834   0.568  25.321  0.00  0.00    +0.096 C 
ATOM     10  N   UNL     1      -1.197   1.304  25.233  0.00  0.00    -0.268 N 
ATOM     11  C   UNL     1      -1.985   1.174  25.022  0.00  0.00    +0.174 C 
ATOM     12  C   UNL     1      -2.574   1.731  24.872  0.00  0.00    +0.265 C 
ATOM     13  O   UNL     1      -3.314   1.424  24.671  0.00  0.00    -0.271 OA
ATOM     14  N   UNL     1      -2.523   2.554  24.895  0.00  0.00    -0.178 NA
ATOM     15  C   UNL     1      -1.869   3.024  25.075  0.00  0.00    +0.079 A 
ATOM     16  C   UNL     1      -2.054   3.827  25.036  0.00  0.00    +0.028 A 
ATOM     17  C   UNL     1      -1.476   4.392  25.196  0.00  0.00    +0.059 A 
ATOM     18 CL   UNL     1      -1.661   5.195  25.157  0.00  0.00    -0.082 Cl
ATOM     19  C   UNL     1      -0.711   4.155  25.397  0.00  0.00    +0.012 A 
ATOM     20  C   UNL     1      -0.526   3.353  25.437  0.00  0.00    +0.007 A 
ATOM     21  C   UNL     1      -1.105   2.786  25.276  0.00  0.00    +0.069 A 
ATOM     22  C   UNL     1      -0.806   2.021  25.346  0.00  0.00    +0.251 C 
ATOM     23  O   UNL     1      -0.010   1.965  25.557  0.00  0.00    -0.270 OA
ENDROOT
BRANCH   7   6
ATOM      4  C   UNL     1      -2.850  -0.838  24.744  0.00  0.00    +0.252 C 
ATOM      5  O   UNL     1      -2.175  -1.287  24.895  0.00  0.00    -0.272 OA
ATOM      6  N   UNL     1      -2.816  -0.015  24.786  0.00  0.00    -0.204 NA
BRANCH   4   3
ATOM      3  C   UNL     1      -3.560  -1.213  24.551  0.00  0.00    +0.144 C 
BRANCH   3   2
ATOM      1  C   UNL     1      -4.215  -2.353  23.991  0.00  0.00    +0.070 C 
ATOM      2  S   UNL     1      -3.567  -2.019  24.378  0.00  0.00    -0.130 S 
ENDBRANCH   3   2
ENDBRANCH   4   3
ENDBRANCH   7   6
TORSDOF 3
ENDMDL
MODEL 5
REMARK VINA RESULT:      -9.6      2.310      3.572
REMARK  Name = 
REMARK  3 active torsions:
REMARK  status: ('A' for Active; 'I' for Inactive)
REMARK    1  A    between atoms: S_2  and  C_3
REMARK    2  A    between atoms: C_3  and  C_4
REMARK    3  A    between atoms: N_6  and  C_7
REMARK                            x       y       z     vdW  Elec       q    Type
REMARK                         _______ _______ _______ _____ _____    ______ ____
ROOT
ATOM      7  C   UNL     1      -1.708   1.700  24.406  0.00  0.00    +0.124 C 
ATOM      8  C   UNL     1      -1.349   2.420  24.593  0.00  0.00    +0.045 C 
ATOM      9  C   UNL     1      -1.938   2.938  24.850  0.00  0.00    +0.096 C 
ATOM     10  N   UNL     1      -2.659   2.540  24.823  0.00  0.00    -0.268 N 
ATOM     11  C   UNL     1      -2.517   1.775  24.549  0.00  0.00    +0.174 C 
ATOM     12  C   UNL     1      -3.058   1.164  24.425  0.00  0.00    +0.265 C 
ATOM     13  O   UNL     1      -2.740   0.456  24.145  0.00  0.00    -0.271 OA
ATOM     14  N   UNL     1      -3.874   1.167  24.545  0.00  0.00    -0.178 NA
ATOM     15  C   UNL     1      -4.352   1.783  24.818  0.00  0.00    +0.079 A 
ATOM     16  C   UNL     1      -5.143   1.555  24.858  0.00  0.00    +0.028 A 
ATOM     17  C   UNL     1      -5.714   2.091  25.119  0.00  0.00    +0.059 A 
ATOM     18 CL   UNL     1      -6.505   1.863  25.158  0.00  0.00    -0.082 Cl
ATOM     19  C   UNL     1      -5.493   2.854  25.339  0.00  0.00    +0.012 A 
ATOM     20  C   UNL     1      -4.701   3.082  25.299  0.00  0.00    +0.007 A 
ATOM     21  C   UNL     1      -4.130   2.546  25.039  0.00  0.00    +0.069 A 
ATOM     22  C   UNL     1      -3.377   2.883  25.041  0.00  0.00    +0.251 C 
ATOM     23  O   UNL     1      -3.336   3.667  25.294  0.00  0.00    -0.270 OA
ENDROOT
BRANCH   7   6
ATOM      4  C   UNL     1      -0.505   1.026  24.035  0.00  0.00    +0.252 C 
ATOM      5  O   UNL     1      -0.069   1.701  24.221  0.00  0.00    -0.272 OA
ATOM      6  N   UNL     1      -1.324   1.026  24.127  0.00  0.00    -0.204 NA
BRANCH   4   3
ATOM      3  C   UNL     1      -0.120   0.351  23.755  0.00  0.00    +0.144 C 
BRANCH   3   2
ATOM      1  C   UNL     1       0.939  -0.229  22.991  0.00  0.00    +0.070 C 
ATOM      2  S   UNL     1       0.618   0.416  23.393  0.00  0.00    -0.130 S 
ENDBRANCH   3   2
ENDBRANCH   4   3
ENDBRANCH   7   6
TORSDOF 3
ENDMDL
MODEL 6
REMARK VINA RESULT:      -9.5      2.370      3.639
REMARK  Name = 
REMARK  3 active torsions:
REMARK  status: ('A' for Active; 'I' for Inactive)
REMARK    1  A    between atoms: S_2  and  C_3
REMARK    2  A    between atoms: C_3  and  C_4
REMARK    3  A    between atoms: N_6  and  C_7
REMARK                            x       y       z     vdW  Elec       q    Type
REMARK                         _______ _______ _______ _____ _____    ______ ____
ROOT
ATOM      7  C   UNL     1      -2.164   0.534  24.395  0.00  0.00    +0.124 C 
ATOM      8  C   UNL     1      -2.453  -0.236  24.471  0.00  0.00    +0.045 C 
ATOM      9  C   UNL     1      -3.243  -0.189  24.705  0.00  0.00    +0.096 C 
ATOM     10  N   UNL     1      -3.442   0.608  24.775  0.00  0.00    -0.268 N 
ATOM     11  C   UNL     1      -2.775   1.055  24.583  0.00  0.00    +0.174 C 
ATOM     12  C   UNL     1      -2.693   1.876  24.570  0.00  0.00    +0.265 C 
ATOM     13  O   UNL     1      -1.948   2.157  24.353  0.00  0.00    -0.271 OA
ATOM     14  N   UNL     1      -3.256   2.453  24.744  0.00  0.00    -0.178 NA
ATOM     15  C   UNL     1      -4.042   2.351  24.975  0.00  0.00    +0.079 A 
ATOM     16  C   UNL     1      -4.417   3.075  25.096  0.00  0.00    +0.028 A 
ATOM     17  C   UNL     1      -5.207   3.097  25.330  0.00  0.00    +0.059 A 
ATOM     18 CL   UNL     1      -5.582   3.822  25.451  0.00  0.00    -0.082 Cl
ATOM     19  C   UNL     1      -5.624   2.394  25.444  0.00  0.00    +0.012 A 
ATOM     20  C   UNL     1      -5.249   1.669  25.323  0.00  0.00    +0.007 A 
ATOM     21  C   UNL     1      -4.458   1.647  25.089  0.00  0.00    +0.069 A 
ATOM     22  C   UNL     1      -4.190   0.872  24.999  0.00  0.00    +0.251 C 
ATOM     23  O   UNL     1      -4.746   0.282  25.156  0.00  0.00    -0.270 OA
ENDROOT
BRANCH   7   6
ATOM      4  C   UNL     1      -0.824   0.162  24.069  0.00  0.00    +0.252 C 
ATOM      5  O   UNL     1      -1.014  -0.631  24.190  0.00  0.00    -0.272 OA
ATOM      6  N   UNL     1      -1.398   0.744  24.171  0.00  0.00    -0.204 NA
BRANCH   4   3
ATOM      3  C   UNL     1      -0.058   0.372  23.845  0.00  0.00    +0.144 C 
BRANCH   3   2
ATOM      1  C   UNL     1       1.119   0.075  23.090  0.00  0.00    +0.070 C 
ATOM      2  S   UNL     1       0.424  -0.174  23.459  0.00  0.00    -0.130 S 
ENDBRANCH   3   2
ENDBRANCH   4   3
ENDBRANCH   7   6
TORSDOF 3
ENDMDL
MODEL 7
REMARK VINA RESULT:      -9.2      2.509      4.599
REMARK  Name = 
REMARK  3 active torsions:
REMARK  status: ('A' for Active; 'I' for Inactive)
REMARK    1  A    between atoms: S_2  and  C_3
REMARK    2  A    between atoms: C_3  and  C_4
REMARK    3  A    between atoms: N_6  and  C_7
REMARK                            x       y       z     vdW  Elec       q    Type
REMARK                         _______ _______ _______ _____ _____    ______ ____
ROOT
ATOM      7  C   UNL     1      -3.268   0.263  24.485  0.00  0.00    +0.124 C 
ATOM      8  C   UNL     1      -2.471   0.442  24.370  0.00  0.00    +0.045 C 
ATOM      9  C   UNL     1      -2.372   1.252  24.487  0.00  0.00    +0.096 C 
ATOM     10  N   UNL     1      -3.107   1.575  24.676  0.00  0.00    -0.268 N 
ATOM     11  C   UNL     1      -3.661   0.963  24.674  0.00  0.00    +0.174 C 
ATOM     12  C   UNL     1      -4.471   1.003  24.828  0.00  0.00    +0.265 C 
ATOM     13  O   UNL     1      -4.879   0.287  24.783  0.00  0.00    -0.271 OA
ATOM     14  N   UNL     1      -4.926   1.662  25.022  0.00  0.00    -0.178 NA
ATOM     15  C   UNL     1      -4.685   2.447  25.110  0.00  0.00    +0.079 A 
ATOM     16  C   UNL     1      -5.318   2.937  25.307  0.00  0.00    +0.028 A 
ATOM     17  C   UNL     1      -5.195   3.744  25.420  0.00  0.00    +0.059 A 
ATOM     18 CL   UNL     1      -5.828   4.235  25.618  0.00  0.00    -0.082 Cl
ATOM     19  C   UNL     1      -4.438   4.063  25.336  0.00  0.00    +0.012 A 
ATOM     20  C   UNL     1      -3.805   3.572  25.138  0.00  0.00    +0.007 A 
ATOM     21  C   UNL     1      -3.928   2.764  25.025  0.00  0.00    +0.069 A 
ATOM     22  C   UNL     1      -3.226   2.376  24.832  0.00  0.00    +0.251 C 
ATOM     23  O   UNL     1      -2.554   2.853  24.789  0.00  0.00    -0.270 OA
ENDROOT
BRANCH   7   6
ATOM      4  C   UNL     1      -3.134  -1.156  24.392  0.00  0.00    +0.252 C 
ATOM      5  O   UNL     1      -2.313  -1.081  24.425  0.00  0.00    -0.272 OA
ATOM      6  N   UNL     1      -3.611  -0.485  24.422  0.00  0.00    -0.204 NA
BRANCH   4   3
ATOM      3  C   UNL     1      -3.477  -1.904  24.329  0.00  0.00    +0.144 C 
BRANCH   3   2
ATOM      1  C   UNL     1      -3.417  -3.316  24.545  0.00  0.00    +0.070 C 
ATOM      2  S   UNL     1      -3.067  -2.570  24.589  0.00  0.00    -0.130 S 
ENDBRANCH   3   2
ENDBRANCH   4   3
ENDBRANCH   7   6
TORSDOF 3
ENDMDL
