MODEL 1
REMARK VINA RESULT:     -10.2      0.000      0.000
REMARK  Name = 
REMARK  6 active torsions:
REMARK  status: ('A' for Active; 'I' for Inactive)
REMARK    1  A    between atoms: C_2  and  N_3
REMARK    2  A    between atoms: N_3  and  C_4
REMARK    3  A    between atoms: N_3  and  C_6
REMARK    4  A    between atoms: C_6  and  C_7
REMARK    5  A    between atoms: C_7  and  C_8
REMARK    6  A    between atoms: C_11  and  C_13
REMARK                            x       y       z     vdW  Elec       q    Type
REMARK                         _______ _______ _______ _____ _____    ______ ____
ROOT
ATOM      8  C   UNL     1      -3.492   1.413  24.873  0.00  0.00    +0.102 A 
ATOM      9  N   UNL     1      -4.304   1.357  25.009  0.00  0.00    -0.081 NA
ATOM     10  O   UNL     1      -4.509   0.558  25.008  0.00  0.00    -0.354 OA
ATOM     11  C   UNL     1      -3.824   0.118  24.871  0.00  0.00    +0.177 A 
ATOM     12  C   UNL     1      -3.195   0.647  24.788  0.00  0.00    +0.058 A 
ENDROOT
BRANCH  11  13
ATOM     13  C   UNL     1      -3.775  -0.704  24.825  0.00  0.00    +0.040 A 
ATOM     14  C   UNL     1      -4.098  -1.100  24.177  0.00  0.00    +0.045 A 
ATOM     15  C   UNL     1      -4.050  -1.922  24.132  0.00  0.00    +0.196 A 
ATOM     16  O   UNL     1      -4.373  -2.319  23.485  0.00  0.00    -0.287 OA
ATOM     17  C   UNL     1      -3.678  -2.348  24.733  0.00  0.00    +0.042 A 
ATOM     18  C   UNL     1      -3.354  -1.951  25.380  0.00  0.00    +0.003 A 
ATOM     19  C   UNL     1      -3.403  -1.129  25.425  0.00  0.00    +0.003 A 
ENDBRANCH  11  13
BRANCH   8   7
ATOM      7  C   UNL     1      -3.054   2.109  24.830  0.00  0.00    +0.069 C 
BRANCH   7   6
ATOM      6  C   UNL     1      -3.380   2.780  24.476  0.00  0.00    +0.106 C 
ATOM     20  C   UNL     1      -3.705   3.450  24.122  0.00  0.00    +0.160 C 
ATOM     21  O   UNL     1      -4.085   2.973  23.566  0.00  0.00    -0.351 OA
ATOM     22  C   UNL     1      -3.759   2.302  23.921  0.00  0.00    +0.160 C 
BRANCH   6   3
ATOM      3  N   UNL     1      -3.000   3.258  25.032  0.00  0.00    -0.271 NA
BRANCH   3   2
ATOM      1  C   UNL     1      -1.790   4.005  25.166  0.00  0.00    +0.019 C 
ATOM      2  C   UNL     1      -2.177   3.284  25.059  0.00  0.00    +0.072 C 
ENDBRANCH   3   2
BRANCH   3   4
ATOM      4  C   UNL     1      -3.445   3.709  25.560  0.00  0.00    +0.072 C 
ATOM      5  C   UNL     1      -3.079   4.070  26.204  0.00  0.00    +0.019 C 
ENDBRANCH   3   4
ENDBRANCH   6   3
ENDBRANCH   7   6
ENDBRANCH   8   7
TORSDOF 6
ENDMDL
