MODEL 1
REMARK VINA RESULT:      -9.0      0.000      0.000
REMARK  Name = 
REMARK  8 active torsions:
REMARK  status: ('A' for Active; 'I' for Inactive)
REMARK    1  A    between atoms: O_2  and  C_3
REMARK    2  A    between atoms: C_3  and  C_4
REMARK    3  A    between atoms: C_9  and  C_11
REMARK    4  A    between atoms: C_11  and  C_12
REMARK    5  A    between atoms: C_25  and  N_33
REMARK    6  A    between atoms: N_33  and  C_35
REMARK    7  A    between atoms: C_35  and  C_36
REMARK    8  A    between atoms: C_36  and  C_37
REMARK                            x       y       z     vdW  Elec       q    Type
REMARK                         _______ _______ _______ _____ _____    ______ ____
ROOT
ATOM     12  C   UNL     1      -3.429   1.191  24.523  0.00  0.00    +0.016 C 
ATOM     13  C   UNL     1      -3.621   0.540  24.992  0.00  0.00    +0.022 C 
ATOM     14  C   UNL     1      -3.075  -0.072  25.089  0.00  0.00    +0.093 C 
ATOM     15  N   UNL     1      -2.358  -0.093  24.762  0.00  0.00    -0.278 N 
ATOM     16  C   UNL     1      -2.148   0.619  24.250  0.00  0.00    +0.098 C 
ATOM     17  C   UNL     1      -2.473   1.333  23.988  0.00  0.00    +0.042 C 
ATOM     18  C   UNL     1      -1.914   1.705  23.508  0.00  0.00    -0.026 C 
ATOM     19  C   UNL     1      -1.246   1.222  23.473  0.00  0.00    +0.016 C 
ATOM     20  C   UNL     1      -0.424   1.197  23.099  0.00  0.00    +0.231 C 
ATOM     21  O   UNL     1      -0.189   0.484  23.402  0.00  0.00    -0.471 OA
ATOM     22  C   UNL     1      -0.126  -0.068  23.693  0.00  0.00    +0.136 A 
ATOM     23  C   UNL     1       0.097   0.569  23.218  0.00  0.00    +0.038 A 
ATOM     24  C   UNL     1       0.841   0.577  22.861  0.00  0.00    +0.018 A 
ATOM     25  C   UNL     1       1.362  -0.052  22.980  0.00  0.00    +0.048 A 
ATOM     26  C   UNL     1       1.139  -0.688  23.455  0.00  0.00    +0.015 A 
ATOM     27  C   UNL     1       0.396  -0.697  23.812  0.00  0.00    +0.030 A 
ATOM     28  C   UNL     1       0.173  -1.334  24.287  0.00  0.00    +0.119 C 
ATOM     29  N   UNL     1      -0.571  -1.342  24.643  0.00  0.00    -0.204 NA
ATOM     30  C   UNL     1      -1.093  -0.713  24.524  0.00  0.00    +0.174 C 
ATOM     31  C   UNL     1      -1.836  -0.721  24.881  0.00  0.00    +0.243 C 
ATOM     32  O   UNL     1      -2.058  -1.358  25.356  0.00  0.00    -0.273 OA
ENDROOT
BRANCH  25  33
ATOM     33  N   UNL     1       2.106  -0.043  22.624  0.00  0.00    -0.305 N 
ATOM     34  C   UNL     1       2.172  -0.101  21.803  0.00  0.00    +0.112 C 
BRANCH  33  35
ATOM     35  C   UNL     1       2.785   0.023  23.087  0.00  0.00    +0.097 C 
BRANCH  35  36
ATOM     36  C   UNL     1       3.523   0.106  22.729  0.00  0.00    +0.067 C 
BRANCH  36  37
ATOM     37  C   UNL     1       4.211   0.028  23.177  0.00  0.00    +0.061 A 
ATOM     38  N   UNL     1       4.396  -0.697  23.525  0.00  0.00    -0.248 NA
ATOM     39  C   UNL     1       5.084  -0.776  23.974  0.00  0.00    +0.098 A 
ATOM     40  C   UNL     1       5.588  -0.129  24.074  0.00  0.00    +0.021 A 
ATOM     41  C   UNL     1       5.403   0.596  23.726  0.00  0.00    +0.003 A 
ATOM     42  C   UNL     1       4.714   0.673  23.277  0.00  0.00    +0.015 A 
ENDBRANCH  36  37
ENDBRANCH  35  36
ENDBRANCH  33  35
ENDBRANCH  25  33
BRANCH  12  11
ATOM     11  C   UNL     1      -3.998   1.785  24.447  0.00  0.00    +0.086 C 
BRANCH  11   9
ATOM      4  C   UNL     1      -5.558   2.668  25.736  0.00  0.00    +0.105 C 
ATOM      5  C   UNL     1      -5.669   3.481  25.820  0.00  0.00    +0.024 C 
ATOM      6  C   UNL     1      -5.109   3.864  25.349  0.00  0.00    +0.023 C 
ATOM      7  C   UNL     1      -4.653   3.288  24.976  0.00  0.00    +0.093 C 
ATOM      8  N   UNL     1      -4.930   2.548  25.214  0.00  0.00    -0.279 N 
ATOM      9  C   UNL     1      -4.632   1.818  24.974  0.00  0.00    +0.226 C 
ATOM     10  O   UNL     1      -4.967   1.121  25.261  0.00  0.00    -0.275 OA
BRANCH   4   3
ATOM      3  C   UNL     1      -5.998   2.078  26.109  0.00  0.00    +0.162 C 
BRANCH   3   2
ATOM      1  C   UNL     1      -6.839   1.657  27.185  0.00  0.00    +0.174 C 
ATOM      2  O   UNL     1      -6.445   2.258  26.779  0.00  0.00    -0.349 OA
ENDBRANCH   3   2
ENDBRANCH   4   3
ENDBRANCH  11   9
ENDBRANCH  12  11
TORSDOF 8
ENDMDL
MODEL 2
REMARK VINA RESULT:      -7.2     15.654     16.431
REMARK  Name = 
REMARK  8 active torsions:
REMARK  status: ('A' for Active; 'I' for Inactive)
REMARK    1  A    between atoms: O_2  and  C_3
REMARK    2  A    between atoms: C_3  and  C_4
REMARK    3  A    between atoms: C_9  and  C_11
REMARK    4  A    between atoms: C_11  and  C_12
REMARK    5  A    between atoms: C_25  and  N_33
REMARK    6  A    between atoms: N_33  and  C_35
REMARK    7  A    between atoms: C_35  and  C_36
REMARK    8  A    between atoms: C_36  and  C_37
REMARK                            x       y       z     vdW  Elec       q    Type
REMARK                         _______ _______ _______ _____ _____    ______ ____
ROOT
ATOM     12  C   UNL     1      -9.088  -9.789  14.145  0.00  0.00    +0.016 C 
ATOM     13  C   UNL     1      -9.748  -9.839  13.653  0.00  0.00    +0.022 C 
ATOM     14  C   UNL     1      -9.657  -9.792  12.835  0.00  0.00    +0.093 C 
ATOM     15  N   UNL     1      -8.968  -9.700  12.462  0.00  0.00    -0.278 N 
ATOM     16  C   UNL     1      -8.245  -9.644  13.000  0.00  0.00    +0.098 C 
ATOM     17  C   UNL     1      -8.046  -9.659  13.802  0.00  0.00    +0.042 C 
ATOM     18  C   UNL     1      -7.227  -9.571  13.862  0.00  0.00    -0.026 C 
ATOM     19  C   UNL     1      -6.922  -9.503  13.098  0.00  0.00    +0.016 C 
ATOM     20  C   UNL     1      -6.133  -9.397  12.671  0.00  0.00    +0.231 C 
ATOM     21  O   UNL     1      -6.419  -9.394  11.914  0.00  0.00    -0.471 OA
ATOM     22  C   UNL     1      -6.758  -9.408  11.387  0.00  0.00    +0.136 A 
ATOM     23  C   UNL     1      -6.077  -9.354  11.849  0.00  0.00    +0.038 A 
ATOM     24  C   UNL     1      -5.341  -9.257  11.491  0.00  0.00    +0.018 A 
ATOM     25  C   UNL     1      -5.285  -9.213  10.668  0.00  0.00    +0.048 A 
ATOM     26  C   UNL     1      -5.966  -9.267  10.205  0.00  0.00    +0.015 A 
ATOM     27  C   UNL     1      -6.702  -9.365  10.564  0.00  0.00    +0.030 A 
ATOM     28  C   UNL     1      -7.382  -9.419  10.100  0.00  0.00    +0.119 C 
ATOM     29  N   UNL     1      -8.119  -9.516  10.459  0.00  0.00    -0.204 NA
ATOM     30  C   UNL     1      -8.175  -9.559  11.282  0.00  0.00    +0.174 C 
ATOM     31  C   UNL     1      -8.911  -9.656  11.640  0.00  0.00    +0.243 C 
ATOM     32  O   UNL     1      -9.591  -9.710  11.177  0.00  0.00    -0.273 OA
ENDROOT
BRANCH  25  33
ATOM     33  N   UNL     1      -4.549  -9.116  10.310  0.00  0.00    -0.305 N 
ATOM     34  C   UNL     1      -4.494  -8.762   9.567  0.00  0.00    +0.112 C 
BRANCH  33  35
ATOM     35  C   UNL     1      -3.865  -9.373  10.695  0.00  0.00    +0.097 C 
BRANCH  35  36
ATOM     36  C   UNL     1      -3.127  -9.256  10.346  0.00  0.00    +0.067 C 
BRANCH  36  37
ATOM     37  C   UNL     1      -2.440  -9.434  10.766  0.00  0.00    +0.061 A 
ATOM     38  N   UNL     1      -2.408 -10.110  11.237  0.00  0.00    -0.248 NA
ATOM     39  C   UNL     1      -1.720 -10.288  11.657  0.00  0.00    +0.098 A 
ATOM     40  C   UNL     1      -1.064  -9.790  11.606  0.00  0.00    +0.021 A 
ATOM     41  C   UNL     1      -1.096  -9.114  11.134  0.00  0.00    +0.003 A 
ATOM     42  C   UNL     1      -1.784  -8.936  10.714  0.00  0.00    +0.015 A 
ENDBRANCH  36  37
ENDBRANCH  35  36
ENDBRANCH  33  35
ENDBRANCH  25  33
BRANCH  12  11
ATOM     11  C   UNL     1      -9.216  -9.840  14.959  0.00  0.00    +0.086 C 
BRANCH  11   9
ATOM      4  C   UNL     1      -9.778  -8.570  16.676  0.00  0.00    +0.105 C 
ATOM      5  C   UNL     1      -9.638  -8.781  17.461  0.00  0.00    +0.024 C 
ATOM      6  C   UNL     1      -9.268  -9.519  17.463  0.00  0.00    +0.023 C 
ATOM      7  C   UNL     1      -9.180  -9.763  16.680  0.00  0.00    +0.093 C 
ATOM      8  N   UNL     1      -9.495  -9.176  16.193  0.00  0.00    -0.279 N 
ATOM      9  C   UNL     1      -9.523  -9.192  15.369  0.00  0.00    +0.226 C 
ATOM     10  O   UNL     1      -9.857  -8.562  14.955  0.00  0.00    -0.275 OA
BRANCH   4   3
ATOM      3  C   UNL     1     -10.139  -7.873  16.419  0.00  0.00    +0.162 C 
BRANCH   3   2
ATOM      1  C   UNL     1     -10.719  -6.601  16.711  0.00  0.00    +0.174 C 
ATOM      2  O   UNL     1     -10.382  -7.307  16.969  0.00  0.00    -0.349 OA
ENDBRANCH   3   2
ENDBRANCH   4   3
ENDBRANCH  11   9
ENDBRANCH  12  11
TORSDOF 8
ENDMDL
MODEL 3
REMARK VINA RESULT:      -7.2     16.493     18.228
REMARK  Name = 
REMARK  8 active torsions:
REMARK  status: ('A' for Active; 'I' for Inactive)
REMARK    1  A    between atoms: O_2  and  C_3
REMARK    2  A    between atoms: C_3  and  C_4
REMARK    3  A    between atoms: C_9  and  C_11
REMARK    4  A    between atoms: C_11  and  C_12
REMARK    5  A    between atoms: C_25  and  N_33
REMARK    6  A    between atoms: N_33  and  C_35
REMARK    7  A    between atoms: C_35  and  C_36
REMARK    8  A    between atoms: C_36  and  C_37
REMARK                            x       y       z     vdW  Elec       q    Type
REMARK                         _______ _______ _______ _____ _____    ______ ____
ROOT
ATOM     12  C   UNL     1      -4.476 -10.549  12.740  0.00  0.00    +0.016 C 
ATOM     13  C   UNL     1      -4.964 -10.781  13.363  0.00  0.00    +0.022 C 
ATOM     14  C   UNL     1      -5.778 -10.658  13.317  0.00  0.00    +0.093 C 
ATOM     15  N   UNL     1      -6.150 -10.325  12.706  0.00  0.00    -0.278 N 
ATOM     16  C   UNL     1      -5.616 -10.071  12.024  0.00  0.00    +0.098 C 
ATOM     17  C   UNL     1      -4.819 -10.068  11.806  0.00  0.00    +0.042 C 
ATOM     18  C   UNL     1      -4.761  -9.724  11.058  0.00  0.00    -0.026 C 
ATOM     19  C   UNL     1      -5.521  -9.516  10.814  0.00  0.00    +0.016 C 
ATOM     20  C   UNL     1      -5.947  -9.134  10.115  0.00  0.00    +0.231 C 
ATOM     21  O   UNL     1      -6.700  -9.179  10.409  0.00  0.00    -0.471 OA
ATOM     22  C   UNL     1      -7.224  -9.269  10.741  0.00  0.00    +0.136 A 
ATOM     23  C   UNL     1      -6.765  -9.026  10.101  0.00  0.00    +0.038 A 
ATOM     24  C   UNL     1      -7.123  -8.674   9.446  0.00  0.00    +0.018 A 
ATOM     25  C   UNL     1      -7.941  -8.566   9.432  0.00  0.00    +0.048 A 
ATOM     26  C   UNL     1      -8.400  -8.809  10.073  0.00  0.00    +0.015 A 
ATOM     27  C   UNL     1      -8.042  -9.161  10.728  0.00  0.00    +0.030 A 
ATOM     28  C   UNL     1      -8.502  -9.404  11.368  0.00  0.00    +0.119 C 
ATOM     29  N   UNL     1      -8.144  -9.756  12.023  0.00  0.00    -0.204 NA
ATOM     30  C   UNL     1      -7.325  -9.865  12.037  0.00  0.00    +0.174 C 
ATOM     31  C   UNL     1      -6.967 -10.216  12.691  0.00  0.00    +0.243 C 
ATOM     32  O   UNL     1      -7.427 -10.460  13.331  0.00  0.00    -0.273 OA
ENDROOT
BRANCH  25  33
ATOM     33  N   UNL     1      -8.299  -8.214   8.778  0.00  0.00    -0.305 N 
ATOM     34  C   UNL     1      -8.505  -8.672   8.124  0.00  0.00    +0.112 C 
BRANCH  33  35
ATOM     35  C   UNL     1      -8.451  -7.403   8.777  0.00  0.00    +0.097 C 
BRANCH  35  36
ATOM     36  C   UNL     1      -8.977  -7.083   8.228  0.00  0.00    +0.067 C 
BRANCH  36  37
ATOM     37  C   UNL     1      -9.303  -6.336   8.356  0.00  0.00    +0.061 A 
ATOM     38  N   UNL     1     -10.121  -6.245   8.403  0.00  0.00    -0.248 NA
ATOM     39  C   UNL     1     -10.447  -5.498   8.530  0.00  0.00    +0.098 A 
ATOM     40  C   UNL     1      -9.954  -4.841   8.612  0.00  0.00    +0.021 A 
ATOM     41  C   UNL     1      -9.134  -4.932   8.565  0.00  0.00    +0.003 A 
ATOM     42  C   UNL     1      -8.810  -5.679   8.437  0.00  0.00    +0.015 A 
ENDBRANCH  36  37
ENDBRANCH  35  36
ENDBRANCH  33  35
ENDBRANCH  25  33
BRANCH  12  11
ATOM     11  C   UNL     1      -3.666 -10.688  12.820  0.00  0.00    +0.086 C 
BRANCH  11   9
ATOM      4  C   UNL     1      -2.040 -10.501  14.303  0.00  0.00    +0.105 C 
ATOM      5  C   UNL     1      -1.240 -10.527  14.104  0.00  0.00    +0.024 C 
ATOM      6  C   UNL     1      -1.185 -10.631  13.287  0.00  0.00    +0.023 C 
ATOM      7  C   UNL     1      -1.950 -10.669  12.982  0.00  0.00    +0.093 C 
ATOM      8  N   UNL     1      -2.480 -10.589  13.610  0.00  0.00    -0.279 N 
ATOM      9  C   UNL     1      -3.302 -10.595  13.555  0.00  0.00    +0.226 C 
ATOM     10  O   UNL     1      -3.762 -10.508  14.235  0.00  0.00    -0.275 OA
BRANCH   4   3
ATOM      3  C   UNL     1      -2.347 -10.404  15.063  0.00  0.00    +0.162 C 
BRANCH   3   2
ATOM      1  C   UNL     1      -2.082 -10.755  16.422  0.00  0.00    +0.174 C 
ATOM      2  O   UNL     1      -1.842 -10.404  15.715  0.00  0.00    -0.349 OA
ENDBRANCH   3   2
ENDBRANCH   4   3
ENDBRANCH  11   9
ENDBRANCH  12  11
TORSDOF 8
ENDMDL
MODEL 4
REMARK VINA RESULT:      -6.8      1.537      2.217
REMARK  Name = 
REMARK  8 active torsions:
REMARK  status: ('A' for Active; 'I' for Inactive)
REMARK    1  A    between atoms: O_2  and  C_3
REMARK    2  A    between atoms: C_3  and  C_4
REMARK    3  A    between atoms: C_9  and  C_11
REMARK    4  A    between atoms: C_11  and  C_12
REMARK    5  A    between atoms: C_25  and  N_33
REMARK    6  A    between atoms: N_33  and  C_35
REMARK    7  A    between atoms: C_35  and  C_36
REMARK    8  A    between atoms: C_36  and  C_37
REMARK                            x       y       z     vdW  Elec       q    Type
REMARK                         _______ _______ _______ _____ _____    ______ ____
ROOT
ATOM     12  C   UNL     1      -3.745   3.126  24.844  0.00  0.00    +0.016 C 
ATOM     13  C   UNL     1      -3.469   3.723  25.341  0.00  0.00    +0.022 C 
ATOM     14  C   UNL     1      -2.660   3.796  25.486  0.00  0.00    +0.093 C 
ATOM     15  N   UNL     1      -2.102   3.328  25.182  0.00  0.00    -0.278 N 
ATOM     16  C   UNL     1      -2.405   2.675  24.638  0.00  0.00    +0.098 C 
ATOM     17  C   UNL     1      -3.113   2.380  24.330  0.00  0.00    +0.042 C 
ATOM     18  C   UNL     1      -2.931   1.736  23.847  0.00  0.00    -0.026 C 
ATOM     19  C   UNL     1      -2.112   1.634  23.856  0.00  0.00    +0.016 C 
ATOM     20  C   UNL     1      -1.474   1.099  23.508  0.00  0.00    +0.231 C 
ATOM     21  O   UNL     1      -0.834   1.452  23.854  0.00  0.00    -0.471 OA
ATOM     22  C   UNL     1      -0.429   1.807  24.176  0.00  0.00    +0.136 A 
ATOM     23  C   UNL     1      -0.672   1.199  23.674  0.00  0.00    +0.038 A 
ATOM     24  C   UNL     1      -0.115   0.692  23.339  0.00  0.00    +0.018 A 
ATOM     25  C   UNL     1       0.688   0.794  23.506  0.00  0.00    +0.048 A 
ATOM     26  C   UNL     1       0.931   1.402  24.007  0.00  0.00    +0.015 A 
ATOM     27  C   UNL     1       0.373   1.909  24.343  0.00  0.00    +0.030 A 
ATOM     28  C   UNL     1       0.618   2.516  24.844  0.00  0.00    +0.119 C 
ATOM     29  N   UNL     1       0.059   3.023  25.180  0.00  0.00    -0.204 NA
ATOM     30  C   UNL     1      -0.743   2.922  25.013  0.00  0.00    +0.174 C 
ATOM     31  C   UNL     1      -1.301   3.429  25.348  0.00  0.00    +0.243 C 
ATOM     32  O   UNL     1      -1.057   4.037  25.849  0.00  0.00    -0.273 OA
ENDROOT
BRANCH  25  33
ATOM     33  N   UNL     1       1.245   0.287  23.170  0.00  0.00    -0.305 N 
ATOM     34  C   UNL     1       1.000  -0.398  22.781  0.00  0.00    +0.112 C 
BRANCH  33  35
ATOM     35  C   UNL     1       2.049   0.464  23.224  0.00  0.00    +0.097 C 
BRANCH  35  36
ATOM     36  C   UNL     1       2.595   0.050  22.765  0.00  0.00    +0.067 C 
BRANCH  36  37
ATOM     37  C   UNL     1       3.403   0.129  22.913  0.00  0.00    +0.061 A 
ATOM     38  N   UNL     1       3.813  -0.477  23.293  0.00  0.00    -0.248 NA
ATOM     39  C   UNL     1       4.621  -0.399  23.441  0.00  0.00    +0.098 A 
ATOM     40  C   UNL     1       5.019   0.286  23.208  0.00  0.00    +0.021 A 
ATOM     41  C   UNL     1       4.608   0.892  22.828  0.00  0.00    +0.003 A 
ATOM     42  C   UNL     1       3.800   0.813  22.680  0.00  0.00    +0.015 A 
ENDBRANCH  36  37
ENDBRANCH  35  36
ENDBRANCH  33  35
ENDBRANCH  25  33
BRANCH  12  11
ATOM     11  C   UNL     1      -4.560   3.082  24.721  0.00  0.00    +0.086 C 
BRANCH  11   9
ATOM      4  C   UNL     1      -6.241   1.952  25.602  0.00  0.00    +0.105 C 
ATOM      5  C   UNL     1      -6.810   1.561  25.151  0.00  0.00    +0.024 C 
ATOM      6  C   UNL     1      -6.625   1.676  24.355  0.00  0.00    +0.023 C 
ATOM      7  C   UNL     1      -5.944   2.138  24.314  0.00  0.00    +0.093 C 
ATOM      8  N   UNL     1      -5.706   2.309  25.086  0.00  0.00    -0.279 N 
ATOM      9  C   UNL     1      -5.049   2.758  25.303  0.00  0.00    +0.226 C 
ATOM     10  O   UNL     1      -4.879   2.883  26.100  0.00  0.00    -0.275 OA
BRANCH   4   3
ATOM      3  C   UNL     1      -6.213   1.982  26.427  0.00  0.00    +0.162 C 
BRANCH   3   2
ATOM      1  C   UNL     1      -6.660   1.484  27.689  0.00  0.00    +0.174 C 
ATOM      2  O   UNL     1      -6.761   1.557  26.874  0.00  0.00    -0.349 OA
ENDBRANCH   3   2
ENDBRANCH   4   3
ENDBRANCH  11   9
ENDBRANCH  12  11
TORSDOF 8
ENDMDL
MODEL 5
REMARK VINA RESULT:      -6.8      1.387      1.985
REMARK  Name = 
REMARK  8 active torsions:
REMARK  status: ('A' for Active; 'I' for Inactive)
REMARK    1  A    between atoms: O_2  and  C_3
REMARK    2  A    between atoms: C_3  and  C_4
REMARK    3  A    between atoms: C_9  and  C_11
REMARK    4  A    between atoms: C_11  and  C_12
REMARK    5  A    between atoms: C_25  and  N_33
REMARK    6  A    between atoms: N_33  and  C_35
REMARK    7  A    between atoms: C_35  and  C_36
REMARK    8  A    between atoms: C_36  and  C_37
REMARK                            x       y       z     vdW  Elec       q    Type
REMARK                         _______ _______ _______ _____ _____    ______ ____
ROOT
ATOM     12  C   UNL     1      -3.118   2.061  24.966  0.00  0.00    +0.016 C 
ATOM     13  C   UNL     1      -2.896   2.764  25.335  0.00  0.00    +0.022 C 
ATOM     14  C   UNL     1      -2.107   3.004  25.324  0.00  0.00    +0.093 C 
ATOM     15  N   UNL     1      -1.519   2.606  24.978  0.00  0.00    -0.278 N 
ATOM     16  C   UNL     1      -1.763   1.837  24.575  0.00  0.00    +0.098 C 
ATOM     17  C   UNL     1      -2.434   1.376  24.434  0.00  0.00    +0.042 C 
ATOM     18  C   UNL     1      -2.201   0.713  24.001  0.00  0.00    -0.026 C 
ATOM     19  C   UNL     1      -1.387   0.764  23.875  0.00  0.00    +0.016 C 
ATOM     20  C   UNL     1      -0.714   0.310  23.480  0.00  0.00    +0.231 C 
ATOM     21  O   UNL     1      -0.114   0.820  23.664  0.00  0.00    -0.471 OA
ATOM     22  C   UNL     1       0.254   1.286  23.866  0.00  0.00    +0.136 A 
ATOM     23  C   UNL     1       0.066   0.578  23.487  0.00  0.00    +0.038 A 
ATOM     24  C   UNL     1       0.657   0.138  23.117  0.00  0.00    +0.018 A 
ATOM     25  C   UNL     1       1.437   0.407  23.124  0.00  0.00    +0.048 A 
ATOM     26  C   UNL     1       1.626   1.115  23.503  0.00  0.00    +0.015 A 
ATOM     27  C   UNL     1       1.035   1.555  23.874  0.00  0.00    +0.030 A 
ATOM     28  C   UNL     1       1.224   2.263  24.252  0.00  0.00    +0.119 C 
ATOM     29  N   UNL     1       0.632   2.704  24.623  0.00  0.00    -0.204 NA
ATOM     30  C   UNL     1      -0.148   2.435  24.615  0.00  0.00    +0.174 C 
ATOM     31  C   UNL     1      -0.739   2.874  24.986  0.00  0.00    +0.243 C 
ATOM     32  O   UNL     1      -0.550   3.583  25.364  0.00  0.00    -0.273 OA
ENDROOT
BRANCH  25  33
ATOM     33  N   UNL     1       2.028  -0.033  22.754  0.00  0.00    -0.305 N 
ATOM     34  C   UNL     1       1.913  -0.316  21.987  0.00  0.00    +0.112 C 
BRANCH  33  35
ATOM     35  C   UNL     1       2.735  -0.190  23.149  0.00  0.00    +0.097 C 
BRANCH  35  36
ATOM     36  C   UNL     1       3.439  -0.255  22.725  0.00  0.00    +0.067 C 
BRANCH  36  37
ATOM     37  C   UNL     1       4.161  -0.280  23.125  0.00  0.00    +0.061 A 
ATOM     38  N   UNL     1       4.362  -0.942  23.573  0.00  0.00    -0.248 NA
ATOM     39  C   UNL     1       5.083  -0.966  23.973  0.00  0.00    +0.098 A 
ATOM     40  C   UNL     1       5.605  -0.328  23.924  0.00  0.00    +0.021 A 
ATOM     41  C   UNL     1       5.403   0.335  23.474  0.00  0.00    +0.003 A 
ATOM     42  C   UNL     1       4.681   0.358  23.075  0.00  0.00    +0.015 A 
ENDBRANCH  36  37
ENDBRANCH  35  36
ENDBRANCH  33  35
ENDBRANCH  25  33
BRANCH  12  11
ATOM     11  C   UNL     1      -3.916   1.852  24.996  0.00  0.00    +0.086 C 
BRANCH  11   9
ATOM      4  C   UNL     1      -5.860   2.762  25.516  0.00  0.00    +0.105 C 
ATOM      5  C   UNL     1      -6.490   2.335  25.833  0.00  0.00    +0.024 C 
ATOM      6  C   UNL     1      -6.251   1.548  25.907  0.00  0.00    +0.023 C 
ATOM      7  C   UNL     1      -5.475   1.490  25.637  0.00  0.00    +0.093 C 
ATOM      8  N   UNL     1      -5.232   2.241  25.395  0.00  0.00    -0.279 N 
ATOM      9  C   UNL     1      -4.493   2.436  25.086  0.00  0.00    +0.226 C 
ATOM     10  O   UNL     1      -4.329   3.215  24.867  0.00  0.00    -0.275 OA
BRANCH   4   3
ATOM      3  C   UNL     1      -5.858   3.571  25.350  0.00  0.00    +0.162 C 
BRANCH   3   2
ATOM      1  C   UNL     1      -6.288   4.896  25.665  0.00  0.00    +0.174 C 
ATOM      2  O   UNL     1      -6.345   4.082  25.778  0.00  0.00    -0.349 OA
ENDBRANCH   3   2
ENDBRANCH   4   3
ENDBRANCH  11   9
ENDBRANCH  12  11
TORSDOF 8
ENDMDL
MODEL 6
REMARK VINA RESULT:      -6.6     14.812     15.559
REMARK  Name = 
REMARK  8 active torsions:
REMARK  status: ('A' for Active; 'I' for Inactive)
REMARK    1  A    between atoms: O_2  and  C_3
REMARK    2  A    between atoms: C_3  and  C_4
REMARK    3  A    between atoms: C_9  and  C_11
REMARK    4  A    between atoms: C_11  and  C_12
REMARK    5  A    between atoms: C_25  and  N_33
REMARK    6  A    between atoms: N_33  and  C_35
REMARK    7  A    between atoms: C_35  and  C_36
REMARK    8  A    between atoms: C_36  and  C_37
REMARK                            x       y       z     vdW  Elec       q    Type
REMARK                         _______ _______ _______ _____ _____    ______ ____
ROOT
ATOM     12  C   UNL     1      -9.183 -10.008  14.652  0.00  0.00    +0.016 C 
ATOM     13  C   UNL     1      -9.580  -9.923  13.934  0.00  0.00    +0.022 C 
ATOM     14  C   UNL     1      -9.155  -9.917  13.226  0.00  0.00    +0.093 C 
ATOM     15  N   UNL     1      -8.372  -9.988  13.170  0.00  0.00    -0.278 N 
ATOM     16  C   UNL     1      -7.937 -10.081  13.956  0.00  0.00    +0.098 C 
ATOM     17  C   UNL     1      -8.090 -10.120  14.767  0.00  0.00    +0.042 C 
ATOM     18  C   UNL     1      -7.368 -10.214  15.157  0.00  0.00    -0.026 C 
ATOM     19  C   UNL     1      -6.772 -10.234  14.587  0.00  0.00    +0.016 C 
ATOM     20  C   UNL     1      -5.875 -10.315  14.522  0.00  0.00    +0.231 C 
ATOM     21  O   UNL     1      -5.819 -10.267  13.716  0.00  0.00    -0.471 OA
ATOM     22  C   UNL     1      -5.908 -10.218  13.097  0.00  0.00    +0.136 A 
ATOM     23  C   UNL     1      -5.480 -10.305  13.797  0.00  0.00    +0.038 A 
ATOM     24  C   UNL     1      -4.660 -10.381  13.773  0.00  0.00    +0.018 A 
ATOM     25  C   UNL     1      -4.266 -10.371  13.047  0.00  0.00    +0.048 A 
ATOM     26  C   UNL     1      -4.694 -10.284  12.347  0.00  0.00    +0.015 A 
ATOM     27  C   UNL     1      -5.514 -10.208  12.371  0.00  0.00    +0.030 A 
ATOM     28  C   UNL     1      -5.941 -10.121  11.671  0.00  0.00    +0.119 C 
ATOM     29  N   UNL     1      -6.763 -10.044  11.695  0.00  0.00    -0.204 NA
ATOM     30  C   UNL     1      -7.157 -10.054  12.421  0.00  0.00    +0.174 C 
ATOM     31  C   UNL     1      -7.977  -9.978  12.445  0.00  0.00    +0.243 C 
ATOM     32  O   UNL     1      -8.404  -9.891  11.745  0.00  0.00    -0.273 OA
ENDROOT
BRANCH  25  33
ATOM     33  N   UNL     1      -3.445 -10.448  13.023  0.00  0.00    -0.305 N 
ATOM     34  C   UNL     1      -3.044 -10.373  12.306  0.00  0.00    +0.112 C 
BRANCH  33  35
ATOM     35  C   UNL     1      -3.024 -10.598  13.716  0.00  0.00    +0.097 C 
BRANCH  35  36
ATOM     36  C   UNL     1      -2.224 -10.403  13.764  0.00  0.00    +0.067 C 
BRANCH  36  37
ATOM     37  C   UNL     1      -1.868 -10.301  14.501  0.00  0.00    +0.061 A 
ATOM     38  N   UNL     1      -2.087 -10.780  15.135  0.00  0.00    -0.248 NA
ATOM     39  C   UNL     1      -1.730 -10.678  15.872  0.00  0.00    +0.098 A 
ATOM     40  C   UNL     1      -1.154 -10.095  15.975  0.00  0.00    +0.021 A 
ATOM     41  C   UNL     1      -0.935  -9.615  15.340  0.00  0.00    +0.003 A 
ATOM     42  C   UNL     1      -1.292  -9.719  14.603  0.00  0.00    +0.015 A 
ENDBRANCH  36  37
ENDBRANCH  35  36
ENDBRANCH  33  35
ENDBRANCH  25  33
BRANCH  12  11
ATOM     11  C   UNL     1      -9.639 -10.010  15.340  0.00  0.00    +0.086 C 
BRANCH  11   9
ATOM      4  C   UNL     1     -10.479  -8.576  16.794  0.00  0.00    +0.105 C 
ATOM      5  C   UNL     1     -10.613  -8.760  17.586  0.00  0.00    +0.024 C 
ATOM      6  C   UNL     1     -10.381  -9.543  17.708  0.00  0.00    +0.023 C 
ATOM      7  C   UNL     1     -10.104  -9.841  16.991  0.00  0.00    +0.093 C 
ATOM      8  N   UNL     1     -10.164  -9.243  16.425  0.00  0.00    -0.279 N 
ATOM      9  C   UNL     1      -9.948  -9.302  15.632  0.00  0.00    +0.226 C 
ATOM     10  O   UNL     1     -10.041  -8.654  15.129  0.00  0.00    -0.275 OA
BRANCH   4   3
ATOM      3  C   UNL     1     -10.633  -7.849  16.433  0.00  0.00    +0.162 C 
BRANCH   3   2
ATOM      1  C   UNL     1     -10.601  -6.426  16.555  0.00  0.00    +0.174 C 
ATOM      2  O   UNL     1     -10.718  -7.169  16.892  0.00  0.00    -0.349 OA
ENDBRANCH   3   2
ENDBRANCH   4   3
ENDBRANCH  11   9
ENDBRANCH  12  11
TORSDOF 8
ENDMDL
MODEL 7
REMARK VINA RESULT:      -6.3      1.439      7.533
REMARK  Name = 
REMARK  8 active torsions:
REMARK  status: ('A' for Active; 'I' for Inactive)
REMARK    1  A    between atoms: O_2  and  C_3
REMARK    2  A    between atoms: C_3  and  C_4
REMARK    3  A    between atoms: C_9  and  C_11
REMARK    4  A    between atoms: C_11  and  C_12
REMARK    5  A    between atoms: C_25  and  N_33
REMARK    6  A    between atoms: N_33  and  C_35
REMARK    7  A    between atoms: C_35  and  C_36
REMARK    8  A    between atoms: C_36  and  C_37
REMARK                            x       y       z     vdW  Elec       q    Type
REMARK                         _______ _______ _______ _____ _____    ______ ____
ROOT
ATOM     12  C   UNL     1       1.491   0.093  23.063  0.00  0.00    +0.016 C 
ATOM     13  C   UNL     1       1.297  -0.700  23.180  0.00  0.00    +0.022 C 
ATOM     14  C   UNL     1       0.584  -0.900  23.545  0.00  0.00    +0.093 C 
ATOM     15  N   UNL     1       0.049  -0.381  23.804  0.00  0.00    -0.278 N 
ATOM     16  C   UNL     1       0.262   0.487  23.676  0.00  0.00    +0.098 C 
ATOM     17  C   UNL     1       0.866   0.954  23.360  0.00  0.00    +0.042 C 
ATOM     18  C   UNL     1       0.649   1.745  23.452  0.00  0.00    -0.026 C 
ATOM     19  C   UNL     1      -0.087   1.766  23.824  0.00  0.00    +0.016 C 
ATOM     20  C   UNL     1      -0.700   2.359  24.121  0.00  0.00    +0.231 C 
ATOM     21  O   UNL     1      -1.238   1.826  24.406  0.00  0.00    -0.471 OA
ATOM     22  C   UNL     1      -1.568   1.323  24.584  0.00  0.00    +0.136 A 
ATOM     23  C   UNL     1      -1.404   2.125  24.483  0.00  0.00    +0.038 A 
ATOM     24  C   UNL     1      -1.943   2.693  24.742  0.00  0.00    +0.018 A 
ATOM     25  C   UNL     1      -2.647   2.458  25.104  0.00  0.00    +0.048 A 
ATOM     26  C   UNL     1      -2.811   1.656  25.206  0.00  0.00    +0.015 A 
ATOM     27  C   UNL     1      -2.272   1.088  24.946  0.00  0.00    +0.030 A 
ATOM     28  C   UNL     1      -2.437   0.286  25.048  0.00  0.00    +0.119 C 
ATOM     29  N   UNL     1      -1.897  -0.282  24.788  0.00  0.00    -0.204 NA
ATOM     30  C   UNL     1      -1.193  -0.047  24.426  0.00  0.00    +0.174 C 
ATOM     31  C   UNL     1      -0.654  -0.615  24.166  0.00  0.00    +0.243 C 
ATOM     32  O   UNL     1      -0.819  -1.417  24.268  0.00  0.00    -0.273 OA
ENDROOT
BRANCH  25  33
ATOM     33  N   UNL     1      -3.185   3.026  25.364  0.00  0.00    -0.305 N 
ATOM     34  C   UNL     1      -2.935   3.638  25.857  0.00  0.00    +0.112 C 
BRANCH  33  35
ATOM     35  C   UNL     1      -3.976   2.981  25.132  0.00  0.00    +0.097 C 
BRANCH  35  36
ATOM     36  C   UNL     1      -4.572   3.217  25.651  0.00  0.00    +0.067 C 
BRANCH  36  37
ATOM     37  C   UNL     1      -5.288   2.807  25.669  0.00  0.00    +0.061 A 
ATOM     38  N   UNL     1      -5.655   2.650  26.391  0.00  0.00    -0.248 NA
ATOM     39  C   UNL     1      -6.371   2.240  26.409  0.00  0.00    +0.098 A 
ATOM     40  C   UNL     1      -6.721   1.988  25.705  0.00  0.00    +0.021 A 
ATOM     41  C   UNL     1      -6.354   2.146  24.983  0.00  0.00    +0.003 A 
ATOM     42  C   UNL     1      -5.638   2.556  24.966  0.00  0.00    +0.015 A 
ENDBRANCH  36  37
ENDBRANCH  35  36
ENDBRANCH  33  35
ENDBRANCH  25  33
BRANCH  12  11
ATOM     11  C   UNL     1       2.212   0.257  22.694  0.00  0.00    +0.086 C 
BRANCH  11   9
ATOM      4  C   UNL     1       4.357   0.114  23.197  0.00  0.00    +0.105 C 
ATOM      5  C   UNL     1       4.907   0.698  23.005  0.00  0.00    +0.024 C 
ATOM      6  C   UNL     1       4.508   1.304  22.612  0.00  0.00    +0.023 C 
ATOM      7  C   UNL     1       3.712   1.094  22.561  0.00  0.00    +0.093 C 
ATOM      8  N   UNL     1       3.618   0.358  22.923  0.00  0.00    -0.279 N 
ATOM      9  C   UNL     1       2.912  -0.059  22.998  0.00  0.00    +0.226 C 
ATOM     10  O   UNL     1       2.903  -0.793  23.376  0.00  0.00    -0.275 OA
BRANCH   4   3
ATOM      3  C   UNL     1       4.519  -0.591  23.594  0.00  0.00    +0.162 C 
BRANCH   3   2
ATOM      1  C   UNL     1       5.448  -1.455  24.251  0.00  0.00    +0.174 C 
ATOM      2  O   UNL     1       5.272  -0.729  23.902  0.00  0.00    -0.349 OA
ENDBRANCH   3   2
ENDBRANCH   4   3
ENDBRANCH  11   9
ENDBRANCH  12  11
TORSDOF 8
ENDMDL
