MODEL 1
REMARK VINA RESULT:     -11.0      0.000      0.000
REMARK  Name = 
REMARK  4 active torsions:
REMARK  status: ('A' for Active; 'I' for Inactive)
REMARK    1  A    between atoms: C_7  and  C_8
REMARK    2  A    between atoms: C_10  and  C_11
REMARK    3  A    between atoms: C_11  and  S_12
REMARK    4  A    between atoms: S_12  and  C_15
REMARK                            x       y       z     vdW  Elec       q    Type
REMARK                         _______ _______ _______ _____ _____    ______ ____
ROOT
ATOM      8  C   UNL     1      -2.658   2.569  24.532  0.00  0.00    +0.251 A 
ATOM      9  N   UNL     1      -3.244   2.148  24.931  0.00  0.00    -0.192 NA
ATOM     10  C   UNL     1      -3.594   1.627  24.394  0.00  0.00    +0.205 A 
ATOM     22  N   UNL     1      -3.223   1.727  23.664  0.00  0.00    -0.059 NA
ATOM     23  O   UNL     1      -2.645   2.309  23.749  0.00  0.00    -0.336 OA
ENDROOT
BRANCH   8   7
ATOM      1  C   UNL     1      -1.009   2.311  25.191  0.00  0.00    +0.090 C 
ATOM      2  N   UNL     1      -1.412   3.030  25.161  0.00  0.00    -0.263 NA
ATOM      3  C   UNL     1      -1.127   3.757  25.430  0.00  0.00    +0.106 C 
ATOM      4  C   UNL     1      -1.710   4.325  25.292  0.00  0.00    +0.170 C 
ATOM      5  O   UNL     1      -1.658   5.127  25.476  0.00  0.00    -0.222 OA
ATOM      6  C   UNL     1      -2.354   3.949  24.939  0.00  0.00    +0.060 C 
ATOM      7  C   UNL     1      -2.170   3.149  24.858  0.00  0.00    +0.140 C 
ENDBRANCH   8   7
BRANCH  10  11
ATOM     11  C   UNL     1      -4.206   1.100  24.560  0.00  0.00    +0.224 C 
BRANCH  11  12
ATOM     12  S   UNL     1      -4.049   0.292  24.626  0.00  0.00    +0.016 S 
ATOM     13  O   UNL     1      -4.089   0.352  25.448  0.00  0.00    -0.168 OA
ATOM     14  O   UNL     1      -4.008   0.231  23.805  0.00  0.00    -0.168 OA
BRANCH  12  15
ATOM     15  C   UNL     1      -3.892  -0.515  24.694  0.00  0.00    +0.106 A 
ATOM     16  C   UNL     1      -4.087  -1.026  24.077  0.00  0.00    +0.018 A 
ATOM     17  C   UNL     1      -3.930  -1.833  24.144  0.00  0.00    -0.003 A 
ATOM     18  C   UNL     1      -3.578  -2.129  24.828  0.00  0.00    -0.022 A 
ATOM     19  C   UNL     1      -3.420  -2.936  24.896  0.00  0.00    +0.031 C 
ATOM     20  C   UNL     1      -3.382  -1.618  25.446  0.00  0.00    -0.003 A 
ATOM     21  C   UNL     1      -3.539  -0.811  25.379  0.00  0.00    +0.018 A 
ENDBRANCH  12  15
ENDBRANCH  11  12
ENDBRANCH  10  11
TORSDOF 4
ENDMDL
MODEL 2
REMARK VINA RESULT:     -10.4      1.382      4.737
REMARK  Name = 
REMARK  4 active torsions:
REMARK  status: ('A' for Active; 'I' for Inactive)
REMARK    1  A    between atoms: C_7  and  C_8
REMARK    2  A    between atoms: C_10  and  C_11
REMARK    3  A    between atoms: C_11  and  S_12
REMARK    4  A    between atoms: S_12  and  C_15
REMARK                            x       y       z     vdW  Elec       q    Type
REMARK                         _______ _______ _______ _____ _____    ______ ____
ROOT
ATOM      8  C   UNL     1      -4.179   0.039  24.758  0.00  0.00    +0.251 A 
ATOM      9  N   UNL     1      -3.979   0.662  24.256  0.00  0.00    -0.192 NA
ATOM     10  C   UNL     1      -4.281   1.359  24.580  0.00  0.00    +0.205 A 
ATOM     22  N   UNL     1      -4.667   1.165  25.283  0.00  0.00    -0.059 NA
ATOM     23  O   UNL     1      -4.604   0.350  25.393  0.00  0.00    -0.336 OA
ENDROOT
BRANCH   8   7
ATOM      1  C   UNL     1      -2.947  -0.889  25.676  0.00  0.00    +0.090 C 
ATOM      2  N   UNL     1      -3.421  -1.182  25.067  0.00  0.00    -0.263 NA
ATOM      3  C   UNL     1      -3.411  -1.953  24.773  0.00  0.00    +0.106 C 
ATOM      4  C   UNL     1      -3.972  -2.003  24.169  0.00  0.00    +0.170 C 
ATOM      5  O   UNL     1      -4.146  -2.675  23.724  0.00  0.00    -0.222 OA
ATOM      6  C   UNL     1      -4.328  -1.263  24.090  0.00  0.00    +0.060 C 
ATOM      7  C   UNL     1      -3.987  -0.755  24.645  0.00  0.00    +0.140 C 
ENDBRANCH   8   7
BRANCH  10  11
ATOM     11  C   UNL     1      -4.209   2.114  24.258  0.00  0.00    +0.224 C 
BRANCH  11  12
ATOM     12  S   UNL     1      -3.564   2.590  24.461  0.00  0.00    +0.016 S 
ATOM     13  O   UNL     1      -3.180   2.363  23.767  0.00  0.00    -0.168 OA
ATOM     14  O   UNL     1      -3.949   2.816  25.154  0.00  0.00    -0.168 OA
BRANCH  12  15
ATOM     15  C   UNL     1      -2.921   3.064  24.662  0.00  0.00    +0.106 A 
ATOM     16  C   UNL     1      -2.167   2.874  24.387  0.00  0.00    +0.018 A 
ATOM     17  C   UNL     1      -1.523   3.349  24.588  0.00  0.00    -0.003 A 
ATOM     18  C   UNL     1      -1.633   4.014  25.064  0.00  0.00    -0.022 A 
ATOM     19  C   UNL     1      -0.989   4.489  25.266  0.00  0.00    +0.031 C 
ATOM     20  C   UNL     1      -2.388   4.204  25.339  0.00  0.00    -0.003 A 
ATOM     21  C   UNL     1      -3.031   3.729  25.138  0.00  0.00    +0.018 A 
ENDBRANCH  12  15
ENDBRANCH  11  12
ENDBRANCH  10  11
TORSDOF 4
ENDMDL
MODEL 3
REMARK VINA RESULT:     -10.2      1.441      1.858
REMARK  Name = 
REMARK  4 active torsions:
REMARK  status: ('A' for Active; 'I' for Inactive)
REMARK    1  A    between atoms: C_7  and  C_8
REMARK    2  A    between atoms: C_10  and  C_11
REMARK    3  A    between atoms: C_11  and  S_12
REMARK    4  A    between atoms: S_12  and  C_15
REMARK                            x       y       z     vdW  Elec       q    Type
REMARK                         _______ _______ _______ _____ _____    ______ ____
ROOT
ATOM      8  C   UNL     1      -1.449   2.236  24.771  0.00  0.00    +0.251 A 
ATOM      9  N   UNL     1      -1.391   1.641  25.338  0.00  0.00    -0.192 NA
ATOM     10  C   UNL     1      -1.135   0.952  24.961  0.00  0.00    +0.205 A 
ATOM     22  N   UNL     1      -1.035   1.123  24.160  0.00  0.00    -0.059 NA
ATOM     23  O   UNL     1      -1.229   1.916  24.042  0.00  0.00    -0.336 OA
ENDROOT
BRANCH   8   7
ATOM      1  C   UNL     1      -3.129   2.860  24.672  0.00  0.00    +0.090 C 
ATOM      2  N   UNL     1      -2.458   3.301  24.862  0.00  0.00    -0.263 NA
ATOM      3  C   UNL     1      -2.442   4.107  25.039  0.00  0.00    +0.106 C 
ATOM      4  C   UNL     1      -1.659   4.318  25.195  0.00  0.00    +0.170 C 
ATOM      5  O   UNL     1      -1.391   5.072  25.396  0.00  0.00    -0.222 OA
ATOM      6  C   UNL     1      -1.192   3.643  25.113  0.00  0.00    +0.060 C 
ATOM      7  C   UNL     1      -1.686   3.015  24.907  0.00  0.00    +0.140 C 
ENDBRANCH   8   7
BRANCH  10  11
ATOM     11  C   UNL     1      -1.002   0.223  25.321  0.00  0.00    +0.224 C 
BRANCH  11  12
ATOM     12  S   UNL     1      -1.523  -0.404  25.189  0.00  0.00    +0.016 S 
ATOM     13  O   UNL     1      -1.919  -0.221  25.889  0.00  0.00    -0.168 OA
ATOM     14  O   UNL     1      -1.127  -0.587  24.489  0.00  0.00    -0.168 OA
BRANCH  12  15
ATOM     15  C   UNL     1      -2.044  -1.030  25.058  0.00  0.00    +0.106 A 
ATOM     16  C   UNL     1      -2.817  -0.988  25.340  0.00  0.00    +0.018 A 
ATOM     17  C   UNL     1      -3.338  -1.615  25.209  0.00  0.00    -0.003 A 
ATOM     18  C   UNL     1      -3.085  -2.282  24.795  0.00  0.00    -0.022 A 
ATOM     19  C   UNL     1      -3.606  -2.908  24.664  0.00  0.00    +0.031 C 
ATOM     20  C   UNL     1      -2.311  -2.324  24.513  0.00  0.00    -0.003 A 
ATOM     21  C   UNL     1      -1.790  -1.697  24.645  0.00  0.00    +0.018 A 
ENDBRANCH  12  15
ENDBRANCH  11  12
ENDBRANCH  10  11
TORSDOF 4
ENDMDL
MODEL 4
REMARK VINA RESULT:      -9.9      1.504      1.963
REMARK  Name = 
REMARK  4 active torsions:
REMARK  status: ('A' for Active; 'I' for Inactive)
REMARK    1  A    between atoms: C_7  and  C_8
REMARK    2  A    between atoms: C_10  and  C_11
REMARK    3  A    between atoms: C_11  and  S_12
REMARK    4  A    between atoms: S_12  and  C_15
REMARK                            x       y       z     vdW  Elec       q    Type
REMARK                         _______ _______ _______ _____ _____    ______ ____
ROOT
ATOM      8  C   UNL     1      -3.438   2.345  24.783  0.00  0.00    +0.251 A 
ATOM      9  N   UNL     1      -3.131   1.701  25.197  0.00  0.00    -0.192 NA
ATOM     10  C   UNL     1      -2.661   1.264  24.678  0.00  0.00    +0.205 A 
ATOM     22  N   UNL     1      -2.678   1.638  23.942  0.00  0.00    -0.059 NA
ATOM     23  O   UNL     1      -3.158   2.306  24.007  0.00  0.00    -0.336 OA
ENDROOT
BRANCH   8   7
ATOM      1  C   UNL     1      -2.932   3.954  25.395  0.00  0.00    +0.090 C 
ATOM      2  N   UNL     1      -3.705   3.665  25.371  0.00  0.00    -0.263 NA
ATOM      3  C   UNL     1      -4.381   4.066  25.624  0.00  0.00    +0.106 C 
ATOM      4  C   UNL     1      -5.031   3.573  25.499  0.00  0.00    +0.170 C 
ATOM      5  O   UNL     1      -5.816   3.753  25.674  0.00  0.00    -0.222 OA
ATOM      6  C   UNL     1      -4.757   2.868  25.169  0.00  0.00    +0.060 C 
ATOM      7  C   UNL     1      -3.937   2.926  25.089  0.00  0.00    +0.140 C 
ENDBRANCH   8   7
BRANCH  10  11
ATOM     11  C   UNL     1      -2.247   0.575  24.862  0.00  0.00    +0.224 C 
BRANCH  11  12
ATOM     12  S   UNL     1      -2.595  -0.163  24.733  0.00  0.00    +0.016 S 
ATOM     13  O   UNL     1      -2.884  -0.161  25.505  0.00  0.00    -0.168 OA
ATOM     14  O   UNL     1      -2.305  -0.164  23.960  0.00  0.00    -0.168 OA
BRANCH  12  15
ATOM     15  C   UNL     1      -2.942  -0.900  24.604  0.00  0.00    +0.106 A 
ATOM     16  C   UNL     1      -2.547  -1.587  24.832  0.00  0.00    +0.018 A 
ATOM     17  C   UNL     1      -2.895  -2.324  24.703  0.00  0.00    -0.003 A 
ATOM     18  C   UNL     1      -3.637  -2.374  24.346  0.00  0.00    -0.022 A 
ATOM     19  C   UNL     1      -3.985  -3.111  24.218  0.00  0.00    +0.031 C 
ATOM     20  C   UNL     1      -4.032  -1.686  24.119  0.00  0.00    -0.003 A 
ATOM     21  C   UNL     1      -3.685  -0.949  24.247  0.00  0.00    +0.018 A 
ENDBRANCH  12  15
ENDBRANCH  11  12
ENDBRANCH  10  11
TORSDOF 4
ENDMDL
MODEL 5
REMARK VINA RESULT:      -9.9      1.832      5.048
REMARK  Name = 
REMARK  4 active torsions:
REMARK  status: ('A' for Active; 'I' for Inactive)
REMARK    1  A    between atoms: C_7  and  C_8
REMARK    2  A    between atoms: C_10  and  C_11
REMARK    3  A    between atoms: C_11  and  S_12
REMARK    4  A    between atoms: S_12  and  C_15
REMARK                            x       y       z     vdW  Elec       q    Type
REMARK                         _______ _______ _______ _____ _____    ______ ____
ROOT
ATOM      8  C   UNL     1      -1.978  -0.123  24.741  0.00  0.00    +0.251 A 
ATOM      9  N   UNL     1      -1.705   0.369  25.345  0.00  0.00    -0.192 NA
ATOM     10  C   UNL     1      -1.072   0.808  25.048  0.00  0.00    +0.205 A 
ATOM     22  N   UNL     1      -0.955   0.588  24.262  0.00  0.00    -0.059 NA
ATOM     23  O   UNL     1      -1.515   0.013  24.072  0.00  0.00    -0.336 OA
ENDROOT
BRANCH   8   7
ATOM      1  C   UNL     1      -3.659   0.161  24.179  0.00  0.00    +0.090 C 
ATOM      2  N   UNL     1      -3.377  -0.526  24.539  0.00  0.00    -0.263 NA
ATOM      3  C   UNL     1      -3.820  -1.203  24.703  0.00  0.00    +0.106 C 
ATOM      4  C   UNL     1      -3.320  -1.752  25.064  0.00  0.00    +0.170 C 
ATOM      5  O   UNL     1      -3.534  -2.506  25.321  0.00  0.00    -0.222 OA
ATOM      6  C   UNL     1      -2.570  -1.414  25.122  0.00  0.00    +0.060 C 
ATOM      7  C   UNL     1      -2.605  -0.656  24.797  0.00  0.00    +0.140 C 
ENDBRANCH   8   7
BRANCH  10  11
ATOM     11  C   UNL     1      -0.634   1.369  25.465  0.00  0.00    +0.224 C 
BRANCH  11  12
ATOM     12  S   UNL     1      -0.812   2.172  25.390  0.00  0.00    +0.016 S 
ATOM     13  O   UNL     1      -0.328   2.215  24.723  0.00  0.00    -0.168 OA
ATOM     14  O   UNL     1      -1.295   2.128  26.057  0.00  0.00    -0.168 OA
BRANCH  12  15
ATOM     15  C   UNL     1      -0.989   2.974  25.314  0.00  0.00    +0.106 A 
ATOM     16  C   UNL     1      -1.666   3.281  25.670  0.00  0.00    +0.018 A 
ATOM     17  C   UNL     1      -1.843   4.084  25.594  0.00  0.00    -0.003 A 
ATOM     18  C   UNL     1      -1.343   4.578  25.162  0.00  0.00    -0.022 A 
ATOM     19  C   UNL     1      -1.521   5.380  25.086  0.00  0.00    +0.031 C 
ATOM     20  C   UNL     1      -0.665   4.270  24.807  0.00  0.00    -0.003 A 
ATOM     21  C   UNL     1      -0.488   3.467  24.882  0.00  0.00    +0.018 A 
ENDBRANCH  12  15
ENDBRANCH  11  12
ENDBRANCH  10  11
TORSDOF 4
ENDMDL
