MODEL 1
REMARK VINA RESULT:     -10.9      0.000      0.000
REMARK  Name = 
REMARK  8 active torsions:
REMARK  status: ('A' for Active; 'I' for Inactive)
REMARK    1  A    between atoms: O_2  and  C_3
REMARK    2  A    between atoms: C_6  and  C_7
REMARK    3  A    between atoms: C_7  and  N_8
REMARK    4  A    between atoms: C_9  and  C_11
REMARK    5  A    between atoms: C_11  and  C_12
REMARK    6  A    between atoms: C_14  and  C_15
REMARK    7  A    between atoms: C_18  and  C_19
REMARK    8  A    between atoms: C_19  and  N_20
REMARK                            x       y       z     vdW  Elec       q    Type
REMARK                         _______ _______ _______ _____ _____    ______ ____
ROOT
ATOM     12  C   UNL     1      -3.879   2.377  24.544  0.00  0.00    +0.027 C 
ATOM     13  C   UNL     1      -3.130   2.031  24.539  0.00  0.00    +0.005 C 
ATOM     14  C   UNL     1      -2.460   2.497  24.660  0.00  0.00    +0.006 C 
ATOM     18  C   UNL     1      -2.540   3.308  24.786  0.00  0.00    +0.043 C 
ATOM     24  C   UNL     1      -3.288   3.653  24.792  0.00  0.00    -0.033 C 
ATOM     25  C   UNL     1      -3.959   3.187  24.671  0.00  0.00    -0.048 C 
ATOM     26  C   UNL     1      -4.708   3.533  24.677  0.00  0.00    +0.026 C 
ENDROOT
BRANCH  14  15
ATOM     15  C   UNL     1      -1.710   2.152  24.654  0.00  0.00    +0.000 C 
ATOM     16  C   UNL     1      -1.313   2.042  23.940  0.00  0.00    +0.000 C 
ATOM     17  C   UNL     1      -1.359   1.916  25.363  0.00  0.00    +0.000 C 
ENDBRANCH  14  15
BRANCH  12  11
ATOM     11  C   UNL     1      -4.549   1.910  24.423  0.00  0.00    +0.091 C 
BRANCH  11   9
ATOM      8  N   UNL     1      -4.446   0.494  24.586  0.00  0.00    -0.201 NA
ATOM      9  C   UNL     1      -4.667   1.232  24.880  0.00  0.00    +0.242 C 
ATOM     10  O   UNL     1      -5.006   1.294  25.628  0.00  0.00    -0.273 OA
BRANCH   8   7
ATOM      7  C   UNL     1      -4.565  -0.182  25.043  0.00  0.00    +0.141 C 
BRANCH   7   6
ATOM      3  C   UNL     1      -3.305  -2.252  24.535  0.00  0.00    +0.139 A 
ATOM      4  C   UNL     1      -3.171  -1.852  25.242  0.00  0.00    +0.037 A 
ATOM      5  C   UNL     1      -3.591  -1.162  25.413  0.00  0.00    +0.001 A 
ATOM      6  C   UNL     1      -4.144  -0.873  24.873  0.00  0.00    -0.000 A 
ATOM     27  C   UNL     1      -4.278  -1.274  24.164  0.00  0.00    +0.001 A 
ATOM     28  C   UNL     1      -3.858  -1.963  23.995  0.00  0.00    +0.037 A 
BRANCH   3   2
ATOM      1  C   UNL     1      -2.060  -2.931  24.355  0.00  0.00    +0.252 C 
ATOM      2  O   UNL     1      -2.885  -2.941  24.365  0.00  0.00    -0.471 OA
ENDBRANCH   3   2
ENDBRANCH   7   6
ENDBRANCH   8   7
ENDBRANCH  11   9
ENDBRANCH  12  11
BRANCH  18  19
ATOM     19  C   UNL     1      -1.869   3.774  24.908  0.00  0.00    +0.119 C 
BRANCH  19  20
ATOM     20  N   UNL     1      -1.940   4.595  24.946  0.00  0.00    -0.205 NA
ATOM     21  C   UNL     1      -1.264   5.065  25.003  0.00  0.00    +0.242 C 
ATOM     22  C   UNL     1      -1.335   5.886  25.041  0.00  0.00    +0.096 C 
ATOM     23  O   UNL     1      -0.518   4.714  25.021  0.00  0.00    -0.273 OA
ENDBRANCH  19  20
ENDBRANCH  18  19
TORSDOF 8
ENDMDL
MODEL 2
REMARK VINA RESULT:      -9.9      1.803      5.816
REMARK  Name = 
REMARK  8 active torsions:
REMARK  status: ('A' for Active; 'I' for Inactive)
REMARK    1  A    between atoms: O_2  and  C_3
REMARK    2  A    between atoms: C_6  and  C_7
REMARK    3  A    between atoms: C_7  and  N_8
REMARK    4  A    between atoms: C_9  and  C_11
REMARK    5  A    between atoms: C_11  and  C_12
REMARK    6  A    between atoms: C_14  and  C_15
REMARK    7  A    between atoms: C_18  and  C_19
REMARK    8  A    between atoms: C_19  and  N_20
REMARK                            x       y       z     vdW  Elec       q    Type
REMARK                         _______ _______ _______ _____ _____    ______ ____
ROOT
ATOM     12  C   UNL     1      -1.402   0.015  24.732  0.00  0.00    +0.027 C 
ATOM     13  C   UNL     1      -2.162   0.337  24.707  0.00  0.00    +0.005 C 
ATOM     14  C   UNL     1      -2.815  -0.156  24.603  0.00  0.00    +0.006 C 
ATOM     18  C   UNL     1      -2.709  -0.970  24.523  0.00  0.00    +0.043 C 
ATOM     24  C   UNL     1      -1.950  -1.291  24.548  0.00  0.00    -0.033 C 
ATOM     25  C   UNL     1      -1.296  -0.798  24.653  0.00  0.00    -0.048 C 
ATOM     26  C   UNL     1      -0.537  -1.120  24.678  0.00  0.00    +0.026 C 
ENDROOT
BRANCH  14  15
ATOM     15  C   UNL     1      -3.575   0.165  24.578  0.00  0.00    +0.000 C 
ATOM     16  C   UNL     1      -3.861   0.491  23.876  0.00  0.00    +0.000 C 
ATOM     17  C   UNL     1      -4.047   0.162  25.254  0.00  0.00    +0.000 C 
ENDBRANCH  14  15
BRANCH  12  11
ATOM     11  C   UNL     1      -0.749   0.509  24.837  0.00  0.00    +0.091 C 
BRANCH  11   9
ATOM      8  N   UNL     1      -0.839   1.880  25.228  0.00  0.00    -0.201 NA
ATOM      9  C   UNL     1      -0.758   1.084  25.429  0.00  0.00    +0.242 C 
ATOM     10  O   UNL     1      -0.687   0.863  26.220  0.00  0.00    -0.273 OA
BRANCH   8   7
ATOM      7  C   UNL     1      -0.848   2.455  25.820  0.00  0.00    +0.141 C 
BRANCH   7   6
ATOM      3  C   UNL     1      -1.575   4.762  25.292  0.00  0.00    +0.139 A 
ATOM      4  C   UNL     1      -2.074   4.258  25.712  0.00  0.00    +0.037 A 
ATOM      5  C   UNL     1      -1.833   3.489  25.889  0.00  0.00    +0.001 A 
ATOM      6  C   UNL     1      -1.091   3.224  25.644  0.00  0.00    -0.000 A 
ATOM     27  C   UNL     1      -0.591   3.728  25.223  0.00  0.00    +0.001 A 
ATOM     28  C   UNL     1      -0.833   4.497  25.047  0.00  0.00    +0.037 A 
BRANCH   3   2
ATOM      1  C   UNL     1      -1.333   6.022  24.664  0.00  0.00    +0.252 C 
ATOM      2  O   UNL     1      -1.817   5.530  25.116  0.00  0.00    -0.471 OA
ENDBRANCH   3   2
ENDBRANCH   7   6
ENDBRANCH   8   7
ENDBRANCH  11   9
ENDBRANCH  12  11
BRANCH  18  19
ATOM     19  C   UNL     1      -3.362  -1.463  24.419  0.00  0.00    +0.119 C 
BRANCH  19  20
ATOM     20  N   UNL     1      -3.279  -2.279  24.503  0.00  0.00    -0.205 NA
ATOM     21  C   UNL     1      -3.840  -2.787  24.172  0.00  0.00    +0.242 C 
ATOM     22  C   UNL     1      -3.758  -3.603  24.256  0.00  0.00    +0.096 C 
ATOM     23  O   UNL     1      -4.483  -2.477  23.757  0.00  0.00    -0.273 OA
ENDBRANCH  19  20
ENDBRANCH  18  19
TORSDOF 8
ENDMDL
MODEL 3
REMARK VINA RESULT:      -9.7      1.458      2.447
REMARK  Name = 
REMARK  8 active torsions:
REMARK  status: ('A' for Active; 'I' for Inactive)
REMARK    1  A    between atoms: O_2  and  C_3
REMARK    2  A    between atoms: C_6  and  C_7
REMARK    3  A    between atoms: C_7  and  N_8
REMARK    4  A    between atoms: C_9  and  C_11
REMARK    5  A    between atoms: C_11  and  C_12
REMARK    6  A    between atoms: C_14  and  C_15
REMARK    7  A    between atoms: C_18  and  C_19
REMARK    8  A    between atoms: C_19  and  N_20
REMARK                            x       y       z     vdW  Elec       q    Type
REMARK                         _______ _______ _______ _____ _____    ______ ____
ROOT
ATOM     12  C   UNL     1      -0.909   1.504  24.949  0.00  0.00    +0.027 C 
ATOM     13  C   UNL     1      -1.710   1.636  24.800  0.00  0.00    +0.005 C 
ATOM     14  C   UNL     1      -2.013   2.403  24.820  0.00  0.00    +0.006 C 
ATOM     18  C   UNL     1      -1.515   3.038  24.988  0.00  0.00    +0.043 C 
ATOM     24  C   UNL     1      -0.715   2.907  25.137  0.00  0.00    -0.033 C 
ATOM     25  C   UNL     1      -0.412   2.140  25.118  0.00  0.00    -0.048 C 
ATOM     26  C   UNL     1       0.389   2.009  25.267  0.00  0.00    +0.026 C 
ENDROOT
BRANCH  14  15
ATOM     15  C   UNL     1      -2.814   2.534  24.671  0.00  0.00    +0.000 C 
ATOM     16  C   UNL     1      -3.079   2.625  23.895  0.00  0.00    +0.000 C 
ATOM     17  C   UNL     1      -3.349   2.575  25.297  0.00  0.00    +0.000 C 
ENDBRANCH  14  15
BRANCH  12  11
ATOM     11  C   UNL     1      -0.607   0.737  24.930  0.00  0.00    +0.091 C 
BRANCH  11   9
ATOM      8  N   UNL     1      -1.371  -0.466  25.038  0.00  0.00    -0.201 NA
ATOM      9  C   UNL     1      -0.950   0.147  25.395  0.00  0.00    +0.242 C 
ATOM     10  O   UNL     1      -0.871   0.171  26.215  0.00  0.00    -0.273 OA
BRANCH   8   7
ATOM      7  C   UNL     1      -1.713  -1.055  25.503  0.00  0.00    +0.141 C 
BRANCH   7   6
ATOM      3  C   UNL     1      -3.447  -2.537  24.541  0.00  0.00    +0.139 A 
ATOM      4  C   UNL     1      -3.658  -1.954  25.084  0.00  0.00    +0.037 A 
ATOM      5  C   UNL     1      -3.081  -1.460  25.405  0.00  0.00    +0.001 A 
ATOM      6  C   UNL     1      -2.291  -1.549  25.182  0.00  0.00    -0.000 A 
ATOM     27  C   UNL     1      -2.080  -2.133  24.638  0.00  0.00    +0.001 A 
ATOM     28  C   UNL     1      -2.658  -2.626  24.318  0.00  0.00    +0.037 A 
BRANCH   3   2
ATOM      1  C   UNL     1      -4.498  -2.764  23.600  0.00  0.00    +0.252 C 
ATOM      2  O   UNL     1      -4.024  -3.031  24.220  0.00  0.00    -0.471 OA
ENDBRANCH   3   2
ENDBRANCH   7   6
ENDBRANCH   8   7
ENDBRANCH  11   9
ENDBRANCH  12  11
BRANCH  18  19
ATOM     19  C   UNL     1      -1.818   3.806  25.008  0.00  0.00    +0.119 C 
BRANCH  19  20
ATOM     20  N   UNL     1      -1.338   4.443  24.798  0.00  0.00    -0.205 NA
ATOM     21  C   UNL     1      -1.513   5.200  25.078  0.00  0.00    +0.242 C 
ATOM     22  C   UNL     1      -1.033   5.838  24.868  0.00  0.00    +0.096 C 
ATOM     23  O   UNL     1      -2.167   5.319  25.567  0.00  0.00    -0.273 OA
ENDBRANCH  19  20
ENDBRANCH  18  19
TORSDOF 8
ENDMDL
MODEL 4
REMARK VINA RESULT:      -9.5      1.240      5.158
REMARK  Name = 
REMARK  8 active torsions:
REMARK  status: ('A' for Active; 'I' for Inactive)
REMARK    1  A    between atoms: O_2  and  C_3
REMARK    2  A    between atoms: C_6  and  C_7
REMARK    3  A    between atoms: C_7  and  N_8
REMARK    4  A    between atoms: C_9  and  C_11
REMARK    5  A    between atoms: C_11  and  C_12
REMARK    6  A    between atoms: C_14  and  C_15
REMARK    7  A    between atoms: C_18  and  C_19
REMARK    8  A    between atoms: C_19  and  N_20
REMARK                            x       y       z     vdW  Elec       q    Type
REMARK                         _______ _______ _______ _____ _____    ______ ____
ROOT
ATOM     12  C   UNL     1      -4.276   1.062  24.632  0.00  0.00    +0.027 C 
ATOM     13  C   UNL     1      -3.451   1.035  24.642  0.00  0.00    +0.005 C 
ATOM     14  C   UNL     1      -3.062   0.307  24.643  0.00  0.00    +0.006 C 
ATOM     18  C   UNL     1      -3.497  -0.392  24.633  0.00  0.00    +0.043 C 
ATOM     24  C   UNL     1      -4.321  -0.366  24.623  0.00  0.00    -0.033 C 
ATOM     25  C   UNL     1      -4.711   0.362  24.622  0.00  0.00    -0.048 C 
ATOM     26  C   UNL     1      -5.535   0.388  24.612  0.00  0.00    +0.026 C 
ENDROOT
BRANCH  14  15
ATOM     15  C   UNL     1      -2.237   0.281  24.654  0.00  0.00    +0.000 C 
ATOM     16  C   UNL     1      -1.838   0.167  25.366  0.00  0.00    +0.000 C 
ATOM     17  C   UNL     1      -1.813   0.368  23.952  0.00  0.00    +0.000 C 
ENDBRANCH  14  15
BRANCH  12  11
ATOM     11  C   UNL     1      -4.665   1.789  24.631  0.00  0.00    +0.091 C 
BRANCH  11   9
ATOM      8  N   UNL     1      -3.930   2.968  24.966  0.00  0.00    -0.201 NA
ATOM      9  C   UNL     1      -4.455   2.369  25.181  0.00  0.00    +0.242 C 
ATOM     10  O   UNL     1      -4.769   2.349  25.942  0.00  0.00    -0.273 OA
BRANCH   8   7
ATOM      7  C   UNL     1      -3.720   3.547  25.515  0.00  0.00    +0.141 C 
BRANCH   7   6
ATOM      3  C   UNL     1      -1.642   4.855  25.199  0.00  0.00    +0.139 A 
ATOM      4  C   UNL     1      -1.685   4.286  25.794  0.00  0.00    +0.037 A 
ATOM      5  C   UNL     1      -2.377   3.849  25.899  0.00  0.00    +0.001 A 
ATOM      6  C   UNL     1      -3.027   3.983  25.410  0.00  0.00    -0.000 A 
ATOM     27  C   UNL     1      -2.985   4.554  24.814  0.00  0.00    +0.001 A 
ATOM     28  C   UNL     1      -2.293   4.989  24.710  0.00  0.00    +0.037 A 
BRANCH   3   2
ATOM      1  C   UNL     1      -0.326   4.975  24.657  0.00  0.00    +0.252 C 
ATOM      2  O   UNL     1      -0.950   5.291  25.094  0.00  0.00    -0.471 OA
ENDBRANCH   3   2
ENDBRANCH   7   6
ENDBRANCH   8   7
ENDBRANCH  11   9
ENDBRANCH  12  11
BRANCH  18  19
ATOM     19  C   UNL     1      -3.108  -1.121  24.634  0.00  0.00    +0.119 C 
BRANCH  19  20
ATOM     20  N   UNL     1      -3.544  -1.821  24.620  0.00  0.00    -0.205 NA
ATOM     21  C   UNL     1      -3.157  -2.545  24.537  0.00  0.00    +0.242 C 
ATOM     22  C   UNL     1      -3.593  -3.245  24.523  0.00  0.00    +0.096 C 
ATOM     23  O   UNL     1      -2.335  -2.569  24.468  0.00  0.00    -0.273 OA
ENDBRANCH  19  20
ENDBRANCH  18  19
TORSDOF 8
ENDMDL
MODEL 5
REMARK VINA RESULT:      -9.4      2.180      4.310
REMARK  Name = 
REMARK  8 active torsions:
REMARK  status: ('A' for Active; 'I' for Inactive)
REMARK    1  A    between atoms: O_2  and  C_3
REMARK    2  A    between atoms: C_6  and  C_7
REMARK    3  A    between atoms: C_7  and  N_8
REMARK    4  A    between atoms: C_9  and  C_11
REMARK    5  A    between atoms: C_11  and  C_12
REMARK    6  A    between atoms: C_14  and  C_15
REMARK    7  A    between atoms: C_18  and  C_19
REMARK    8  A    between atoms: C_19  and  N_20
REMARK                            x       y       z     vdW  Elec       q    Type
REMARK                         _______ _______ _______ _____ _____    ______ ____
ROOT
ATOM     12  C   UNL     1      -1.904  -0.434  24.860  0.00  0.00    +0.027 C 
ATOM     13  C   UNL     1      -1.752   0.375  24.803  0.00  0.00    +0.005 C 
ATOM     14  C   UNL     1      -1.046   0.639  24.467  0.00  0.00    +0.006 C 
ATOM     18  C   UNL     1      -0.493   0.095  24.188  0.00  0.00    +0.043 C 
ATOM     24  C   UNL     1      -0.645  -0.714  24.245  0.00  0.00    -0.033 C 
ATOM     25  C   UNL     1      -1.351  -0.978  24.581  0.00  0.00    -0.048 C 
ATOM     26  C   UNL     1      -1.503  -1.787  24.638  0.00  0.00    +0.026 C 
ENDROOT
BRANCH  14  15
ATOM     15  C   UNL     1      -0.894   1.448  24.410  0.00  0.00    +0.000 C 
ATOM     16  C   UNL     1      -0.516   1.841  25.030  0.00  0.00    +0.000 C 
ATOM     17  C   UNL     1      -1.119   1.864  23.734  0.00  0.00    +0.000 C 
ENDBRANCH  14  15
BRANCH  12  11
ATOM     11  C   UNL     1      -2.609  -0.698  25.196  0.00  0.00    +0.091 C 
BRANCH  11   9
ATOM      8  N   UNL     1      -3.776   0.126  25.166  0.00  0.00    -0.201 NA
ATOM      9  C   UNL     1      -3.332  -0.493  24.852  0.00  0.00    +0.242 C 
ATOM     10  O   UNL     1      -3.607  -0.908  24.195  0.00  0.00    -0.273 OA
BRANCH   8   7
ATOM      7  C   UNL     1      -4.498   0.330  24.821  0.00  0.00    +0.141 C 
BRANCH   7   6
ATOM      3  C   UNL     1      -5.524   2.529  25.315  0.00  0.00    +0.139 A 
ATOM      4  C   UNL     1      -5.682   1.882  25.801  0.00  0.00    +0.037 A 
ATOM      5  C   UNL     1      -5.340   1.149  25.637  0.00  0.00    +0.001 A 
ATOM      6  C   UNL     1      -4.840   1.064  24.986  0.00  0.00    -0.000 A 
ATOM     27  C   UNL     1      -4.682   1.711  24.499  0.00  0.00    +0.001 A 
ATOM     28  C   UNL     1      -5.024   2.444  24.664  0.00  0.00    +0.037 A 
BRANCH   3   2
ATOM      1  C   UNL     1      -5.390   3.929  25.564  0.00  0.00    +0.252 C 
ATOM      2  O   UNL     1      -5.866   3.261  25.479  0.00  0.00    -0.471 OA
ENDBRANCH   3   2
ENDBRANCH   7   6
ENDBRANCH   8   7
ENDBRANCH  11   9
ENDBRANCH  12  11
BRANCH  18  19
ATOM     19  C   UNL     1       0.213   0.359  23.852  0.00  0.00    +0.119 C 
BRANCH  19  20
ATOM     20  N   UNL     1       0.603  -0.106  23.294  0.00  0.00    -0.205 NA
ATOM     21  C   UNL     1       1.355   0.110  23.030  0.00  0.00    +0.242 C 
ATOM     22  C   UNL     1       1.745  -0.356  22.472  0.00  0.00    +0.096 C 
ATOM     23  O   UNL     1       1.716   0.791  23.324  0.00  0.00    -0.273 OA
ENDBRANCH  19  20
ENDBRANCH  18  19
TORSDOF 8
ENDMDL
MODEL 6
REMARK VINA RESULT:      -9.4      1.952      3.227
REMARK  Name = 
REMARK  8 active torsions:
REMARK  status: ('A' for Active; 'I' for Inactive)
REMARK    1  A    between atoms: O_2  and  C_3
REMARK    2  A    between atoms: C_6  and  C_7
REMARK    3  A    between atoms: C_7  and  N_8
REMARK    4  A    between atoms: C_9  and  C_11
REMARK    5  A    between atoms: C_11  and  C_12
REMARK    6  A    between atoms: C_14  and  C_15
REMARK    7  A    between atoms: C_18  and  C_19
REMARK    8  A    between atoms: C_19  and  N_20
REMARK                            x       y       z     vdW  Elec       q    Type
REMARK                         _______ _______ _______ _____ _____    ______ ____
ROOT
ATOM     12  C   UNL     1      -2.231   2.789  23.970  0.00  0.00    +0.027 C 
ATOM     13  C   UNL     1      -2.121   3.249  24.647  0.00  0.00    +0.005 C 
ATOM     14  C   UNL     1      -2.775   3.512  25.076  0.00  0.00    +0.006 C 
ATOM     18  C   UNL     1      -3.536   3.315  24.830  0.00  0.00    +0.043 C 
ATOM     24  C   UNL     1      -3.646   2.855  24.154  0.00  0.00    -0.033 C 
ATOM     25  C   UNL     1      -2.992   2.592  23.724  0.00  0.00    -0.048 C 
ATOM     26  C   UNL     1      -3.102   2.132  23.048  0.00  0.00    +0.026 C 
ENDROOT
BRANCH  14  15
ATOM     15  C   UNL     1      -2.665   3.972  25.753  0.00  0.00    +0.000 C 
ATOM     16  C   UNL     1      -2.615   3.611  26.493  0.00  0.00    +0.000 C 
ATOM     17  C   UNL     1      -2.606   4.793  25.689  0.00  0.00    +0.000 C 
ENDBRANCH  14  15
BRANCH  12  11
ATOM     11  C   UNL     1      -1.577   2.526  23.541  0.00  0.00    +0.091 C 
BRANCH  11   9
ATOM      8  N   UNL     1      -1.065   1.286  24.035  0.00  0.00    -0.201 NA
ATOM      9  C   UNL     1      -0.980   2.098  23.919  0.00  0.00    +0.242 C 
ATOM     10  O   UNL     1      -0.300   2.483  24.181  0.00  0.00    -0.273 OA
BRANCH   8   7
ATOM      7  C   UNL     1      -0.469   0.860  24.413  0.00  0.00    +0.141 C 
BRANCH   7   6
ATOM      3  C   UNL     1      -0.839  -1.513  25.016  0.00  0.00    +0.139 A 
ATOM      4  C   UNL     1      -1.082  -0.914  25.529  0.00  0.00    +0.037 A 
ATOM      5  C   UNL     1      -0.959  -0.123  25.328  0.00  0.00    +0.001 A 
ATOM      6  C   UNL     1      -0.593   0.068  24.614  0.00  0.00    -0.000 A 
ATOM     27  C   UNL     1      -0.350  -0.531  24.100  0.00  0.00    +0.001 A 
ATOM     28  C   UNL     1      -0.473  -1.321  24.302  0.00  0.00    +0.037 A 
BRANCH   3   2
ATOM      1  C   UNL     1      -1.610  -2.711  24.910  0.00  0.00    +0.252 C 
ATOM      2  O   UNL     1      -0.962  -2.303  25.217  0.00  0.00    -0.471 OA
ENDBRANCH   3   2
ENDBRANCH   7   6
ENDBRANCH   8   7
ENDBRANCH  11   9
ENDBRANCH  12  11
BRANCH  18  19
ATOM     19  C   UNL     1      -4.190   3.579  25.260  0.00  0.00    +0.119 C 
BRANCH  19  20
ATOM     20  N   UNL     1      -4.834   3.077  25.378  0.00  0.00    -0.205 NA
ATOM     21  C   UNL     1      -5.566   3.391  25.595  0.00  0.00    +0.242 C 
ATOM     22  C   UNL     1      -6.211   2.889  25.713  0.00  0.00    +0.096 C 
ATOM     23  O   UNL     1      -5.653   4.205  25.694  0.00  0.00    -0.273 OA
ENDBRANCH  19  20
ENDBRANCH  18  19
TORSDOF 8
ENDMDL
MODEL 7
REMARK VINA RESULT:      -9.0      2.478      4.251
REMARK  Name = 
REMARK  8 active torsions:
REMARK  status: ('A' for Active; 'I' for Inactive)
REMARK    1  A    between atoms: O_2  and  C_3
REMARK    2  A    between atoms: C_6  and  C_7
REMARK    3  A    between atoms: C_7  and  N_8
REMARK    4  A    between atoms: C_9  and  C_11
REMARK    5  A    between atoms: C_11  and  C_12
REMARK    6  A    between atoms: C_14  and  C_15
REMARK    7  A    between atoms: C_18  and  C_19
REMARK    8  A    between atoms: C_19  and  N_20
REMARK                            x       y       z     vdW  Elec       q    Type
REMARK                         _______ _______ _______ _____ _____    ______ ____
ROOT
ATOM     12  C   UNL     1      -3.141   0.194  24.528  0.00  0.00    +0.027 C 
ATOM     13  C   UNL     1      -2.972   0.982  24.346  0.00  0.00    +0.005 C 
ATOM     14  C   UNL     1      -3.521   1.572  24.523  0.00  0.00    +0.006 C 
ATOM     18  C   UNL     1      -4.237   1.376  24.880  0.00  0.00    +0.043 C 
ATOM     24  C   UNL     1      -4.406   0.589  25.063  0.00  0.00    -0.033 C 
ATOM     25  C   UNL     1      -3.857  -0.002  24.886  0.00  0.00    -0.048 C 
ATOM     26  C   UNL     1      -4.026  -0.788  25.068  0.00  0.00    +0.026 C 
ENDROOT
BRANCH  14  15
ATOM     15  C   UNL     1      -3.352   2.359  24.340  0.00  0.00    +0.000 C 
ATOM     16  C   UNL     1      -2.969   2.837  24.893  0.00  0.00    +0.000 C 
ATOM     17  C   UNL     1      -3.566   2.668  23.606  0.00  0.00    +0.000 C 
ENDBRANCH  14  15
BRANCH  12  11
ATOM     11  C   UNL     1      -2.592  -0.396  24.352  0.00  0.00    +0.091 C 
BRANCH  11   9
ATOM      8  N   UNL     1      -1.193  -0.230  24.116  0.00  0.00    -0.201 NA
ATOM      9  C   UNL     1      -1.820  -0.340  24.639  0.00  0.00    +0.242 C 
ATOM     10  O   UNL     1      -1.677  -0.395  25.449  0.00  0.00    -0.273 OA
BRANCH   8   7
ATOM      7  C   UNL     1      -0.422  -0.175  24.403  0.00  0.00    +0.141 C 
BRANCH   7   6
ATOM      3  C   UNL     1       1.459   0.187  22.835  0.00  0.00    +0.139 A 
ATOM      4  C   UNL     1       1.074  -0.541  22.856  0.00  0.00    +0.037 A 
ATOM      5  C   UNL     1       0.447  -0.663  23.378  0.00  0.00    +0.001 A 
ATOM      6  C   UNL     1       0.206  -0.054  23.880  0.00  0.00    -0.000 A 
ATOM     27  C   UNL     1       0.591   0.676  23.860  0.00  0.00    +0.001 A 
ATOM     28  C   UNL     1       1.218   0.796  23.337  0.00  0.00    +0.037 A 
BRANCH   3   2
ATOM      1  C   UNL     1       2.863   0.286  22.588  0.00  0.00    +0.252 C 
ATOM      2  O   UNL     1       2.086   0.308  22.313  0.00  0.00    -0.471 OA
ENDBRANCH   3   2
ENDBRANCH   7   6
ENDBRANCH   8   7
ENDBRANCH  11   9
ENDBRANCH  12  11
BRANCH  18  19
ATOM     19  C   UNL     1      -4.786   1.967  25.057  0.00  0.00    +0.119 C 
BRANCH  19  20
ATOM     20  N   UNL     1      -5.445   1.792  25.521  0.00  0.00    -0.205 NA
ATOM     21  C   UNL     1      -5.961   2.394  25.748  0.00  0.00    +0.242 C 
ATOM     22  C   UNL     1      -6.620   2.219  26.212  0.00  0.00    +0.096 C 
ATOM     23  O   UNL     1      -5.818   3.171  25.510  0.00  0.00    -0.273 OA
ENDBRANCH  19  20
ENDBRANCH  18  19
TORSDOF 8
ENDMDL
