MODEL 1
REMARK VINA RESULT:      -7.9      0.000      0.000
REMARK  Name = 
REMARK  5 active torsions:
REMARK  status: ('A' for Active; 'I' for Inactive)
REMARK    1  A    between atoms: C_8  and  C_10
REMARK    2  A    between atoms: C_10  and  C_11
REMARK    3  A    between atoms: C_11  and  C_12
REMARK    4  A    between atoms: N_21  and  C_22
REMARK    5  A    between atoms: C_22  and  C_23
REMARK                            x       y       z     vdW  Elec       q    Type
REMARK                         _______ _______ _______ _____ _____    ______ ____
ROOT
ATOM     12  C   UNL     1      -1.105   0.771  23.976  0.00  0.00    +0.080 C 
ATOM     13  C   UNL     1      -1.017   1.538  23.682  0.00  0.00    +0.131 C 
ATOM     14  N   UNL     1      -1.560   2.158  23.692  0.00  0.00    -0.203 NA
ATOM     15  C   UNL     1      -2.326   2.166  23.998  0.00  0.00    +0.257 C 
ATOM     16  O   UNL     1      -2.735   2.879  23.923  0.00  0.00    -0.272 OA
ATOM     17  C   UNL     1      -2.738   1.555  24.370  0.00  0.00    +0.152 C 
ATOM     18  C   UNL     1      -2.485   0.786  24.528  0.00  0.00    +0.083 C 
ATOM     19  C   UNL     1      -3.100   0.389  24.910  0.00  0.00    +0.035 C 
ATOM     20  C   UNL     1      -3.732   0.914  24.988  0.00  0.00    +0.074 C 
ATOM     21  N   UNL     1      -3.508   1.634  24.655  0.00  0.00    -0.260 NA
ATOM     28  N   UNL     1      -1.758   0.437  24.352  0.00  0.00    -0.271 NA
ATOM     29  C   UNL     1      -1.674  -0.351  24.584  0.00  0.00    +0.090 C 
ENDROOT
BRANCH  12  11
ATOM     11  C   UNL     1      -0.454   0.274  23.881  0.00  0.00    +0.027 C 
BRANCH  11  10
ATOM     10  C   UNL     1       0.232   0.557  23.521  0.00  0.00    +0.087 C 
BRANCH  10   8
ATOM      1  C   UNL     1       3.897   0.854  22.637  0.00  0.00    +0.090 C 
ATOM      2  N   UNL     1       3.107   0.650  22.760  0.00  0.00    -0.269 NA
ATOM      3  C   UNL     1       2.602   1.171  23.154  0.00  0.00    +0.094 C 
ATOM      4  C   UNL     1       1.813   0.966  23.276  0.00  0.00    +0.111 C 
ATOM      5  N   UNL     1       1.527   0.241  23.005  0.00  0.00    -0.277 N 
ATOM      6  C   UNL     1       2.032  -0.279  22.611  0.00  0.00    +0.111 C 
ATOM      7  C   UNL     1       2.821  -0.075  22.489  0.00  0.00    +0.094 C 
ATOM      8  C   UNL     1       0.738   0.037  23.127  0.00  0.00    +0.226 C 
ATOM      9  O   UNL     1       0.452  -0.688  22.856  0.00  0.00    -0.275 OA
ENDBRANCH  10   8
ENDBRANCH  11  10
ENDBRANCH  12  11
BRANCH  21  22
ATOM     22  C   UNL     1      -3.974   2.314  24.613  0.00  0.00    +0.121 C 
BRANCH  22  23
ATOM     23  C   UNL     1      -4.735   2.313  24.930  0.00  0.00    +0.105 A 
ATOM     24  C   UNL     1      -4.969   2.679  25.632  0.00  0.00    +0.074 A 
ATOM     25  S   UNL     1      -5.774   2.537  25.737  0.00  0.00    +0.038 S 
ATOM     26  N   UNL     1      -6.039   2.084  25.102  0.00  0.00    -0.110 NA
ATOM     27  N   UNL     1      -5.397   1.945  24.602  0.00  0.00    -0.143 NA
ENDBRANCH  22  23
ENDBRANCH  21  22
TORSDOF 5
ENDMDL
MODEL 2
REMARK VINA RESULT:      -7.6      2.063      6.183
REMARK  Name = 
REMARK  5 active torsions:
REMARK  status: ('A' for Active; 'I' for Inactive)
REMARK    1  A    between atoms: C_8  and  C_10
REMARK    2  A    between atoms: C_10  and  C_11
REMARK    3  A    between atoms: C_11  and  C_12
REMARK    4  A    between atoms: N_21  and  C_22
REMARK    5  A    between atoms: C_22  and  C_23
REMARK                            x       y       z     vdW  Elec       q    Type
REMARK                         _______ _______ _______ _____ _____    ______ ____
ROOT
ATOM     12  C   UNL     1      -1.509   1.653  24.762  0.00  0.00    +0.080 C 
ATOM     13  C   UNL     1      -1.748   0.864  24.739  0.00  0.00    +0.131 C 
ATOM     14  N   UNL     1      -1.335   0.208  24.457  0.00  0.00    -0.203 NA
ATOM     15  C   UNL     1      -0.579   0.180  24.127  0.00  0.00    +0.257 C 
ATOM     16  O   UNL     1      -0.317  -0.568  23.896  0.00  0.00    -0.272 OA
ATOM     17  C   UNL     1      -0.051   0.800  23.998  0.00  0.00    +0.152 C 
ATOM     18  C   UNL     1      -0.147   1.602  24.167  0.00  0.00    +0.083 C 
ATOM     19  C   UNL     1       0.539   1.996  23.934  0.00  0.00    +0.035 C 
ATOM     20  C   UNL     1       1.060   1.437  23.621  0.00  0.00    +0.074 C 
ATOM     21  N   UNL     1       0.696   0.699  23.661  0.00  0.00    -0.260 NA
ATOM     28  N   UNL     1      -0.796   1.981  24.507  0.00  0.00    -0.271 NA
ATOM     29  C   UNL     1      -0.722   2.798  24.605  0.00  0.00    +0.090 C 
ENDROOT
BRANCH  12  11
ATOM     11  C   UNL     1      -2.053   2.184  25.081  0.00  0.00    +0.027 C 
BRANCH  11  10
ATOM     10  C   UNL     1      -2.862   2.045  24.997  0.00  0.00    +0.087 C 
BRANCH  10   8
ATOM      1  C   UNL     1      -6.642   1.974  25.076  0.00  0.00    +0.090 C 
ATOM      2  N   UNL     1      -5.833   2.129  25.127  0.00  0.00    -0.269 NA
ATOM      3  C   UNL     1      -5.288   1.578  24.844  0.00  0.00    +0.094 C 
ATOM      4  C   UNL     1      -4.480   1.734  24.895  0.00  0.00    +0.111 C 
ATOM      5  N   UNL     1      -4.216   2.441  25.229  0.00  0.00    -0.277 N 
ATOM      6  C   UNL     1      -4.761   2.992  25.512  0.00  0.00    +0.111 C 
ATOM      7  C   UNL     1      -5.569   2.836  25.461  0.00  0.00    +0.094 C 
ATOM      8  C   UNL     1      -3.408   2.596  25.280  0.00  0.00    +0.226 C 
ATOM      9  O   UNL     1      -3.143   3.303  25.614  0.00  0.00    -0.275 OA
ENDBRANCH  10   8
ENDBRANCH  11  10
ENDBRANCH  12  11
BRANCH  21  22
ATOM     22  C   UNL     1       1.020  -0.016  23.407  0.00  0.00    +0.121 C 
BRANCH  22  23
ATOM     23  C   UNL     1       1.660  -0.017  22.887  0.00  0.00    +0.105 A 
ATOM     24  C   UNL     1       2.456   0.046  23.096  0.00  0.00    +0.074 A 
ATOM     25  S   UNL     1       2.904   0.021  22.404  0.00  0.00    +0.038 S 
ATOM     26  N   UNL     1       2.387  -0.057  21.767  0.00  0.00    -0.110 NA
ATOM     27  N   UNL     1       1.617  -0.080  22.065  0.00  0.00    -0.143 NA
ENDBRANCH  22  23
ENDBRANCH  21  22
TORSDOF 5
ENDMDL
MODEL 3
REMARK VINA RESULT:      -7.3      2.113      6.017
REMARK  Name = 
REMARK  5 active torsions:
REMARK  status: ('A' for Active; 'I' for Inactive)
REMARK    1  A    between atoms: C_8  and  C_10
REMARK    2  A    between atoms: C_10  and  C_11
REMARK    3  A    between atoms: C_11  and  C_12
REMARK    4  A    between atoms: N_21  and  C_22
REMARK    5  A    between atoms: C_22  and  C_23
REMARK                            x       y       z     vdW  Elec       q    Type
REMARK                         _______ _______ _______ _____ _____    ______ ____
ROOT
ATOM     12  C   UNL     1      -1.877   0.868  24.534  0.00  0.00    +0.080 C 
ATOM     13  C   UNL     1      -1.639   1.658  24.521  0.00  0.00    +0.131 C 
ATOM     14  N   UNL     1      -0.906   1.970  24.308  0.00  0.00    -0.203 NA
ATOM     15  C   UNL     1      -0.230   1.570  24.056  0.00  0.00    +0.257 C 
ATOM     16  O   UNL     1       0.423   2.045  23.882  0.00  0.00    -0.272 OA
ATOM     17  C   UNL     1      -0.120   0.759  23.953  0.00  0.00    +0.152 C 
ATOM     18  C   UNL     1      -0.659   0.148  24.079  0.00  0.00    +0.083 C 
ATOM     19  C   UNL     1      -0.283  -0.565  23.898  0.00  0.00    +0.035 C 
ATOM     20  C   UNL     1       0.488  -0.392  23.661  0.00  0.00    +0.074 C 
ATOM     21  N   UNL     1       0.589   0.426  23.695  0.00  0.00    -0.260 NA
ATOM     28  N   UNL     1      -1.441   0.196  24.337  0.00  0.00    -0.271 NA
ATOM     29  C   UNL     1      -1.840  -0.523  24.408  0.00  0.00    +0.090 C 
ENDROOT
BRANCH  12  11
ATOM     11  C   UNL     1      -2.654   0.732  24.776  0.00  0.00    +0.027 C 
BRANCH  11  10
ATOM     10  C   UNL     1      -3.183   1.362  24.836  0.00  0.00    +0.087 C 
BRANCH  10   8
ATOM      1  C   UNL     1      -6.007   3.745  25.637  0.00  0.00    +0.090 C 
ATOM      2  N   UNL     1      -5.499   3.114  25.482  0.00  0.00    -0.269 NA
ATOM      3  C   UNL     1      -4.706   3.256  25.302  0.00  0.00    +0.094 C 
ATOM      4  C   UNL     1      -4.199   2.625  25.147  0.00  0.00    +0.111 C 
ATOM      5  N   UNL     1      -4.483   1.851  25.172  0.00  0.00    -0.277 N 
ATOM      6  C   UNL     1      -5.276   1.708  25.352  0.00  0.00    +0.111 C 
ATOM      7  C   UNL     1      -5.783   2.339  25.507  0.00  0.00    +0.094 C 
ATOM      8  C   UNL     1      -3.976   1.220  25.017  0.00  0.00    +0.226 C 
ATOM      9  O   UNL     1      -4.260   0.445  25.042  0.00  0.00    -0.275 OA
ENDBRANCH  10   8
ENDBRANCH  11  10
ENDBRANCH  12  11
BRANCH  21  22
ATOM     22  C   UNL     1       1.278   0.838  23.505  0.00  0.00    +0.121 C 
BRANCH  22  23
ATOM     23  C   UNL     1       1.843   0.491  23.013  0.00  0.00    +0.105 A 
ATOM     24  C   UNL     1       2.659   0.495  23.135  0.00  0.00    +0.074 A 
ATOM     25  S   UNL     1       3.011   0.086  22.511  0.00  0.00    +0.038 S 
ATOM     26  N   UNL     1       2.414  -0.170  22.003  0.00  0.00    -0.110 NA
ATOM     27  N   UNL     1       1.691   0.081  22.314  0.00  0.00    -0.143 NA
ENDBRANCH  22  23
ENDBRANCH  21  22
TORSDOF 5
ENDMDL
MODEL 4
REMARK VINA RESULT:      -7.0      3.038      4.408
REMARK  Name = 
REMARK  5 active torsions:
REMARK  status: ('A' for Active; 'I' for Inactive)
REMARK    1  A    between atoms: C_8  and  C_10
REMARK    2  A    between atoms: C_10  and  C_11
REMARK    3  A    between atoms: C_11  and  C_12
REMARK    4  A    between atoms: N_21  and  C_22
REMARK    5  A    between atoms: C_22  and  C_23
REMARK                            x       y       z     vdW  Elec       q    Type
REMARK                         _______ _______ _______ _____ _____    ______ ____
ROOT
ATOM     12  C   UNL     1      -0.832   0.519  24.903  0.00  0.00    +0.080 C 
ATOM     13  C   UNL     1      -0.764   0.612  25.720  0.00  0.00    +0.131 C 
ATOM     14  N   UNL     1      -0.716   1.311  26.156  0.00  0.00    -0.203 NA
ATOM     15  C   UNL     1      -0.724   2.089  25.882  0.00  0.00    +0.257 C 
ATOM     16  O   UNL     1      -0.666   2.673  26.462  0.00  0.00    -0.272 OA
ATOM     17  C   UNL     1      -0.781   2.360  25.105  0.00  0.00    +0.152 C 
ATOM     18  C   UNL     1      -0.845   1.921  24.410  0.00  0.00    +0.083 C 
ATOM     19  C   UNL     1      -0.887   2.449  23.777  0.00  0.00    +0.035 C 
ATOM     20  C   UNL     1      -0.848   3.216  24.082  0.00  0.00    +0.074 C 
ATOM     21  N   UNL     1      -0.783   3.161  24.902  0.00  0.00    -0.260 NA
ATOM     28  N   UNL     1      -0.868   1.101  24.320  0.00  0.00    -0.271 NA
ATOM     29  C   UNL     1      -0.936   0.828  23.544  0.00  0.00    +0.090 C 
ENDROOT
BRANCH  12  11
ATOM     11  C   UNL     1      -0.868  -0.260  24.633  0.00  0.00    +0.027 C 
BRANCH  11  10
ATOM     10  C   UNL     1      -1.448  -0.770  24.923  0.00  0.00    +0.087 C 
BRANCH  10   8
ATOM      1  C   UNL     1      -4.311  -3.115  24.149  0.00  0.00    +0.090 C 
ATOM      2  N   UNL     1      -3.596  -2.727  24.286  0.00  0.00    -0.269 NA
ATOM      3  C   UNL     1      -3.593  -1.934  24.513  0.00  0.00    +0.094 C 
ATOM      4  C   UNL     1      -2.879  -1.546  24.650  0.00  0.00    +0.111 C 
ATOM      5  N   UNL     1      -2.165  -1.951  24.560  0.00  0.00    -0.277 N 
ATOM      6  C   UNL     1      -2.168  -2.745  24.333  0.00  0.00    +0.111 C 
ATOM      7  C   UNL     1      -2.883  -3.132  24.196  0.00  0.00    +0.094 C 
ATOM      8  C   UNL     1      -1.451  -1.564  24.696  0.00  0.00    +0.226 C 
ATOM      9  O   UNL     1      -0.737  -1.969  24.607  0.00  0.00    -0.275 OA
ENDBRANCH  10   8
ENDBRANCH  11  10
ENDBRANCH  12  11
BRANCH  21  22
ATOM     22  C   UNL     1      -0.728   3.794  25.428  0.00  0.00    +0.121 C 
BRANCH  22  23
ATOM     23  C   UNL     1      -1.003   4.539  25.205  0.00  0.00    +0.105 A 
ATOM     24  C   UNL     1      -1.764   4.834  25.333  0.00  0.00    +0.074 A 
ATOM     25  S   UNL     1      -1.797   5.597  25.022  0.00  0.00    +0.038 S 
ATOM     26  N   UNL     1      -1.058   5.775  24.702  0.00  0.00    -0.110 NA
ATOM     27  N   UNL     1      -0.567   5.121  24.815  0.00  0.00    -0.143 NA
ENDBRANCH  22  23
ENDBRANCH  21  22
TORSDOF 5
ENDMDL
MODEL 5
REMARK VINA RESULT:      -6.9     14.019     14.640
REMARK  Name = 
REMARK  5 active torsions:
REMARK  status: ('A' for Active; 'I' for Inactive)
REMARK    1  A    between atoms: C_8  and  C_10
REMARK    2  A    between atoms: C_10  and  C_11
REMARK    3  A    between atoms: C_11  and  C_12
REMARK    4  A    between atoms: N_21  and  C_22
REMARK    5  A    between atoms: C_22  and  C_23
REMARK                            x       y       z     vdW  Elec       q    Type
REMARK                         _______ _______ _______ _____ _____    ______ ____
ROOT
ATOM     12  C   UNL     1      -5.432 -10.256  15.785  0.00  0.00    +0.080 C 
ATOM     13  C   UNL     1      -5.819 -10.316  15.058  0.00  0.00    +0.131 C 
ATOM     14  N   UNL     1      -6.612 -10.169  14.885  0.00  0.00    -0.203 NA
ATOM     15  C   UNL     1      -7.213  -9.928  15.394  0.00  0.00    +0.257 C 
ATOM     16  O   UNL     1      -7.957  -9.828  15.048  0.00  0.00    -0.272 OA
ATOM     17  C   UNL     1      -7.172  -9.773  16.203  0.00  0.00    +0.152 C 
ATOM     18  C   UNL     1      -6.517  -9.821  16.703  0.00  0.00    +0.083 C 
ATOM     19  C   UNL     1      -6.760  -9.610  17.463  0.00  0.00    +0.035 C 
ATOM     20  C   UNL     1      -7.566  -9.432  17.432  0.00  0.00    +0.074 C 
ATOM     21  N   UNL     1      -7.820  -9.532  16.654  0.00  0.00    -0.260 NA
ATOM     28  N   UNL     1      -5.743 -10.036  16.516  0.00  0.00    -0.271 NA
ATOM     29  C   UNL     1      -5.209 -10.030  17.146  0.00  0.00    +0.090 C 
ENDROOT
BRANCH  12  11
ATOM     11  C   UNL     1      -4.628 -10.442  15.779  0.00  0.00    +0.027 C 
BRANCH  11  10
ATOM     10  C   UNL     1      -4.230 -10.530  15.062  0.00  0.00    +0.087 C 
BRANCH  10   8
ATOM      1  C   UNL     1      -1.770 -10.642  12.193  0.00  0.00    +0.090 C 
ATOM      2  N   UNL     1      -2.181 -10.644  12.909  0.00  0.00    -0.269 NA
ATOM      3  C   UNL     1      -2.997 -10.522  12.916  0.00  0.00    +0.094 C 
ATOM      4  C   UNL     1      -3.408 -10.525  13.631  0.00  0.00    +0.111 C 
ATOM      5  N   UNL     1      -3.004 -10.649  14.339  0.00  0.00    -0.277 N 
ATOM      6  C   UNL     1      -2.187 -10.771  14.332  0.00  0.00    +0.111 C 
ATOM      7  C   UNL     1      -1.777 -10.769  13.617  0.00  0.00    +0.094 C 
ATOM      8  C   UNL     1      -3.414 -10.652  15.054  0.00  0.00    +0.226 C 
ATOM      9  O   UNL     1      -3.010 -10.777  15.763  0.00  0.00    -0.275 OA
ENDBRANCH  10   8
ENDBRANCH  11  10
ENDBRANCH  12  11
BRANCH  21  22
ATOM     22  C   UNL     1      -8.588  -9.413  16.375  0.00  0.00    +0.121 C 
BRANCH  22  23
ATOM     23  C   UNL     1      -9.150  -9.053  16.859  0.00  0.00    +0.105 A 
ATOM     24  C   UNL     1      -9.733  -9.441  17.297  0.00  0.00    +0.074 A 
ATOM     25  S   UNL     1     -10.172  -8.869  17.698  0.00  0.00    +0.038 S 
ATOM     26  N   UNL     1      -9.862  -8.129  17.509  0.00  0.00    -0.110 NA
ATOM     27  N   UNL     1      -9.230  -8.242  16.990  0.00  0.00    -0.143 NA
ENDBRANCH  22  23
ENDBRANCH  21  22
TORSDOF 5
ENDMDL
MODEL 6
REMARK VINA RESULT:      -6.8     15.136     16.366
REMARK  Name = 
REMARK  5 active torsions:
REMARK  status: ('A' for Active; 'I' for Inactive)
REMARK    1  A    between atoms: C_8  and  C_10
REMARK    2  A    between atoms: C_10  and  C_11
REMARK    3  A    between atoms: C_11  and  C_12
REMARK    4  A    between atoms: N_21  and  C_22
REMARK    5  A    between atoms: C_22  and  C_23
REMARK                            x       y       z     vdW  Elec       q    Type
REMARK                         _______ _______ _______ _____ _____    ______ ____
ROOT
ATOM     12  C   UNL     1      -4.514 -10.548  14.362  0.00  0.00    +0.080 C 
ATOM     13  C   UNL     1      -5.316 -10.378  14.262  0.00  0.00    +0.131 C 
ATOM     14  N   UNL     1      -5.716 -10.169  13.572  0.00  0.00    -0.203 NA
ATOM     15  C   UNL     1      -5.413 -10.077  12.811  0.00  0.00    +0.257 C 
ATOM     16  O   UNL     1      -5.960  -9.861  12.231  0.00  0.00    -0.272 OA
ATOM     17  C   UNL     1      -4.636 -10.171  12.551  0.00  0.00    +0.152 C 
ATOM     18  C   UNL     1      -3.969 -10.382  12.989  0.00  0.00    +0.083 C 
ATOM     19  C   UNL     1      -3.323 -10.403  12.475  0.00  0.00    +0.035 C 
ATOM     20  C   UNL     1      -3.591 -10.205  11.720  0.00  0.00    +0.074 C 
ATOM     21  N   UNL     1      -4.402 -10.062  11.767  0.00  0.00    -0.260 NA
ATOM     28  N   UNL     1      -3.915 -10.549  13.794  0.00  0.00    -0.271 NA
ATOM     29  C   UNL     1      -3.162 -10.744  14.070  0.00  0.00    +0.090 C 
ENDROOT
BRANCH  12  11
ATOM     11  C   UNL     1      -4.281 -10.741  15.129  0.00  0.00    +0.027 C 
BRANCH  11  10
ATOM     10  C   UNL     1      -4.773 -10.564  15.766  0.00  0.00    +0.087 C 
BRANCH  10   8
ATOM      1  C   UNL     1      -6.635 -10.630  19.057  0.00  0.00    +0.090 C 
ATOM      2  N   UNL     1      -6.102 -10.639  18.427  0.00  0.00    -0.269 NA
ATOM      3  C   UNL     1      -6.373 -10.535  17.654  0.00  0.00    +0.094 C 
ATOM      4  C   UNL     1      -5.840 -10.545  17.026  0.00  0.00    +0.111 C 
ATOM      5  N   UNL     1      -5.035 -10.658  17.168  0.00  0.00    -0.277 N 
ATOM      6  C   UNL     1      -4.764 -10.762  17.941  0.00  0.00    +0.111 C 
ATOM      7  C   UNL     1      -5.297 -10.752  18.569  0.00  0.00    +0.094 C 
ATOM      8  C   UNL     1      -4.502 -10.668  16.539  0.00  0.00    +0.226 C 
ATOM      9  O   UNL     1      -3.697 -10.781  16.681  0.00  0.00    -0.275 OA
ENDBRANCH  10   8
ENDBRANCH  11  10
ENDBRANCH  12  11
BRANCH  21  22
ATOM     22  C   UNL     1      -4.894  -9.848  11.139  0.00  0.00    +0.121 C 
BRANCH  22  23
ATOM     23  C   UNL     1      -4.576  -9.735  10.387  0.00  0.00    +0.105 A 
ATOM     24  C   UNL     1      -4.345  -9.013  10.060  0.00  0.00    +0.074 A 
ATOM     25  S   UNL     1      -4.059  -9.156   9.300  0.00  0.00    +0.038 S 
ATOM     26  N   UNL     1      -4.112  -9.966   9.156  0.00  0.00    -0.110 NA
ATOM     27  N   UNL     1      -4.431 -10.324   9.828  0.00  0.00    -0.143 NA
ENDBRANCH  22  23
ENDBRANCH  21  22
TORSDOF 5
ENDMDL
MODEL 7
REMARK VINA RESULT:      -6.7      3.362      4.810
REMARK  Name = 
REMARK  5 active torsions:
REMARK  status: ('A' for Active; 'I' for Inactive)
REMARK    1  A    between atoms: C_8  and  C_10
REMARK    2  A    between atoms: C_10  and  C_11
REMARK    3  A    between atoms: C_11  and  C_12
REMARK    4  A    between atoms: N_21  and  C_22
REMARK    5  A    between atoms: C_22  and  C_23
REMARK                            x       y       z     vdW  Elec       q    Type
REMARK                         _______ _______ _______ _____ _____    ______ ____
ROOT
ATOM     12  C   UNL     1      -3.374   1.223  24.794  0.00  0.00    +0.080 C 
ATOM     13  C   UNL     1      -2.641   0.942  25.049  0.00  0.00    +0.131 C 
ATOM     14  N   UNL     1      -1.977   1.372  25.281  0.00  0.00    -0.203 NA
ATOM     15  C   UNL     1      -1.881   2.191  25.314  0.00  0.00    +0.257 C 
ATOM     16  O   UNL     1      -1.142   2.455  25.571  0.00  0.00    -0.272 OA
ATOM     17  C   UNL     1      -2.425   2.781  25.125  0.00  0.00    +0.152 C 
ATOM     18  C   UNL     1      -3.200   2.698  24.855  0.00  0.00    +0.083 C 
ATOM     19  C   UNL     1      -3.514   3.454  24.746  0.00  0.00    +0.035 C 
ATOM     20  C   UNL     1      -2.933   4.003  24.948  0.00  0.00    +0.074 C 
ATOM     21  N   UNL     1      -2.260   3.588  25.182  0.00  0.00    -0.260 NA
ATOM     28  N   UNL     1      -3.622   2.005  24.708  0.00  0.00    -0.271 NA
ATOM     29  C   UNL     1      -4.396   2.107  24.439  0.00  0.00    +0.090 C 
ENDROOT
BRANCH  12  11
ATOM     11  C   UNL     1      -3.931   0.647  24.600  0.00  0.00    +0.027 C 
BRANCH  11  10
ATOM     10  C   UNL     1      -3.738  -0.152  24.665  0.00  0.00    +0.087 C 
BRANCH  10   8
ATOM      1  C   UNL     1      -3.261  -3.883  24.273  0.00  0.00    +0.090 C 
ATOM      2  N   UNL     1      -3.499  -3.093  24.281  0.00  0.00    -0.269 NA
ATOM      3  C   UNL     1      -3.025  -2.522  24.643  0.00  0.00    +0.094 C 
ATOM      4  C   UNL     1      -3.263  -1.733  24.650  0.00  0.00    +0.111 C 
ATOM      5  N   UNL     1      -3.974  -1.512  24.295  0.00  0.00    -0.277 N 
ATOM      6  C   UNL     1      -4.447  -2.083  23.932  0.00  0.00    +0.111 C 
ATOM      7  C   UNL     1      -4.210  -2.872  23.925  0.00  0.00    +0.094 C 
ATOM      8  C   UNL     1      -4.211  -0.723  24.302  0.00  0.00    +0.226 C 
ATOM      9  O   UNL     1      -4.923  -0.502  23.947  0.00  0.00    -0.275 OA
ENDBRANCH  10   8
ENDBRANCH  11  10
ENDBRANCH  12  11
BRANCH  21  22
ATOM     22  C   UNL     1      -1.546   3.920  25.430  0.00  0.00    +0.121 C 
BRANCH  22  23
ATOM     23  C   UNL     1      -1.331   4.673  25.172  0.00  0.00    +0.105 A 
ATOM     24  C   UNL     1      -0.698   4.853  24.673  0.00  0.00    +0.074 A 
ATOM     25  S   UNL     1      -0.687   5.669  24.561  0.00  0.00    +0.038 S 
ATOM     26  N   UNL     1      -1.311   5.996  24.989  0.00  0.00    -0.110 NA
ATOM     27  N   UNL     1      -1.710   5.380  25.367  0.00  0.00    -0.143 NA
ENDBRANCH  22  23
ENDBRANCH  21  22
TORSDOF 5
ENDMDL
MODEL 8
REMARK VINA RESULT:      -6.4     14.290     15.849
REMARK  Name = 
REMARK  5 active torsions:
REMARK  status: ('A' for Active; 'I' for Inactive)
REMARK    1  A    between atoms: C_8  and  C_10
REMARK    2  A    between atoms: C_10  and  C_11
REMARK    3  A    between atoms: C_11  and  C_12
REMARK    4  A    between atoms: N_21  and  C_22
REMARK    5  A    between atoms: C_22  and  C_23
REMARK                            x       y       z     vdW  Elec       q    Type
REMARK                         _______ _______ _______ _____ _____    ______ ____
ROOT
ATOM     12  C   UNL     1      -4.243 -10.704  16.011  0.00  0.00    +0.080 C 
ATOM     13  C   UNL     1      -4.954 -10.660  15.594  0.00  0.00    +0.131 C 
ATOM     14  N   UNL     1      -5.071 -10.639  14.778  0.00  0.00    -0.203 NA
ATOM     15  C   UNL     1      -4.506 -10.657  14.177  0.00  0.00    +0.257 C 
ATOM     16  O   UNL     1      -4.802 -10.628  13.407  0.00  0.00    -0.272 OA
ATOM     17  C   UNL     1      -3.685 -10.700  14.244  0.00  0.00    +0.152 C 
ATOM     18  C   UNL     1      -3.226 -10.736  14.928  0.00  0.00    +0.083 C 
ATOM     19  C   UNL     1      -2.433 -10.772  14.702  0.00  0.00    +0.035 C 
ATOM     20  C   UNL     1      -2.403 -10.759  13.877  0.00  0.00    +0.074 C 
ATOM     21  N   UNL     1      -3.176 -10.714  13.594  0.00  0.00    -0.260 NA
ATOM     28  N   UNL     1      -3.475 -10.738  15.715  0.00  0.00    -0.271 NA
ATOM     29  C   UNL     1      -2.874 -10.778  16.280  0.00  0.00    +0.090 C 
ENDROOT
BRANCH  12  11
ATOM     11  C   UNL     1      -4.311 -10.715  16.833  0.00  0.00    +0.027 C 
BRANCH  11  10
ATOM     10  C   UNL     1      -5.056 -10.743  17.186  0.00  0.00    +0.087 C 
BRANCH  10   8
ATOM      1  C   UNL     1      -8.107 -10.781  19.419  0.00  0.00    +0.090 C 
ATOM      2  N   UNL     1      -7.361 -10.775  19.066  0.00  0.00    -0.269 NA
ATOM      3  C   UNL     1      -7.293 -10.762  18.244  0.00  0.00    +0.094 C 
ATOM      4  C   UNL     1      -6.548 -10.756  17.891  0.00  0.00    +0.111 C 
ATOM      5  N   UNL     1      -5.869 -10.762  18.361  0.00  0.00    -0.277 N 
ATOM      6  C   UNL     1      -5.937 -10.775  19.183  0.00  0.00    +0.111 C 
ATOM      7  C   UNL     1      -6.682 -10.781  19.535  0.00  0.00    +0.094 C 
ATOM      8  C   UNL     1      -5.124 -10.756  18.008  0.00  0.00    +0.226 C 
ATOM      9  O   UNL     1      -4.445 -10.762  18.477  0.00  0.00    -0.275 OA
ENDBRANCH  10   8
ENDBRANCH  11  10
ENDBRANCH  12  11
BRANCH  21  22
ATOM     22  C   UNL     1      -3.402 -10.689  12.801  0.00  0.00    +0.121 C 
BRANCH  22  23
ATOM     23  C   UNL     1      -2.856 -10.464  12.224  0.00  0.00    +0.105 A 
ATOM     24  C   UNL     1      -2.939 -10.570  11.410  0.00  0.00    +0.074 A 
ATOM     25  S   UNL     1      -2.266 -10.265  11.044  0.00  0.00    +0.038 S 
ATOM     26  N   UNL     1      -1.767  -9.970  11.630  0.00  0.00    -0.110 NA
ATOM     27  N   UNL     1      -2.132 -10.093  12.360  0.00  0.00    -0.143 NA
ENDBRANCH  22  23
ENDBRANCH  21  22
TORSDOF 5
ENDMDL
MODEL 9
REMARK VINA RESULT:      -6.3     17.635     18.748
REMARK  Name = 
REMARK  5 active torsions:
REMARK  status: ('A' for Active; 'I' for Inactive)
REMARK    1  A    between atoms: C_8  and  C_10
REMARK    2  A    between atoms: C_10  and  C_11
REMARK    3  A    between atoms: C_11  and  C_12
REMARK    4  A    between atoms: N_21  and  C_22
REMARK    5  A    between atoms: C_22  and  C_23
REMARK                            x       y       z     vdW  Elec       q    Type
REMARK                         _______ _______ _______ _____ _____    ______ ____
ROOT
ATOM     12  C   UNL     1      -6.600  -9.047   9.732  0.00  0.00    +0.080 C 
ATOM     13  C   UNL     1      -6.209  -8.958   9.010  0.00  0.00    +0.131 C 
ATOM     14  N   UNL     1      -5.404  -9.033   8.849  0.00  0.00    -0.203 NA
ATOM     15  C   UNL     1      -4.791  -9.215   9.369  0.00  0.00    +0.257 C 
ATOM     16  O   UNL     1      -4.036  -9.250   9.035  0.00  0.00    -0.272 OA
ATOM     17  C   UNL     1      -4.830  -9.368  10.179  0.00  0.00    +0.152 C 
ATOM     18  C   UNL     1      -5.494  -9.376  10.669  0.00  0.00    +0.083 C 
ATOM     19  C   UNL     1      -5.244  -9.558  11.434  0.00  0.00    +0.035 C 
ATOM     20  C   UNL     1      -4.426  -9.663  11.416  0.00  0.00    +0.074 C 
ATOM     21  N   UNL     1      -4.170  -9.545  10.641  0.00  0.00    -0.260 NA
ATOM     28  N   UNL     1      -6.282  -9.233  10.469  0.00  0.00    -0.271 NA
ATOM     29  C   UNL     1      -6.823  -9.282  11.091  0.00  0.00    +0.090 C 
ENDROOT
BRANCH  12  11
ATOM     11  C   UNL     1      -7.417  -8.935   9.713  0.00  0.00    +0.027 C 
BRANCH  11  10
ATOM     10  C   UNL     1      -7.742  -8.347   9.234  0.00  0.00    +0.087 C 
BRANCH  10   8
ATOM      1  C   UNL     1      -9.896  -5.444   8.124  0.00  0.00    +0.090 C 
ATOM      2  N   UNL     1      -9.562  -6.153   8.383  0.00  0.00    -0.269 NA
ATOM      3  C   UNL     1      -8.743  -6.222   8.455  0.00  0.00    +0.094 C 
ATOM      4  C   UNL     1      -8.410  -6.929   8.715  0.00  0.00    +0.111 C 
ATOM      5  N   UNL     1      -8.895  -7.570   8.903  0.00  0.00    -0.277 N 
ATOM      6  C   UNL     1      -9.714  -7.501   8.831  0.00  0.00    +0.111 C 
ATOM      7  C   UNL     1     -10.047  -6.793   8.572  0.00  0.00    +0.094 C 
ATOM      8  C   UNL     1      -8.561  -8.278   9.163  0.00  0.00    +0.226 C 
ATOM      9  O   UNL     1      -9.047  -8.918   9.351  0.00  0.00    -0.275 OA
ENDBRANCH  10   8
ENDBRANCH  11  10
ENDBRANCH  12  11
BRANCH  21  22
ATOM     22  C   UNL     1      -3.391  -9.596  10.374  0.00  0.00    +0.121 C 
BRANCH  22  23
ATOM     23  C   UNL     1      -2.808  -9.914  10.864  0.00  0.00    +0.105 A 
ATOM     24  C   UNL     1      -2.158  -9.507  11.171  0.00  0.00    +0.074 A 
ATOM     25  S   UNL     1      -1.721 -10.035  11.629  0.00  0.00    +0.038 S 
ATOM     26  N   UNL     1      -2.099 -10.767  11.607  0.00  0.00    -0.110 NA
ATOM     27  N   UNL     1      -2.771 -10.692  11.134  0.00  0.00    -0.143 NA
ENDBRANCH  22  23
ENDBRANCH  21  22
TORSDOF 5
ENDMDL
MODEL 10
REMARK VINA RESULT:      -4.2     14.477     16.742
REMARK  Name = 
REMARK  5 active torsions:
REMARK  status: ('A' for Active; 'I' for Inactive)
REMARK    1  A    between atoms: C_8  and  C_10
REMARK    2  A    between atoms: C_10  and  C_11
REMARK    3  A    between atoms: C_11  and  C_12
REMARK    4  A    between atoms: N_21  and  C_22
REMARK    5  A    between atoms: C_22  and  C_23
REMARK                            x       y       z     vdW  Elec       q    Type
REMARK                         _______ _______ _______ _____ _____    ______ ____
ROOT
ATOM     12  C   UNL     1      13.551   7.317  19.372  0.00  0.00    +0.080 C 
ATOM     13  C   UNL     1      12.904   6.835  19.198  0.00  0.00    +0.131 C 
ATOM     14  N   UNL     1      12.224   6.704  19.647  0.00  0.00    -0.203 NA
ATOM     15  C   UNL     1      12.024   7.022  20.380  0.00  0.00    +0.257 C 
ATOM     16  O   UNL     1      11.297   6.781  20.689  0.00  0.00    -0.272 OA
ATOM     17  C   UNL     1      12.453   7.550  20.847  0.00  0.00    +0.152 C 
ATOM     18  C   UNL     1      13.189   7.890  20.695  0.00  0.00    +0.083 C 
ATOM     19  C   UNL     1      13.380   8.379  21.332  0.00  0.00    +0.035 C 
ATOM     20  C   UNL     1      12.762   8.341  21.877  0.00  0.00    +0.074 C 
ATOM     21  N   UNL     1      12.189   7.829  21.578  0.00  0.00    -0.260 NA
ATOM     28  N   UNL     1      13.677   7.786  20.038  0.00  0.00    -0.271 NA
ATOM     29  C   UNL     1      14.387   8.208  20.050  0.00  0.00    +0.090 C 
ENDROOT
BRANCH  12  11
ATOM     11  C   UNL     1      14.150   7.332  18.805  0.00  0.00    +0.027 C 
BRANCH  11  10
ATOM     10  C   UNL     1      14.042   7.749  18.102  0.00  0.00    +0.087 C 
BRANCH  10   8
ATOM      1  C   UNL     1      13.908   9.094  14.571  0.00  0.00    +0.090 C 
ATOM      2  N   UNL     1      14.047   8.704  15.284  0.00  0.00    -0.269 NA
ATOM      3  C   UNL     1      13.627   8.919  15.961  0.00  0.00    +0.094 C 
ATOM      4  C   UNL     1      13.765   8.530  16.674  0.00  0.00    +0.111 C 
ATOM      5  N   UNL     1      14.324   7.923  16.712  0.00  0.00    -0.277 N 
ATOM      6  C   UNL     1      14.744   7.708  16.035  0.00  0.00    +0.111 C 
ATOM      7  C   UNL     1      14.606   8.098  15.322  0.00  0.00    +0.094 C 
ATOM      8  C   UNL     1      14.463   7.534  17.425  0.00  0.00    +0.226 C 
ATOM      9  O   UNL     1      15.021   6.928  17.463  0.00  0.00    -0.275 OA
ENDBRANCH  10   8
ENDBRANCH  11  10
ENDBRANCH  12  11
BRANCH  21  22
ATOM     22  C   UNL     1      11.477   7.630  21.945  0.00  0.00    +0.121 C 
BRANCH  22  23
ATOM     23  C   UNL     1      11.064   8.198  22.377  0.00  0.00    +0.105 A 
ATOM     24  C   UNL     1      10.361   8.566  22.148  0.00  0.00    +0.074 A 
ATOM     25  S   UNL     1      10.144   9.093  22.744  0.00  0.00    +0.038 S 
ATOM     26  N   UNL     1      10.711   9.052  23.341  0.00  0.00    -0.110 NA
ATOM     27  N   UNL     1      11.280   8.499  23.114  0.00  0.00    -0.143 NA
ENDBRANCH  22  23
ENDBRANCH  21  22
TORSDOF 5
ENDMDL
