MODEL 1
REMARK VINA RESULT:     -12.3      0.000      0.000
REMARK  Name = 
REMARK  4 active torsions:
REMARK  status: ('A' for Active; 'I' for Inactive)
REMARK    1  A    between atoms: C_2  and  C_5
REMARK    2  A    between atoms: C_8  and  O_9
REMARK    3  A    between atoms: O_9  and  C_10
REMARK    4  A    between atoms: C_17  and  C_19
REMARK                            x       y       z     vdW  Elec       q    Type
REMARK                         _______ _______ _______ _____ _____    ______ ____
ROOT
ATOM     10  C   UNL     1      -2.928   0.941  24.615  0.00  0.00    +0.215 C 
ATOM     11  C   UNL     1      -2.277   0.720  24.158  0.00  0.00    +0.187 C 
ATOM     12  O   UNL     1      -1.942   1.114  23.516  0.00  0.00    -0.348 OA
ATOM     13  C   UNL     1      -2.173   1.827  23.171  0.00  0.00    +0.164 C 
ATOM     14  C   UNL     1      -2.798   2.321  23.385  0.00  0.00    +0.126 C 
ATOM     15  N   UNL     1      -3.345   2.225  23.995  0.00  0.00    -0.268 N 
ATOM     16  C   UNL     1      -3.402   1.611  24.542  0.00  0.00    +0.140 C 
ATOM     17  C   UNL     1      -3.910   2.823  24.067  0.00  0.00    +0.268 C 
ATOM     18  O   UNL     1      -3.901   3.463  23.547  0.00  0.00    -0.268 OA
ENDROOT
BRANCH  17  19
ATOM     19  C   UNL     1      -4.482   2.780  24.659  0.00  0.00    +0.154 A 
ATOM     20  C   UNL     1      -4.338   3.123  25.396  0.00  0.00    +0.123 A 
ATOM     21  N   UNL     1      -4.911   3.080  25.989  0.00  0.00    -0.239 NA
ATOM     22  C   UNL     1      -5.626   2.695  25.845  0.00  0.00    +0.120 A 
ATOM     23  C   UNL     1      -5.769   2.352  25.109  0.00  0.00    +0.120 A 
ATOM     24  N   UNL     1      -5.196   2.395  24.516  0.00  0.00    -0.236 NA
ENDBRANCH  17  19
BRANCH  10   9
ATOM      9  O   UNL     1      -3.128   0.424  25.225  0.00  0.00    -0.475 OA
BRANCH   9   8
ATOM      5  C   UNL     1      -3.506  -1.974  24.742  0.00  0.00    +0.072 A 
ATOM      6  C   UNL     1      -4.088  -1.419  24.557  0.00  0.00    +0.007 A 
ATOM      7  C   UNL     1      -3.962  -0.621  24.718  0.00  0.00    +0.037 A 
ATOM      8  C   UNL     1      -3.254  -0.376  25.064  0.00  0.00    +0.139 A 
ATOM     25  C   UNL     1      -2.672  -0.931  25.249  0.00  0.00    +0.037 A 
ATOM     26  C   UNL     1      -2.798  -1.729  25.088  0.00  0.00    +0.007 A 
BRANCH   5   2
ATOM      1  F   UNL     1      -3.758  -3.573  24.420  0.00  0.00    -0.166 F 
ATOM      2  C   UNL     1      -3.632  -2.773  24.581  0.00  0.00    +0.419 C 
ATOM      3  F   UNL     1      -3.678  -2.604  23.775  0.00  0.00    -0.166 F 
ATOM      4  F   UNL     1      -3.587  -2.943  25.387  0.00  0.00    -0.166 F 
ENDBRANCH   5   2
ENDBRANCH   9   8
ENDBRANCH  10   9
TORSDOF 4
ENDMDL
MODEL 2
REMARK VINA RESULT:     -11.8      1.463      2.412
REMARK  Name = 
REMARK  4 active torsions:
REMARK  status: ('A' for Active; 'I' for Inactive)
REMARK    1  A    between atoms: C_2  and  C_5
REMARK    2  A    between atoms: C_8  and  O_9
REMARK    3  A    between atoms: O_9  and  C_10
REMARK    4  A    between atoms: C_17  and  C_19
REMARK                            x       y       z     vdW  Elec       q    Type
REMARK                         _______ _______ _______ _____ _____    ______ ____
ROOT
ATOM     10  C   UNL     1      -3.986   1.510  24.638  0.00  0.00    +0.215 C 
ATOM     11  C   UNL     1      -4.785   1.310  24.689  0.00  0.00    +0.187 C 
ATOM     12  O   UNL     1      -5.401   1.735  25.035  0.00  0.00    -0.348 OA
ATOM     13  C   UNL     1      -5.371   2.465  25.417  0.00  0.00    +0.164 C 
ATOM     14  C   UNL     1      -4.717   2.951  25.546  0.00  0.00    +0.126 C 
ATOM     15  N   UNL     1      -3.931   2.826  25.326  0.00  0.00    -0.268 N 
ATOM     16  C   UNL     1      -3.607   2.185  24.922  0.00  0.00    +0.140 C 
ATOM     17  C   UNL     1      -3.401   3.422  25.538  0.00  0.00    +0.268 C 
ATOM     18  O   UNL     1      -3.670   4.088  25.944  0.00  0.00    -0.268 OA
ENDROOT
BRANCH  17  19
ATOM     19  C   UNL     1      -2.603   3.352  25.343  0.00  0.00    +0.154 A 
ATOM     20  C   UNL     1      -2.338   3.588  24.598  0.00  0.00    +0.123 A 
ATOM     21  N   UNL     1      -1.539   3.518  24.403  0.00  0.00    -0.239 NA
ATOM     22  C   UNL     1      -1.006   3.210  24.953  0.00  0.00    +0.120 A 
ATOM     23  C   UNL     1      -1.271   2.974  25.697  0.00  0.00    +0.120 A 
ATOM     24  N   UNL     1      -2.070   3.045  25.892  0.00  0.00    -0.236 NA
ENDBRANCH  17  19
BRANCH  10   9
ATOM      9  O   UNL     1      -3.504   0.963  24.253  0.00  0.00    -0.475 OA
BRANCH   9   8
ATOM      5  C   UNL     1      -3.561  -1.421  24.915  0.00  0.00    +0.072 A 
ATOM      6  C   UNL     1      -4.002  -1.161  24.269  0.00  0.00    +0.007 A 
ATOM      7  C   UNL     1      -3.984  -0.367  24.048  0.00  0.00    +0.037 A 
ATOM      8  C   UNL     1      -3.523   0.168  24.473  0.00  0.00    +0.139 A 
ATOM     25  C   UNL     1      -3.080  -0.091  25.120  0.00  0.00    +0.037 A 
ATOM     26  C   UNL     1      -3.099  -0.885  25.341  0.00  0.00    +0.007 A 
BRANCH   5   2
ATOM      1  F   UNL     1      -3.598  -3.010  25.356  0.00  0.00    -0.166 F 
ATOM      2  C   UNL     1      -3.580  -2.216  25.136  0.00  0.00    +0.419 C 
ATOM      3  F   UNL     1      -3.603  -1.994  25.930  0.00  0.00    -0.166 F 
ATOM      4  F   UNL     1      -3.556  -2.437  24.341  0.00  0.00    -0.166 F 
ENDBRANCH   5   2
ENDBRANCH   9   8
ENDBRANCH  10   9
TORSDOF 4
ENDMDL
MODEL 3
REMARK VINA RESULT:     -11.4      1.790      2.200
REMARK  Name = 
REMARK  4 active torsions:
REMARK  status: ('A' for Active; 'I' for Inactive)
REMARK    1  A    between atoms: C_2  and  C_5
REMARK    2  A    between atoms: C_8  and  O_9
REMARK    3  A    between atoms: O_9  and  C_10
REMARK    4  A    between atoms: C_17  and  C_19
REMARK                            x       y       z     vdW  Elec       q    Type
REMARK                         _______ _______ _______ _____ _____    ______ ____
ROOT
ATOM     10  C   UNL     1      -1.549   0.445  24.895  0.00  0.00    +0.215 C 
ATOM     11  C   UNL     1      -1.068  -0.173  24.633  0.00  0.00    +0.187 C 
ATOM     12  O   UNL     1      -0.353  -0.130  24.224  0.00  0.00    -0.348 OA
ATOM     13  C   UNL     1       0.058   0.541  23.977  0.00  0.00    +0.164 C 
ATOM     14  C   UNL     1      -0.145   1.334  24.077  0.00  0.00    +0.126 C 
ATOM     15  N   UNL     1      -0.808   1.653  24.450  0.00  0.00    -0.268 N 
ATOM     16  C   UNL     1      -1.433   1.256  24.814  0.00  0.00    +0.140 C 
ATOM     17  C   UNL     1      -0.852   2.477  24.459  0.00  0.00    +0.268 C 
ATOM     18  O   UNL     1      -0.255   2.926  24.110  0.00  0.00    -0.268 OA
ENDROOT
BRANCH  17  19
ATOM     19  C   UNL     1      -1.494   2.851  24.818  0.00  0.00    +0.154 A 
ATOM     20  C   UNL     1      -1.462   3.046  25.620  0.00  0.00    +0.123 A 
ATOM     21  N   UNL     1      -2.104   3.420  25.979  0.00  0.00    -0.239 NA
ATOM     22  C   UNL     1      -2.777   3.599  25.537  0.00  0.00    +0.120 A 
ATOM     23  C   UNL     1      -2.810   3.404  24.736  0.00  0.00    +0.120 A 
ATOM     24  N   UNL     1      -2.167   3.030  24.377  0.00  0.00    -0.236 NA
ENDBRANCH  17  19
BRANCH  10   9
ATOM      9  O   UNL     1      -2.237   0.218  25.292  0.00  0.00    -0.475 OA
BRANCH   9   8
ATOM      5  C   UNL     1      -3.708  -1.522  24.326  0.00  0.00    +0.072 A 
ATOM      6  C   UNL     1      -3.751  -0.746  24.051  0.00  0.00    +0.007 A 
ATOM      7  C   UNL     1      -3.261  -0.166  24.372  0.00  0.00    +0.037 A 
ATOM      8  C   UNL     1      -2.727  -0.362  24.970  0.00  0.00    +0.139 A 
ATOM     25  C   UNL     1      -2.683  -1.139  25.246  0.00  0.00    +0.037 A 
ATOM     26  C   UNL     1      -3.173  -1.718  24.924  0.00  0.00    +0.007 A 
BRANCH   5   2
ATOM      1  F   UNL     1      -4.689  -2.682  23.683  0.00  0.00    -0.166 F 
ATOM      2  C   UNL     1      -4.198  -2.102  24.005  0.00  0.00    +0.419 C 
ATOM      3  F   UNL     1      -3.583  -2.649  24.053  0.00  0.00    -0.166 F 
ATOM      4  F   UNL     1      -4.814  -1.555  23.956  0.00  0.00    -0.166 F 
ENDBRANCH   5   2
ENDBRANCH   9   8
ENDBRANCH  10   9
TORSDOF 4
ENDMDL
MODEL 4
REMARK VINA RESULT:     -11.1      2.791      4.248
REMARK  Name = 
REMARK  4 active torsions:
REMARK  status: ('A' for Active; 'I' for Inactive)
REMARK    1  A    between atoms: C_2  and  C_5
REMARK    2  A    between atoms: C_8  and  O_9
REMARK    3  A    between atoms: O_9  and  C_10
REMARK    4  A    between atoms: C_17  and  C_19
REMARK                            x       y       z     vdW  Elec       q    Type
REMARK                         _______ _______ _______ _____ _____    ______ ____
ROOT
ATOM     10  C   UNL     1      -2.274   2.667  24.514  0.00  0.00    +0.215 C 
ATOM     11  C   UNL     1      -2.496   3.436  24.715  0.00  0.00    +0.187 C 
ATOM     12  O   UNL     1      -2.073   3.997  25.147  0.00  0.00    -0.348 OA
ATOM     13  C   UNL     1      -1.324   3.929  25.485  0.00  0.00    +0.164 C 
ATOM     14  C   UNL     1      -0.812   3.281  25.473  0.00  0.00    +0.126 C 
ATOM     15  N   UNL     1      -0.924   2.543  25.122  0.00  0.00    -0.268 N 
ATOM     16  C   UNL     1      -1.574   2.270  24.695  0.00  0.00    +0.140 C 
ATOM     17  C   UNL     1      -0.302   2.008  25.209  0.00  0.00    +0.268 C 
ATOM     18  O   UNL     1       0.375   2.226  25.627  0.00  0.00    -0.268 OA
ENDROOT
BRANCH  17  19
ATOM     19  C   UNL     1      -0.358   1.254  24.879  0.00  0.00    +0.154 A 
ATOM     20  C   UNL     1      -0.115   1.127  24.100  0.00  0.00    +0.123 A 
ATOM     21  N   UNL     1      -0.171   0.372  23.769  0.00  0.00    -0.239 NA
ATOM     22  C   UNL     1      -0.469  -0.253  24.217  0.00  0.00    +0.120 A 
ATOM     23  C   UNL     1      -0.712  -0.126  24.995  0.00  0.00    +0.120 A 
ATOM     24  N   UNL     1      -0.655   0.628  25.325  0.00  0.00    -0.236 NA
ENDBRANCH  17  19
BRANCH  10   9
ATOM      9  O   UNL     1      -2.825   2.239  24.073  0.00  0.00    -0.475 OA
BRANCH   9   8
ATOM      5  C   UNL     1      -5.145   1.990  24.897  0.00  0.00    +0.072 A 
ATOM      6  C   UNL     1      -4.936   2.648  24.446  0.00  0.00    +0.007 A 
ATOM      7  C   UNL     1      -4.163   2.731  24.172  0.00  0.00    +0.037 A 
ATOM      8  C   UNL     1      -3.598   2.156  24.348  0.00  0.00    +0.139 A 
ATOM     25  C   UNL     1      -3.808   1.497  24.799  0.00  0.00    +0.037 A 
ATOM     26  C   UNL     1      -4.580   1.415  25.074  0.00  0.00    +0.007 A 
BRANCH   5   2
ATOM      1  F   UNL     1      -6.692   1.824  25.446  0.00  0.00    -0.166 F 
ATOM      2  C   UNL     1      -5.919   1.907  25.172  0.00  0.00    +0.419 C 
ATOM      3  F   UNL     1      -5.711   2.290  25.872  0.00  0.00    -0.166 F 
ATOM      4  F   UNL     1      -6.127   1.525  24.471  0.00  0.00    -0.166 F 
ENDBRANCH   5   2
ENDBRANCH   9   8
ENDBRANCH  10   9
TORSDOF 4
ENDMDL
MODEL 5
REMARK VINA RESULT:     -11.1      2.842      4.648
REMARK  Name = 
REMARK  4 active torsions:
REMARK  status: ('A' for Active; 'I' for Inactive)
REMARK    1  A    between atoms: C_2  and  C_5
REMARK    2  A    between atoms: C_8  and  O_9
REMARK    3  A    between atoms: O_9  and  C_10
REMARK    4  A    between atoms: C_17  and  C_19
REMARK                            x       y       z     vdW  Elec       q    Type
REMARK                         _______ _______ _______ _____ _____    ______ ____
ROOT
ATOM     10  C   UNL     1      -3.293   0.471  24.755  0.00  0.00    +0.215 C 
ATOM     11  C   UNL     1      -3.960   0.046  24.990  0.00  0.00    +0.187 C 
ATOM     12  O   UNL     1      -3.997  -0.648  25.434  0.00  0.00    -0.348 OA
ATOM     13  C   UNL     1      -3.377  -1.089  25.754  0.00  0.00    +0.164 C 
ATOM     14  C   UNL     1      -2.567  -0.943  25.708  0.00  0.00    +0.126 C 
ATOM     15  N   UNL     1      -2.176  -0.321  25.331  0.00  0.00    -0.268 N 
ATOM     16  C   UNL     1      -2.499   0.307  24.908  0.00  0.00    +0.140 C 
ATOM     17  C   UNL     1      -1.352  -0.331  25.386  0.00  0.00    +0.268 C 
ATOM     18  O   UNL     1      -0.974  -0.937  25.798  0.00  0.00    -0.268 OA
ENDROOT
BRANCH  17  19
ATOM     19  C   UNL     1      -0.909   0.265  25.029  0.00  0.00    +0.154 A 
ATOM     20  C   UNL     1      -0.676   0.190  24.240  0.00  0.00    +0.123 A 
ATOM     21  N   UNL     1      -0.232   0.787  23.883  0.00  0.00    -0.239 NA
ATOM     22  C   UNL     1      -0.022   1.459  24.313  0.00  0.00    +0.120 A 
ATOM     23  C   UNL     1      -0.254   1.534  25.100  0.00  0.00    +0.120 A 
ATOM     24  N   UNL     1      -0.698   0.937  25.458  0.00  0.00    -0.236 NA
ENDBRANCH  17  19
BRANCH  10   9
ATOM      9  O   UNL     1      -3.440   1.150  24.310  0.00  0.00    -0.475 OA
BRANCH   9   8
ATOM      5  C   UNL     1      -4.923   2.919  25.202  0.00  0.00    +0.072 A 
ATOM      6  C   UNL     1      -5.243   2.285  24.783  0.00  0.00    +0.007 A 
ATOM      7  C   UNL     1      -4.749   1.696  24.486  0.00  0.00    +0.037 A 
ATOM      8  C   UNL     1      -3.934   1.740  24.607  0.00  0.00    +0.139 A 
ATOM     25  C   UNL     1      -3.614   2.375  25.027  0.00  0.00    +0.037 A 
ATOM     26  C   UNL     1      -4.107   2.964  25.324  0.00  0.00    +0.007 A 
BRANCH   5   2
ATOM      1  F   UNL     1      -5.912   4.099  25.797  0.00  0.00    -0.166 F 
ATOM      2  C   UNL     1      -5.417   3.509  25.499  0.00  0.00    +0.419 C 
ATOM      3  F   UNL     1      -5.074   4.056  24.986  0.00  0.00    -0.166 F 
ATOM      4  F   UNL     1      -5.761   2.963  26.013  0.00  0.00    -0.166 F 
ENDBRANCH   5   2
ENDBRANCH   9   8
ENDBRANCH  10   9
TORSDOF 4
ENDMDL
MODEL 6
REMARK VINA RESULT:     -10.8      2.811      4.462
REMARK  Name = 
REMARK  4 active torsions:
REMARK  status: ('A' for Active; 'I' for Inactive)
REMARK    1  A    between atoms: C_2  and  C_5
REMARK    2  A    between atoms: C_8  and  O_9
REMARK    3  A    between atoms: O_9  and  C_10
REMARK    4  A    between atoms: C_17  and  C_19
REMARK                            x       y       z     vdW  Elec       q    Type
REMARK                         _______ _______ _______ _____ _____    ______ ____
ROOT
ATOM     10  C   UNL     1      -2.549   1.052  24.561  0.00  0.00    +0.215 C 
ATOM     11  C   UNL     1      -2.096   1.740  24.613  0.00  0.00    +0.187 C 
ATOM     12  O   UNL     1      -1.343   1.837  24.937  0.00  0.00    -0.348 OA
ATOM     13  C   UNL     1      -0.858   1.271  25.290  0.00  0.00    +0.164 C 
ATOM     14  C   UNL     1      -1.006   0.468  25.405  0.00  0.00    +0.126 C 
ATOM     15  N   UNL     1      -1.675   0.032  25.196  0.00  0.00    -0.268 N 
ATOM     16  C   UNL     1      -2.361   0.293  24.821  0.00  0.00    +0.140 C 
ATOM     17  C   UNL     1      -1.654  -0.770  25.389  0.00  0.00    +0.268 C 
ATOM     18  O   UNL     1      -0.993  -1.087  25.766  0.00  0.00    -0.268 OA
ENDROOT
BRANCH  17  19
ATOM     19  C   UNL     1      -2.295  -1.255  25.204  0.00  0.00    +0.154 A 
ATOM     20  C   UNL     1      -2.891  -1.380  25.762  0.00  0.00    +0.123 A 
ATOM     21  N   UNL     1      -3.533  -1.865  25.577  0.00  0.00    -0.239 NA
ATOM     22  C   UNL     1      -3.579  -2.224  24.836  0.00  0.00    +0.120 A 
ATOM     23  C   UNL     1      -2.984  -2.098  24.279  0.00  0.00    +0.120 A 
ATOM     24  N   UNL     1      -2.342  -1.613  24.464  0.00  0.00    -0.236 NA
ENDBRANCH  17  19
BRANCH  10   9
ATOM      9  O   UNL     1      -3.287   1.137  24.203  0.00  0.00    -0.475 OA
BRANCH   9   8
ATOM      5  C   UNL     1      -4.906   2.793  25.075  0.00  0.00    +0.072 A 
ATOM      6  C   UNL     1      -4.904   2.023  25.369  0.00  0.00    +0.007 A 
ATOM      7  C   UNL     1      -4.365   1.471  25.079  0.00  0.00    +0.037 A 
ATOM      8  C   UNL     1      -3.827   1.689  24.493  0.00  0.00    +0.139 A 
ATOM     25  C   UNL     1      -3.828   2.460  24.198  0.00  0.00    +0.037 A 
ATOM     26  C   UNL     1      -4.367   3.011  24.488  0.00  0.00    +0.007 A 
BRANCH   5   2
ATOM      1  F   UNL     1      -5.986   3.897  25.656  0.00  0.00    -0.166 F 
ATOM      2  C   UNL     1      -5.446   3.345  25.365  0.00  0.00    +0.419 C 
ATOM      3  F   UNL     1      -4.822   3.827  25.609  0.00  0.00    -0.166 F 
ATOM      4  F   UNL     1      -6.070   2.864  25.121  0.00  0.00    -0.166 F 
ENDBRANCH   5   2
ENDBRANCH   9   8
ENDBRANCH  10   9
TORSDOF 4
ENDMDL
MODEL 7
REMARK VINA RESULT:     -10.8      3.331      5.094
REMARK  Name = 
REMARK  4 active torsions:
REMARK  status: ('A' for Active; 'I' for Inactive)
REMARK    1  A    between atoms: C_2  and  C_5
REMARK    2  A    between atoms: C_8  and  O_9
REMARK    3  A    between atoms: O_9  and  C_10
REMARK    4  A    between atoms: C_17  and  C_19
REMARK                            x       y       z     vdW  Elec       q    Type
REMARK                         _______ _______ _______ _____ _____    ______ ____
ROOT
ATOM     10  C   UNL     1      -3.021   1.278  24.577  0.00  0.00    +0.215 C 
ATOM     11  C   UNL     1      -3.730   1.700  24.556  0.00  0.00    +0.187 C 
ATOM     12  O   UNL     1      -4.480   1.457  24.799  0.00  0.00    -0.348 OA
ATOM     13  C   UNL     1      -4.706   0.732  25.123  0.00  0.00    +0.164 C 
ATOM     14  C   UNL     1      -4.238   0.073  25.283  0.00  0.00    +0.126 C 
ATOM     15  N   UNL     1      -3.428  -0.026  25.160  0.00  0.00    -0.268 N 
ATOM     16  C   UNL     1      -2.887   0.510  24.846  0.00  0.00    +0.140 C 
ATOM     17  C   UNL     1      -3.119  -0.759  25.381  0.00  0.00    +0.268 C 
ATOM     18  O   UNL     1      -3.614  -1.335  25.701  0.00  0.00    -0.268 OA
ENDROOT
BRANCH  17  19
ATOM     19  C   UNL     1      -2.316  -0.915  25.281  0.00  0.00    +0.154 A 
ATOM     20  C   UNL     1      -2.042  -1.227  24.567  0.00  0.00    +0.123 A 
ATOM     21  N   UNL     1      -1.238  -1.382  24.467  0.00  0.00    -0.239 NA
ATOM     22  C   UNL     1      -0.708  -1.226  25.079  0.00  0.00    +0.120 A 
ATOM     23  C   UNL     1      -0.981  -0.913  25.792  0.00  0.00    +0.120 A 
ATOM     24  N   UNL     1      -1.785  -0.758  25.892  0.00  0.00    -0.236 NA
ENDBRANCH  17  19
BRANCH  10   9
ATOM      9  O   UNL     1      -2.359   1.678  24.290  0.00  0.00    -0.475 OA
BRANCH   9   8
ATOM      5  C   UNL     1      -1.863   3.973  25.075  0.00  0.00    +0.072 A 
ATOM      6  C   UNL     1      -2.354   3.857  24.422  0.00  0.00    +0.007 A 
ATOM      7  C   UNL     1      -2.519   3.093  24.161  0.00  0.00    +0.037 A 
ATOM      8  C   UNL     1      -2.193   2.443  24.552  0.00  0.00    +0.139 A 
ATOM     25  C   UNL     1      -1.702   2.559  25.205  0.00  0.00    +0.037 A 
ATOM     26  C   UNL     1      -1.537   3.323  25.467  0.00  0.00    +0.007 A 
BRANCH   5   2
ATOM      1  F   UNL     1      -1.533   5.503  25.598  0.00  0.00    -0.166 F 
ATOM      2  C   UNL     1      -1.698   4.738  25.336  0.00  0.00    +0.419 C 
ATOM      3  F   UNL     1      -2.379   4.726  25.802  0.00  0.00    -0.166 F 
ATOM      4  F   UNL     1      -1.017   4.750  24.870  0.00  0.00    -0.166 F 
ENDBRANCH   5   2
ENDBRANCH   9   8
ENDBRANCH  10   9
TORSDOF 4
ENDMDL
MODEL 8
REMARK VINA RESULT:     -10.6      3.633      5.011
REMARK  Name = 
REMARK  4 active torsions:
REMARK  status: ('A' for Active; 'I' for Inactive)
REMARK    1  A    between atoms: C_2  and  C_5
REMARK    2  A    between atoms: C_8  and  O_9
REMARK    3  A    between atoms: O_9  and  C_10
REMARK    4  A    between atoms: C_17  and  C_19
REMARK                            x       y       z     vdW  Elec       q    Type
REMARK                         _______ _______ _______ _____ _____    ______ ____
ROOT
ATOM     10  C   UNL     1      -0.934   1.212  25.122  0.00  0.00    +0.215 C 
ATOM     11  C   UNL     1      -0.210   1.486  24.837  0.00  0.00    +0.187 C 
ATOM     12  O   UNL     1       0.304   1.122  24.305  0.00  0.00    -0.348 OA
ATOM     13  C   UNL     1       0.221   0.394  23.925  0.00  0.00    +0.164 C 
ATOM     14  C   UNL     1      -0.397  -0.149  23.985  0.00  0.00    +0.126 C 
ATOM     15  N   UNL     1      -1.084  -0.098  24.439  0.00  0.00    -0.268 N 
ATOM     16  C   UNL     1      -1.323   0.507  24.944  0.00  0.00    +0.140 C 
ATOM     17  C   UNL     1      -1.601  -0.739  24.378  0.00  0.00    +0.268 C 
ATOM     18  O   UNL     1      -1.414  -1.374  23.886  0.00  0.00    -0.268 OA
ENDROOT
BRANCH  17  19
ATOM     19  C   UNL     1      -2.304  -0.744  24.809  0.00  0.00    +0.154 A 
ATOM     20  C   UNL     1      -2.316  -1.054  25.574  0.00  0.00    +0.123 A 
ATOM     21  N   UNL     1      -3.020  -1.058  26.005  0.00  0.00    -0.239 NA
ATOM     22  C   UNL     1      -3.711  -0.753  25.672  0.00  0.00    +0.120 A 
ATOM     23  C   UNL     1      -3.698  -0.443  24.908  0.00  0.00    +0.120 A 
ATOM     24  N   UNL     1      -2.994  -0.439  24.476  0.00  0.00    -0.236 NA
ENDBRANCH  17  19
BRANCH  10   9
ATOM      9  O   UNL     1      -1.320   1.710  25.655  0.00  0.00    -0.475 OA
BRANCH   9   8
ATOM      5  C   UNL     1      -1.360   4.153  25.261  0.00  0.00    +0.072 A 
ATOM      6  C   UNL     1      -1.952   3.674  24.943  0.00  0.00    +0.007 A 
ATOM      7  C   UNL     1      -1.938   2.861  25.074  0.00  0.00    +0.037 A 
ATOM      8  C   UNL     1      -1.333   2.525  25.523  0.00  0.00    +0.139 A 
ATOM     25  C   UNL     1      -0.741   3.004  25.841  0.00  0.00    +0.037 A 
ATOM     26  C   UNL     1      -0.754   3.817  25.710  0.00  0.00    +0.007 A 
BRANCH   5   2
ATOM      1  F   UNL     1      -1.387   5.782  24.998  0.00  0.00    -0.166 F 
ATOM      2  C   UNL     1      -1.373   4.968  25.129  0.00  0.00    +0.419 C 
ATOM      3  F   UNL     1      -0.699   4.903  24.658  0.00  0.00    -0.166 F 
ATOM      4  F   UNL     1      -2.047   5.033  25.601  0.00  0.00    -0.166 F 
ENDBRANCH   5   2
ENDBRANCH   9   8
ENDBRANCH  10   9
TORSDOF 4
ENDMDL
