MODEL 1
REMARK VINA RESULT:      -9.3      0.000      0.000
REMARK  Name = 
REMARK  7 active torsions:
REMARK  status: ('A' for Active; 'I' for Inactive)
REMARK    1  A    between atoms: O_2  and  C_3
REMARK    2  A    between atoms: C_3  and  C_4
REMARK    3  A    between atoms: C_6  and  C_7
REMARK    4  A    between atoms: C_7  and  C_8
REMARK    5  A    between atoms: C_13  and  C_14
REMARK    6  A    between atoms: C_14  and  N_15
REMARK    7  A    between atoms: N_18  and  C_19
REMARK                            x       y       z     vdW  Elec       q    Type
REMARK                         _______ _______ _______ _____ _____    ______ ____
ROOT
ATOM      8  C   UNL     1      -4.097   3.038  24.782  0.00  0.00    +0.121 C 
ATOM      9  C   UNL     1      -4.751   3.451  25.071  0.00  0.00    +0.033 C 
ATOM     10  C   UNL     1      -5.385   3.039  25.403  0.00  0.00    +0.038 C 
ATOM     11  C   UNL     1      -5.365   2.216  25.446  0.00  0.00    +0.181 C 
ATOM     12  O   UNL     1      -5.998   1.805  25.777  0.00  0.00    -0.220 OA
ATOM     13  C   UNL     1      -4.711   1.803  25.157  0.00  0.00    +0.167 C 
ATOM     22  O   UNL     1      -4.078   2.215  24.825  0.00  0.00    -0.354 OA
ENDROOT
BRANCH   8   7
ATOM      7  C   UNL     1      -3.464   3.451  24.451  0.00  0.00    +0.079 C 
BRANCH   7   6
ATOM      4  C   UNL     1      -1.567   3.581  25.419  0.00  0.00    +0.184 A 
ATOM      5  C   UNL     1      -2.073   3.231  24.869  0.00  0.00    +0.056 A 
ATOM      6  C   UNL     1      -2.799   3.621  24.906  0.00  0.00    +0.103 A 
ATOM     23  N   UNL     1      -2.742   4.213  25.479  0.00  0.00    -0.082 NA
ATOM     24  O   UNL     1      -1.981   4.188  25.796  0.00  0.00    -0.356 OA
BRANCH   4   3
ATOM      3  C   UNL     1      -0.785   3.363  25.567  0.00  0.00    +0.209 C 
BRANCH   3   2
ATOM      1  C   UNL     1       0.155   2.484  26.189  0.00  0.00    +0.175 C 
ATOM      2  O   UNL     1      -0.619   2.758  26.102  0.00  0.00    -0.343 OA
ENDBRANCH   3   2
ENDBRANCH   4   3
ENDBRANCH   7   6
ENDBRANCH   8   7
BRANCH  13  14
ATOM     14  C   UNL     1      -4.691   0.980  25.199  0.00  0.00    +0.149 C 
BRANCH  14  15
ATOM     15  N   UNL     1      -4.384   0.541  24.572  0.00  0.00    -0.185 NA
ATOM     16  C   UNL     1      -4.184  -0.251  24.681  0.00  0.00    +0.339 C 
ATOM     17  O   UNL     1      -4.292  -0.606  25.419  0.00  0.00    -0.249 OA
ATOM     18  N   UNL     1      -3.877  -0.690  24.053  0.00  0.00    -0.189 NA
BRANCH  18  19
ATOM     19  C   UNL     1      -3.678  -1.483  24.163  0.00  0.00    +0.097 C 
ATOM     20  C   UNL     1      -2.957  -1.683  24.511  0.00  0.00    +0.023 C 
ATOM     21  C   UNL     1      -4.199  -2.077  23.923  0.00  0.00    +0.023 C 
ENDBRANCH  18  19
ENDBRANCH  14  15
ENDBRANCH  13  14
TORSDOF 7
ENDMDL
MODEL 2
REMARK VINA RESULT:      -9.3      1.169      4.208
REMARK  Name = 
REMARK  7 active torsions:
REMARK  status: ('A' for Active; 'I' for Inactive)
REMARK    1  A    between atoms: O_2  and  C_3
REMARK    2  A    between atoms: C_3  and  C_4
REMARK    3  A    between atoms: C_6  and  C_7
REMARK    4  A    between atoms: C_7  and  C_8
REMARK    5  A    between atoms: C_13  and  C_14
REMARK    6  A    between atoms: C_14  and  N_15
REMARK    7  A    between atoms: N_18  and  C_19
REMARK                            x       y       z     vdW  Elec       q    Type
REMARK                         _______ _______ _______ _____ _____    ______ ____
ROOT
ATOM      8  C   UNL     1      -4.791   1.469  24.803  0.00  0.00    +0.121 C 
ATOM      9  C   UNL     1      -5.579   1.532  25.041  0.00  0.00    +0.033 C 
ATOM     10  C   UNL     1      -5.834   2.199  25.455  0.00  0.00    +0.038 C 
ATOM     11  C   UNL     1      -5.300   2.803  25.632  0.00  0.00    +0.181 C 
ATOM     12  O   UNL     1      -5.555   3.469  26.046  0.00  0.00    -0.220 OA
ATOM     13  C   UNL     1      -4.512   2.740  25.395  0.00  0.00    +0.167 C 
ATOM     22  O   UNL     1      -4.258   2.074  24.981  0.00  0.00    -0.354 OA
ENDROOT
BRANCH   8   7
ATOM      7  C   UNL     1      -4.538   0.802  24.389  0.00  0.00    +0.079 C 
BRANCH   7   6
ATOM      4  C   UNL     1      -3.145  -0.645  25.111  0.00  0.00    +0.184 A 
ATOM      5  C   UNL     1      -3.357  -0.050  24.579  0.00  0.00    +0.056 A 
ATOM      6  C   UNL     1      -4.113   0.212  24.777  0.00  0.00    +0.103 A 
ATOM     23  N   UNL     1      -4.370  -0.220  25.431  0.00  0.00    -0.082 NA
ATOM     24  O   UNL     1      -3.772  -0.750  25.638  0.00  0.00    -0.356 OA
BRANCH   4   3
ATOM      3  C   UNL     1      -2.433  -1.061  25.116  0.00  0.00    +0.209 C 
BRANCH   3   2
ATOM      1  C   UNL     1      -1.669  -2.209  24.737  0.00  0.00    +0.175 C 
ATOM      2  O   UNL     1      -2.394  -1.815  24.783  0.00  0.00    -0.343 OA
ENDBRANCH   3   2
ENDBRANCH   4   3
ENDBRANCH   7   6
ENDBRANCH   8   7
BRANCH  13  14
ATOM     14  C   UNL     1      -3.979   3.344  25.572  0.00  0.00    +0.149 C 
BRANCH  14  15
ATOM     15  N   UNL     1      -3.363   3.516  25.051  0.00  0.00    -0.185 NA
ATOM     16  C   UNL     1      -2.691   3.909  25.323  0.00  0.00    +0.339 C 
ATOM     17  O   UNL     1      -2.635   4.130  26.117  0.00  0.00    -0.249 OA
ATOM     18  N   UNL     1      -2.074   4.082  24.803  0.00  0.00    -0.189 NA
BRANCH  18  19
ATOM     19  C   UNL     1      -1.402   4.474  25.075  0.00  0.00    +0.097 C 
ATOM     20  C   UNL     1      -0.744   4.044  25.325  0.00  0.00    +0.023 C 
ATOM     21  C   UNL     1      -1.387   5.300  25.096  0.00  0.00    +0.023 C 
ENDBRANCH  18  19
ENDBRANCH  14  15
ENDBRANCH  13  14
TORSDOF 7
ENDMDL
MODEL 3
REMARK VINA RESULT:      -8.7      1.420      3.432
REMARK  Name = 
REMARK  7 active torsions:
REMARK  status: ('A' for Active; 'I' for Inactive)
REMARK    1  A    between atoms: O_2  and  C_3
REMARK    2  A    between atoms: C_3  and  C_4
REMARK    3  A    between atoms: C_6  and  C_7
REMARK    4  A    between atoms: C_7  and  C_8
REMARK    5  A    between atoms: C_13  and  C_14
REMARK    6  A    between atoms: C_14  and  N_15
REMARK    7  A    between atoms: N_18  and  C_19
REMARK                            x       y       z     vdW  Elec       q    Type
REMARK                         _______ _______ _______ _____ _____    ______ ____
ROOT
ATOM      8  C   UNL     1      -1.636   3.350  25.585  0.00  0.00    +0.121 C 
ATOM      9  C   UNL     1      -0.977   3.730  25.266  0.00  0.00    +0.033 C 
ATOM     10  C   UNL     1      -0.332   3.288  25.002  0.00  0.00    +0.038 C 
ATOM     11  C   UNL     1      -0.347   2.465  25.057  0.00  0.00    +0.181 C 
ATOM     12  O   UNL     1       0.298   2.023  24.793  0.00  0.00    -0.220 OA
ATOM     13  C   UNL     1      -1.006   2.084  25.376  0.00  0.00    +0.167 C 
ATOM     22  O   UNL     1      -1.650   2.526  25.640  0.00  0.00    -0.354 OA
ENDROOT
BRANCH   8   7
ATOM      7  C   UNL     1      -2.280   3.793  25.849  0.00  0.00    +0.079 C 
BRANCH   7   6
ATOM      4  C   UNL     1      -4.280   3.453  25.186  0.00  0.00    +0.184 A 
ATOM      5  C   UNL     1      -3.687   3.380  25.755  0.00  0.00    +0.056 A 
ATOM      6  C   UNL     1      -3.005   3.739  25.460  0.00  0.00    +0.103 A 
ATOM     23  N   UNL     1      -3.176   4.034  24.709  0.00  0.00    -0.082 NA
ATOM     24  O   UNL     1      -3.964   3.858  24.539  0.00  0.00    -0.356 OA
BRANCH   4   3
ATOM      3  C   UNL     1      -5.053   3.172  25.251  0.00  0.00    +0.209 C 
BRANCH   3   2
ATOM      1  C   UNL     1      -5.986   2.095  25.144  0.00  0.00    +0.175 C 
ATOM      2  O   UNL     1      -5.237   2.409  24.999  0.00  0.00    -0.343 OA
ENDBRANCH   3   2
ENDBRANCH   4   3
ENDBRANCH   7   6
ENDBRANCH   8   7
BRANCH  13  14
ATOM     14  C   UNL     1      -1.020   1.262  25.431  0.00  0.00    +0.149 C 
BRANCH  14  15
ATOM     15  N   UNL     1      -1.617   0.833  25.056  0.00  0.00    -0.185 NA
ATOM     16  C   UNL     1      -1.775   0.057  25.286  0.00  0.00    +0.339 C 
ATOM     17  O   UNL     1      -1.337  -0.291  25.894  0.00  0.00    -0.249 OA
ATOM     18  N   UNL     1      -2.372  -0.372  24.911  0.00  0.00    -0.189 NA
BRANCH  18  19
ATOM     19  C   UNL     1      -2.530  -1.147  25.142  0.00  0.00    +0.097 C 
ATOM     20  C   UNL     1      -2.090  -1.770  24.828  0.00  0.00    +0.023 C 
ATOM     21  C   UNL     1      -3.131  -1.301  25.688  0.00  0.00    +0.023 C 
ENDBRANCH  18  19
ENDBRANCH  14  15
ENDBRANCH  13  14
TORSDOF 7
ENDMDL
MODEL 4
REMARK VINA RESULT:      -8.5      1.909      3.810
REMARK  Name = 
REMARK  7 active torsions:
REMARK  status: ('A' for Active; 'I' for Inactive)
REMARK    1  A    between atoms: O_2  and  C_3
REMARK    2  A    between atoms: C_3  and  C_4
REMARK    3  A    between atoms: C_6  and  C_7
REMARK    4  A    between atoms: C_7  and  C_8
REMARK    5  A    between atoms: C_13  and  C_14
REMARK    6  A    between atoms: C_14  and  N_15
REMARK    7  A    between atoms: N_18  and  C_19
REMARK                            x       y       z     vdW  Elec       q    Type
REMARK                         _______ _______ _______ _____ _____    ______ ____
ROOT
ATOM      8  C   UNL     1      -1.033   3.014  25.658  0.00  0.00    +0.121 C 
ATOM      9  C   UNL     1      -0.624   3.690  25.420  0.00  0.00    +0.033 C 
ATOM     10  C   UNL     1      -1.041   4.357  25.171  0.00  0.00    +0.038 C 
ATOM     11  C   UNL     1      -1.866   4.348  25.160  0.00  0.00    +0.181 C 
ATOM     12  O   UNL     1      -2.281   5.015  24.911  0.00  0.00    -0.220 OA
ATOM     13  C   UNL     1      -2.274   3.672  25.399  0.00  0.00    +0.167 C 
ATOM     22  O   UNL     1      -1.858   3.005  25.647  0.00  0.00    -0.354 OA
ENDROOT
BRANCH   8   7
ATOM      7  C   UNL     1      -0.615   2.346  25.907  0.00  0.00    +0.079 C 
BRANCH   7   6
ATOM      4  C   UNL     1      -0.590   0.507  24.826  0.00  0.00    +0.184 A 
ATOM      5  C   UNL     1      -0.854   0.969  25.457  0.00  0.00    +0.056 A 
ATOM      6  C   UNL     1      -0.505   1.713  25.392  0.00  0.00    +0.103 A 
ATOM     23  N   UNL     1      -0.025   1.712  24.720  0.00  0.00    -0.082 NA
ATOM     24  O   UNL     1      -0.078   0.966  24.371  0.00  0.00    -0.356 OA
BRANCH   4   3
ATOM      3  C   UNL     1      -0.802  -0.277  24.677  0.00  0.00    +0.209 C 
BRANCH   3   2
ATOM      1  C   UNL     1      -0.742  -1.661  25.028  0.00  0.00    +0.175 C 
ATOM      2  O   UNL     1      -0.477  -0.885  25.129  0.00  0.00    -0.343 OA
ENDBRANCH   3   2
ENDBRANCH   4   3
ENDBRANCH   7   6
ENDBRANCH   8   7
BRANCH  13  14
ATOM     14  C   UNL     1      -3.098   3.663  25.388  0.00  0.00    +0.149 C 
BRANCH  14  15
ATOM     15  N   UNL     1      -3.504   2.945  25.386  0.00  0.00    -0.185 NA
ATOM     16  C   UNL     1      -4.328   2.936  25.414  0.00  0.00    +0.339 C 
ATOM     17  O   UNL     1      -4.748   3.647  25.444  0.00  0.00    -0.249 OA
ATOM     18  N   UNL     1      -4.734   2.217  25.411  0.00  0.00    -0.189 NA
BRANCH  18  19
ATOM     19  C   UNL     1      -5.558   2.208  25.439  0.00  0.00    +0.097 C 
ATOM     20  C   UNL     1      -5.993   2.034  24.760  0.00  0.00    +0.023 C 
ATOM     21  C   UNL     1      -5.948   2.374  26.148  0.00  0.00    +0.023 C 
ENDBRANCH  18  19
ENDBRANCH  14  15
ENDBRANCH  13  14
TORSDOF 7
ENDMDL
MODEL 5
REMARK VINA RESULT:      -8.4      1.749      3.993
REMARK  Name = 
REMARK  7 active torsions:
REMARK  status: ('A' for Active; 'I' for Inactive)
REMARK    1  A    between atoms: O_2  and  C_3
REMARK    2  A    between atoms: C_3  and  C_4
REMARK    3  A    between atoms: C_6  and  C_7
REMARK    4  A    between atoms: C_7  and  C_8
REMARK    5  A    between atoms: C_13  and  C_14
REMARK    6  A    between atoms: C_14  and  N_15
REMARK    7  A    between atoms: N_18  and  C_19
REMARK                            x       y       z     vdW  Elec       q    Type
REMARK                         _______ _______ _______ _____ _____    ______ ____
ROOT
ATOM      8  C   UNL     1      -2.351  -1.400  24.996  0.00  0.00    +0.121 C 
ATOM      9  C   UNL     1      -2.495  -2.149  24.680  0.00  0.00    +0.033 C 
ATOM     10  C   UNL     1      -3.227  -2.319  24.338  0.00  0.00    +0.038 C 
ATOM     11  C   UNL     1      -3.815  -1.741  24.314  0.00  0.00    +0.181 C 
ATOM     12  O   UNL     1      -4.546  -1.912  23.973  0.00  0.00    -0.220 OA
ATOM     13  C   UNL     1      -3.671  -0.993  24.630  0.00  0.00    +0.167 C 
ATOM     22  O   UNL     1      -2.940  -0.823  24.971  0.00  0.00    -0.354 OA
ENDROOT
BRANCH   8   7
ATOM      7  C   UNL     1      -1.619  -1.231  25.336  0.00  0.00    +0.079 C 
BRANCH   7   6
ATOM      4  C   UNL     1      -0.343   0.316  24.607  0.00  0.00    +0.184 A 
ATOM      5  C   UNL     1      -0.902   0.037  25.145  0.00  0.00    +0.056 A 
ATOM      6  C   UNL     1      -1.084  -0.741  24.944  0.00  0.00    +0.103 A 
ATOM     23  N   UNL     1      -0.637  -0.945  24.280  0.00  0.00    -0.082 NA
ATOM     24  O   UNL     1      -0.179  -0.291  24.072  0.00  0.00    -0.356 OA
BRANCH   4   3
ATOM      3  C   UNL     1      -0.006   1.070  24.603  0.00  0.00    +0.209 C 
BRANCH   3   2
ATOM      1  C   UNL     1      -0.092   2.460  24.284  0.00  0.00    +0.175 C 
ATOM      2  O   UNL     1      -0.397   1.695  24.234  0.00  0.00    -0.343 OA
ENDBRANCH   3   2
ENDBRANCH   4   3
ENDBRANCH   7   6
ENDBRANCH   8   7
BRANCH  13  14
ATOM     14  C   UNL     1      -4.259  -0.415  24.605  0.00  0.00    +0.149 C 
BRANCH  14  15
ATOM     15  N   UNL     1      -4.194   0.261  25.074  0.00  0.00    -0.185 NA
ATOM     16  C   UNL     1      -4.716   0.890  24.966  0.00  0.00    +0.339 C 
ATOM     17  O   UNL     1      -5.303   0.844  24.387  0.00  0.00    -0.249 OA
ATOM     18  N   UNL     1      -4.651   1.566  25.435  0.00  0.00    -0.189 NA
BRANCH  18  19
ATOM     19  C   UNL     1      -5.173   2.195  25.326  0.00  0.00    +0.097 C 
ATOM     20  C   UNL     1      -5.904   2.197  25.709  0.00  0.00    +0.023 C 
ATOM     21  C   UNL     1      -4.963   2.824  24.834  0.00  0.00    +0.023 C 
ENDBRANCH  18  19
ENDBRANCH  14  15
ENDBRANCH  13  14
TORSDOF 7
ENDMDL
MODEL 6
REMARK VINA RESULT:      -8.4      1.871      4.619
REMARK  Name = 
REMARK  7 active torsions:
REMARK  status: ('A' for Active; 'I' for Inactive)
REMARK    1  A    between atoms: O_2  and  C_3
REMARK    2  A    between atoms: C_3  and  C_4
REMARK    3  A    between atoms: C_6  and  C_7
REMARK    4  A    between atoms: C_7  and  C_8
REMARK    5  A    between atoms: C_13  and  C_14
REMARK    6  A    between atoms: C_14  and  N_15
REMARK    7  A    between atoms: N_18  and  C_19
REMARK                            x       y       z     vdW  Elec       q    Type
REMARK                         _______ _______ _______ _____ _____    ______ ____
ROOT
ATOM      8  C   UNL     1      -1.061   0.829  25.146  0.00  0.00    +0.121 C 
ATOM      9  C   UNL     1      -0.380   1.189  24.849  0.00  0.00    +0.033 C 
ATOM     10  C   UNL     1      -0.435   1.908  24.448  0.00  0.00    +0.038 C 
ATOM     11  C   UNL     1      -1.171   2.267  24.345  0.00  0.00    +0.181 C 
ATOM     12  O   UNL     1      -1.225   2.986  23.944  0.00  0.00    -0.220 OA
ATOM     13  C   UNL     1      -1.851   1.907  24.642  0.00  0.00    +0.167 C 
ATOM     22  O   UNL     1      -1.796   1.189  25.042  0.00  0.00    -0.354 OA
ENDROOT
BRANCH   8   7
ATOM      7  C   UNL     1      -1.005   0.110  25.547  0.00  0.00    +0.079 C 
BRANCH   7   6
ATOM      4  C   UNL     1      -1.769  -1.720  24.757  0.00  0.00    +0.184 A 
ATOM      5  C   UNL     1      -1.832  -1.071  25.263  0.00  0.00    +0.056 A 
ATOM      6  C   UNL     1      -1.167  -0.596  25.153  0.00  0.00    +0.103 A 
ATOM     23  N   UNL     1      -0.691  -0.952  24.580  0.00  0.00    -0.082 NA
ATOM     24  O   UNL     1      -1.063  -1.646  24.335  0.00  0.00    -0.356 OA
BRANCH   4   3
ATOM      3  C   UNL     1      -2.314  -2.335  24.686  0.00  0.00    +0.209 C 
BRANCH   3   2
ATOM      1  C   UNL     1      -3.616  -2.796  24.317  0.00  0.00    +0.175 C 
ATOM      2  O   UNL     1      -3.046  -2.199  24.331  0.00  0.00    -0.343 OA
ENDBRANCH   3   2
ENDBRANCH   4   3
ENDBRANCH   7   6
ENDBRANCH   8   7
BRANCH  13  14
ATOM     14  C   UNL     1      -2.586   2.267  24.538  0.00  0.00    +0.149 C 
BRANCH  14  15
ATOM     15  N   UNL     1      -3.186   2.146  25.091  0.00  0.00    -0.185 NA
ATOM     16  C   UNL     1      -3.953   2.405  24.931  0.00  0.00    +0.339 C 
ATOM     17  O   UNL     1      -4.119   2.785  24.217  0.00  0.00    -0.249 OA
ATOM     18  N   UNL     1      -4.553   2.285  25.484  0.00  0.00    -0.189 NA
BRANCH  18  19
ATOM     19  C   UNL     1      -5.320   2.544  25.324  0.00  0.00    +0.097 C 
ATOM     20  C   UNL     1      -5.547   3.311  25.525  0.00  0.00    +0.023 C 
ATOM     21  C   UNL     1      -5.860   2.035  24.962  0.00  0.00    +0.023 C 
ENDBRANCH  18  19
ENDBRANCH  14  15
ENDBRANCH  13  14
TORSDOF 7
ENDMDL
MODEL 7
REMARK VINA RESULT:      -8.4      1.524      2.064
REMARK  Name = 
REMARK  7 active torsions:
REMARK  status: ('A' for Active; 'I' for Inactive)
REMARK    1  A    between atoms: O_2  and  C_3
REMARK    2  A    between atoms: C_3  and  C_4
REMARK    3  A    between atoms: C_6  and  C_7
REMARK    4  A    between atoms: C_7  and  C_8
REMARK    5  A    between atoms: C_13  and  C_14
REMARK    6  A    between atoms: C_14  and  N_15
REMARK    7  A    between atoms: N_18  and  C_19
REMARK                            x       y       z     vdW  Elec       q    Type
REMARK                         _______ _______ _______ _____ _____    ______ ____
ROOT
ATOM      8  C   UNL     1      -4.233   2.214  24.551  0.00  0.00    +0.121 C 
ATOM      9  C   UNL     1      -4.984   2.052  24.852  0.00  0.00    +0.033 C 
ATOM     10  C   UNL     1      -5.190   1.277  25.052  0.00  0.00    +0.038 C 
ATOM     11  C   UNL     1      -4.645   0.667  24.951  0.00  0.00    +0.181 C 
ATOM     12  O   UNL     1      -4.851  -0.106  25.151  0.00  0.00    -0.220 OA
ATOM     13  C   UNL     1      -3.894   0.830  24.650  0.00  0.00    +0.167 C 
ATOM     22  O   UNL     1      -3.689   1.603  24.450  0.00  0.00    -0.354 OA
ENDROOT
BRANCH   8   7
ATOM      7  C   UNL     1      -4.028   2.988  24.351  0.00  0.00    +0.079 C 
BRANCH   7   6
ATOM      4  C   UNL     1      -2.494   4.090  25.344  0.00  0.00    +0.184 A 
ATOM      5  C   UNL     1      -2.768   3.659  24.696  0.00  0.00    +0.056 A 
ATOM      6  C   UNL     1      -3.544   3.429  24.852  0.00  0.00    +0.103 A 
ATOM     23  N   UNL     1      -3.752   3.718  25.597  0.00  0.00    -0.082 NA
ATOM     24  O   UNL     1      -3.103   4.127  25.901  0.00  0.00    -0.356 OA
BRANCH   4   3
ATOM      3  C   UNL     1      -1.745   4.426  25.423  0.00  0.00    +0.209 C 
BRANCH   3   2
ATOM      1  C   UNL     1      -0.797   5.376  24.930  0.00  0.00    +0.175 C 
ATOM      2  O   UNL     1      -1.579   5.153  25.070  0.00  0.00    -0.343 OA
ENDBRANCH   3   2
ENDBRANCH   4   3
ENDBRANCH   7   6
ENDBRANCH   8   7
BRANCH  13  14
ATOM     14  C   UNL     1      -3.349   0.219  24.549  0.00  0.00    +0.149 C 
BRANCH  14  15
ATOM     15  N   UNL     1      -2.583   0.295  24.846  0.00  0.00    -0.185 NA
ATOM     16  C   UNL     1      -2.015  -0.276  24.673  0.00  0.00    +0.339 C 
ATOM     17  O   UNL     1      -2.212  -0.926  24.202  0.00  0.00    -0.249 OA
ATOM     18  N   UNL     1      -1.249  -0.200  24.970  0.00  0.00    -0.189 NA
BRANCH  18  19
ATOM     19  C   UNL     1      -0.680  -0.772  24.797  0.00  0.00    +0.097 C 
ATOM     20  C   UNL     1      -0.596  -1.432  25.284  0.00  0.00    +0.023 C 
ATOM     21  C   UNL     1      -0.194  -0.683  24.135  0.00  0.00    +0.023 C 
ENDBRANCH  18  19
ENDBRANCH  14  15
ENDBRANCH  13  14
TORSDOF 7
ENDMDL
