MODEL 1
REMARK VINA RESULT:      -8.3      0.000      0.000
REMARK  Name = 
REMARK  5 active torsions:
REMARK  status: ('A' for Active; 'I' for Inactive)
REMARK    1  A    between atoms: N_6  and  C_7
REMARK    2  A    between atoms: C_7  and  C_8
REMARK    3  A    between atoms: C_18  and  C_19
REMARK    4  A    between atoms: C_19  and  C_20
REMARK    5  A    between atoms: C_20  and  C_21
REMARK                            x       y       z     vdW  Elec       q    Type
REMARK                         _______ _______ _______ _____ _____    ______ ____
ROOT
ATOM      1  C   UNL     1      -0.835   2.817  24.580  0.00  0.00    +0.090 C 
ATOM      2  N   UNL     1      -0.905   1.999  24.493  0.00  0.00    -0.271 NA
ATOM      3  C   UNL     1      -0.252   1.617  24.165  0.00  0.00    +0.083 C 
ATOM      4  C   UNL     1       0.436   2.010  23.934  0.00  0.00    +0.035 C 
ATOM      5  C   UNL     1       0.962   1.449  23.635  0.00  0.00    +0.074 C 
ATOM      6  N   UNL     1       0.599   0.709  23.681  0.00  0.00    -0.259 NA
ATOM     13  C   UNL     1      -0.151   0.813  24.009  0.00  0.00    +0.152 C 
ATOM     14  C   UNL     1      -0.679   0.193  24.142  0.00  0.00    +0.257 C 
ATOM     15  O   UNL     1      -0.412  -0.557  23.924  0.00  0.00    -0.272 OA
ATOM     16  N   UNL     1      -1.438   0.223  24.463  0.00  0.00    -0.203 NA
ATOM     17  C   UNL     1      -1.857   0.882  24.731  0.00  0.00    +0.131 C 
ATOM     18  C   UNL     1      -1.619   1.672  24.745  0.00  0.00    +0.080 C 
ENDROOT
BRANCH   6   7
ATOM      7  C   UNL     1       0.929  -0.009  23.441  0.00  0.00    +0.139 C 
BRANCH   7   8
ATOM      8  C   UNL     1       1.588  -0.014  22.946  0.00  0.00    +0.155 A 
ATOM      9  N   UNL     1       2.371   0.101  23.178  0.00  0.00    -0.226 NA
ATOM     10  C   UNL     1       2.846   0.050  22.506  0.00  0.00    +0.121 A 
ATOM     11  C   UNL     1       2.358  -0.097  21.858  0.00  0.00    +0.121 A 
ATOM     12  N   UNL     1       1.579  -0.137  22.130  0.00  0.00    -0.226 NA
ENDBRANCH   7   8
ENDBRANCH   6   7
BRANCH  18  19
ATOM     19  C   UNL     1      -2.170   2.206  25.050  0.00  0.00    +0.027 C 
BRANCH  19  20
ATOM     20  C   UNL     1      -2.977   2.051  24.977  0.00  0.00    +0.087 C 
BRANCH  20  21
ATOM     21  C   UNL     1      -3.528   2.589  25.276  0.00  0.00    +0.226 C 
ATOM     22  O   UNL     1      -3.272   3.293  25.622  0.00  0.00    -0.275 OA
ATOM     23  N   UNL     1      -4.335   2.422  25.227  0.00  0.00    -0.279 N 
ATOM     24  C   UNL     1      -4.885   2.959  25.525  0.00  0.00    +0.096 C 
ATOM     25  C   UNL     1      -5.692   2.792  25.477  0.00  0.00    +0.054 C 
ATOM     26  C   UNL     1      -5.948   2.088  25.130  0.00  0.00    +0.155 C 
ATOM     27  O   UNL     1      -6.754   1.922  25.082  0.00  0.00    -0.223 OA
ATOM     28  C   UNL     1      -5.397   1.552  24.832  0.00  0.00    +0.054 C 
ATOM     29  C   UNL     1      -4.590   1.719  24.881  0.00  0.00    +0.096 C 
ENDBRANCH  20  21
ENDBRANCH  19  20
ENDBRANCH  18  19
TORSDOF 5
ENDMDL
MODEL 2
REMARK VINA RESULT:      -8.1      2.883      4.410
REMARK  Name = 
REMARK  5 active torsions:
REMARK  status: ('A' for Active; 'I' for Inactive)
REMARK    1  A    between atoms: N_6  and  C_7
REMARK    2  A    between atoms: C_7  and  C_8
REMARK    3  A    between atoms: C_18  and  C_19
REMARK    4  A    between atoms: C_19  and  C_20
REMARK    5  A    between atoms: C_20  and  C_21
REMARK                            x       y       z     vdW  Elec       q    Type
REMARK                         _______ _______ _______ _____ _____    ______ ____
ROOT
ATOM      1  C   UNL     1      -1.118   0.774  23.529  0.00  0.00    +0.090 C 
ATOM      2  N   UNL     1      -0.999   1.043  24.301  0.00  0.00    -0.271 NA
ATOM      3  C   UNL     1      -0.922   1.859  24.386  0.00  0.00    +0.083 C 
ATOM      4  C   UNL     1      -0.959   2.389  23.754  0.00  0.00    +0.035 C 
ATOM      5  C   UNL     1      -0.860   3.151  24.053  0.00  0.00    +0.074 C 
ATOM      6  N   UNL     1      -0.761   3.093  24.870  0.00  0.00    -0.259 NA
ATOM     13  C   UNL     1      -0.800   2.295  25.076  0.00  0.00    +0.152 C 
ATOM     14  C   UNL     1      -0.724   2.021  25.850  0.00  0.00    +0.257 C 
ATOM     15  O   UNL     1      -0.604   2.601  26.425  0.00  0.00    -0.272 OA
ATOM     16  N   UNL     1      -0.752   1.244  26.126  0.00  0.00    -0.203 NA
ATOM     17  C   UNL     1      -0.862   0.549  25.695  0.00  0.00    +0.131 C 
ATOM     18  C   UNL     1      -0.972   0.459  24.883  0.00  0.00    +0.080 C 
ENDROOT
BRANCH   6   7
ATOM      7  C   UNL     1      -0.645   3.723  25.391  0.00  0.00    +0.139 C 
BRANCH   7   8
ATOM      8  C   UNL     1      -0.946   4.469  25.209  0.00  0.00    +0.155 A 
ATOM      9  N   UNL     1      -1.701   4.745  25.391  0.00  0.00    -0.226 NA
ATOM     10  C   UNL     1      -1.766   5.517  25.107  0.00  0.00    +0.121 A 
ATOM     11  C   UNL     1      -1.050   5.718  24.748  0.00  0.00    +0.121 A 
ATOM     12  N   UNL     1      -0.543   5.070  24.811  0.00  0.00    -0.226 NA
ENDBRANCH   7   8
ENDBRANCH   6   7
BRANCH  18  19
ATOM     19  C   UNL     1      -1.068  -0.316  24.618  0.00  0.00    +0.027 C 
BRANCH  19  20
ATOM     20  C   UNL     1      -1.699  -0.771  24.895  0.00  0.00    +0.087 C 
BRANCH  20  21
ATOM     21  C   UNL     1      -1.738  -1.575  24.714  0.00  0.00    +0.226 C 
ATOM     22  O   UNL     1      -1.052  -2.034  24.724  0.00  0.00    -0.275 OA
ATOM     23  N   UNL     1      -2.463  -1.920  24.523  0.00  0.00    -0.279 N 
ATOM     24  C   UNL     1      -2.502  -2.724  24.343  0.00  0.00    +0.096 C 
ATOM     25  C   UNL     1      -3.227  -3.069  24.152  0.00  0.00    +0.054 C 
ATOM     26  C   UNL     1      -3.913  -2.610  24.142  0.00  0.00    +0.155 C 
ATOM     27  O   UNL     1      -4.637  -2.955  23.951  0.00  0.00    -0.223 OA
ATOM     28  C   UNL     1      -3.873  -1.806  24.323  0.00  0.00    +0.054 C 
ATOM     29  C   UNL     1      -3.148  -1.462  24.514  0.00  0.00    +0.096 C 
ENDBRANCH  20  21
ENDBRANCH  19  20
ENDBRANCH  18  19
TORSDOF 5
ENDMDL
MODEL 3
REMARK VINA RESULT:      -7.8      1.309      6.204
REMARK  Name = 
REMARK  5 active torsions:
REMARK  status: ('A' for Active; 'I' for Inactive)
REMARK    1  A    between atoms: N_6  and  C_7
REMARK    2  A    between atoms: C_7  and  C_8
REMARK    3  A    between atoms: C_18  and  C_19
REMARK    4  A    between atoms: C_19  and  C_20
REMARK    5  A    between atoms: C_20  and  C_21
REMARK                            x       y       z     vdW  Elec       q    Type
REMARK                         _______ _______ _______ _____ _____    ______ ____
ROOT
ATOM      1  C   UNL     1      -1.593  -0.312  24.651  0.00  0.00    +0.090 C 
ATOM      2  N   UNL     1      -1.702   0.448  24.346  0.00  0.00    -0.271 NA
ATOM      3  C   UNL     1      -2.430   0.798  24.511  0.00  0.00    +0.083 C 
ATOM      4  C   UNL     1      -3.023   0.428  24.950  0.00  0.00    +0.035 C 
ATOM      5  C   UNL     1      -3.665   0.945  24.998  0.00  0.00    +0.074 C 
ATOM      6  N   UNL     1      -3.468   1.634  24.588  0.00  0.00    -0.259 NA
ATOM     13  C   UNL     1      -2.705   1.543  24.287  0.00  0.00    +0.152 C 
ATOM     14  C   UNL     1      -2.319   2.121  23.844  0.00  0.00    +0.257 C 
ATOM     15  O   UNL     1      -2.746   2.816  23.713  0.00  0.00    -0.272 OA
ATOM     16  N   UNL     1      -1.563   2.099  23.515  0.00  0.00    -0.203 NA
ATOM     17  C   UNL     1      -1.006   1.490  23.548  0.00  0.00    +0.131 C 
ATOM     18  C   UNL     1      -1.068   0.756  23.918  0.00  0.00    +0.080 C 
ENDROOT
BRANCH   6   7
ATOM      7  C   UNL     1      -3.950   2.298  24.496  0.00  0.00    +0.139 C 
BRANCH   7   8
ATOM      8  C   UNL     1      -4.682   2.331  24.874  0.00  0.00    +0.155 A 
ATOM      9  N   UNL     1      -5.375   1.958  24.624  0.00  0.00    -0.226 NA
ATOM     10  C   UNL     1      -5.970   2.140  25.165  0.00  0.00    +0.121 A 
ATOM     11  C   UNL     1      -5.647   2.625  25.749  0.00  0.00    +0.121 A 
ATOM     12  N   UNL     1      -4.850   2.743  25.569  0.00  0.00    -0.226 NA
ENDBRANCH   7   8
ENDBRANCH   6   7
BRANCH  18  19
ATOM     19  C   UNL     1      -0.408   0.264  23.849  0.00  0.00    +0.027 C 
BRANCH  19  20
ATOM     20  C   UNL     1       0.282   0.549  23.498  0.00  0.00    +0.087 C 
BRANCH  20  21
ATOM     21  C   UNL     1       0.799   0.025  23.123  0.00  0.00    +0.226 C 
ATOM     22  O   UNL     1       0.530  -0.714  22.874  0.00  0.00    -0.275 OA
ATOM     23  N   UNL     1       1.586   0.242  22.999  0.00  0.00    -0.279 N 
ATOM     24  C   UNL     1       2.103  -0.281  22.624  0.00  0.00    +0.096 C 
ATOM     25  C   UNL     1       2.889  -0.065  22.500  0.00  0.00    +0.054 C 
ATOM     26  C   UNL     1       3.159   0.674  22.750  0.00  0.00    +0.155 C 
ATOM     27  O   UNL     1       3.945   0.890  22.625  0.00  0.00    -0.223 OA
ATOM     28  C   UNL     1       2.641   1.197  23.124  0.00  0.00    +0.054 C 
ATOM     29  C   UNL     1       1.855   0.980  23.248  0.00  0.00    +0.096 C 
ENDBRANCH  20  21
ENDBRANCH  19  20
ENDBRANCH  18  19
TORSDOF 5
ENDMDL
MODEL 4
REMARK VINA RESULT:      -7.6      2.548      4.441
REMARK  Name = 
REMARK  5 active torsions:
REMARK  status: ('A' for Active; 'I' for Inactive)
REMARK    1  A    between atoms: N_6  and  C_7
REMARK    2  A    between atoms: C_7  and  C_8
REMARK    3  A    between atoms: C_18  and  C_19
REMARK    4  A    between atoms: C_19  and  C_20
REMARK    5  A    between atoms: C_20  and  C_21
REMARK                            x       y       z     vdW  Elec       q    Type
REMARK                         _______ _______ _______ _____ _____    ______ ____
ROOT
ATOM      1  C   UNL     1      -0.503   0.168  24.564  0.00  0.00    +0.090 C 
ATOM      2  N   UNL     1      -1.293   0.241  24.793  0.00  0.00    -0.271 NA
ATOM      3  C   UNL     1      -1.732  -0.457  24.790  0.00  0.00    +0.083 C 
ATOM      4  C   UNL     1      -1.419  -1.191  24.575  0.00  0.00    +0.035 C 
ATOM      5  C   UNL     1      -2.019  -1.753  24.640  0.00  0.00    +0.074 C 
ATOM      6  N   UNL     1      -2.703  -1.368  24.895  0.00  0.00    -0.259 NA
ATOM     13  C   UNL     1      -2.525  -0.567  24.988  0.00  0.00    +0.152 C 
ATOM     14  C   UNL     1      -3.075  -0.005  25.237  0.00  0.00    +0.257 C 
ATOM     15  O   UNL     1      -3.833  -0.292  25.394  0.00  0.00    -0.272 OA
ATOM     16  N   UNL     1      -2.968   0.805  25.351  0.00  0.00    -0.203 NA
ATOM     17  C   UNL     1      -2.283   1.253  25.243  0.00  0.00    +0.131 C 
ATOM     18  C   UNL     1      -1.538   1.002  24.994  0.00  0.00    +0.080 C 
ENDROOT
BRANCH   6   7
ATOM      7  C   UNL     1      -3.436  -1.721  25.034  0.00  0.00    +0.139 C 
BRANCH   7   8
ATOM      8  C   UNL     1      -3.673  -2.369  24.581  0.00  0.00    +0.155 A 
ATOM      9  N   UNL     1      -3.491  -3.159  24.733  0.00  0.00    -0.226 NA
ATOM     10  C   UNL     1      -3.840  -3.618  24.143  0.00  0.00    +0.121 A 
ATOM     11  C   UNL     1      -4.237  -3.112  23.626  0.00  0.00    +0.121 A 
ATOM     12  N   UNL     1      -4.134  -2.339  23.898  0.00  0.00    -0.226 NA
ENDBRANCH   7   8
ENDBRANCH   6   7
BRANCH  18  19
ATOM     19  C   UNL     1      -0.962   1.591  24.940  0.00  0.00    +0.027 C 
BRANCH  19  20
ATOM     20  C   UNL     1      -1.154   2.372  25.123  0.00  0.00    +0.087 C 
BRANCH  20  21
ATOM     21  C   UNL     1      -0.661   2.986  24.874  0.00  0.00    +0.226 C 
ATOM     22  O   UNL     1       0.083   2.817  24.559  0.00  0.00    -0.275 OA
ATOM     23  N   UNL     1      -0.913   3.769  24.941  0.00  0.00    -0.279 N 
ATOM     24  C   UNL     1      -0.420   4.383  24.692  0.00  0.00    +0.096 C 
ATOM     25  C   UNL     1      -0.672   5.166  24.759  0.00  0.00    +0.054 C 
ATOM     26  C   UNL     1      -1.416   5.335  25.074  0.00  0.00    +0.155 C 
ATOM     27  O   UNL     1      -1.667   6.118  25.141  0.00  0.00    -0.223 OA
ATOM     28  C   UNL     1      -1.908   4.721  25.323  0.00  0.00    +0.054 C 
ATOM     29  C   UNL     1      -1.656   3.938  25.256  0.00  0.00    +0.096 C 
ENDBRANCH  20  21
ENDBRANCH  19  20
ENDBRANCH  18  19
TORSDOF 5
ENDMDL
MODEL 5
REMARK VINA RESULT:      -6.9     14.705     16.014
REMARK  Name = 
REMARK  5 active torsions:
REMARK  status: ('A' for Active; 'I' for Inactive)
REMARK    1  A    between atoms: N_6  and  C_7
REMARK    2  A    between atoms: C_7  and  C_8
REMARK    3  A    between atoms: C_18  and  C_19
REMARK    4  A    between atoms: C_19  and  C_20
REMARK    5  A    between atoms: C_20  and  C_21
REMARK                            x       y       z     vdW  Elec       q    Type
REMARK                         _______ _______ _______ _____ _____    ______ ____
ROOT
ATOM      1  C   UNL     1      -3.259 -10.781  14.368  0.00  0.00    +0.090 C 
ATOM      2  N   UNL     1      -3.997 -10.538  14.088  0.00  0.00    -0.271 NA
ATOM      3  C   UNL     1      -4.041 -10.394  13.277  0.00  0.00    +0.083 C 
ATOM      4  C   UNL     1      -3.400 -10.480  12.764  0.00  0.00    +0.035 C 
ATOM      5  C   UNL     1      -3.654 -10.288  12.003  0.00  0.00    +0.074 C 
ATOM      6  N   UNL     1      -4.453 -10.082  12.046  0.00  0.00    -0.259 NA
ATOM     13  C   UNL     1      -4.691 -10.148  12.833  0.00  0.00    +0.152 C 
ATOM     14  C   UNL     1      -5.458  -9.986  13.091  0.00  0.00    +0.257 C 
ATOM     15  O   UNL     1      -5.990  -9.748  12.506  0.00  0.00    -0.272 OA
ATOM     16  N   UNL     1      -5.764 -10.030  13.855  0.00  0.00    -0.203 NA
ATOM     17  C   UNL     1      -5.378 -10.247  14.552  0.00  0.00    +0.131 C 
ATOM     18  C   UNL     1      -4.591 -10.473  14.655  0.00  0.00    +0.080 C 
ENDROOT
BRANCH   6   7
ATOM      7  C   UNL     1      -4.929  -9.852  11.412  0.00  0.00    +0.139 C 
BRANCH   7   8
ATOM      8  C   UNL     1      -4.584  -9.635  10.695  0.00  0.00    +0.155 A 
ATOM      9  N   UNL     1      -4.342 -10.151  10.098  0.00  0.00    -0.226 NA
ATOM     10  C   UNL     1      -4.029  -9.699   9.483  0.00  0.00    +0.121 A 
ATOM     11  C   UNL     1      -4.077  -8.904   9.700  0.00  0.00    +0.121 A 
ATOM     12  N   UNL     1      -4.420  -8.865  10.449  0.00  0.00    -0.226 NA
ENDBRANCH   7   8
ENDBRANCH   6   7
BRANCH  18  19
ATOM     19  C   UNL     1      -4.371 -10.659  15.429  0.00  0.00    +0.027 C 
BRANCH  19  20
ATOM     20  C   UNL     1      -4.897 -10.522  16.050  0.00  0.00    +0.087 C 
BRANCH  20  21
ATOM     21  C   UNL     1      -4.652 -10.641  16.830  0.00  0.00    +0.226 C 
ATOM     22  O   UNL     1      -3.854 -10.768  16.998  0.00  0.00    -0.275 OA
ATOM     23  N   UNL     1      -5.207 -10.632  17.441  0.00  0.00    -0.279 N 
ATOM     24  C   UNL     1      -4.962 -10.751  18.220  0.00  0.00    +0.096 C 
ATOM     25  C   UNL     1      -5.517 -10.742  18.832  0.00  0.00    +0.054 C 
ATOM     26  C   UNL     1      -6.315 -10.614  18.664  0.00  0.00    +0.155 C 
ATOM     27  O   UNL     1      -6.868 -10.606  19.275  0.00  0.00    -0.223 OA
ATOM     28  C   UNL     1      -6.558 -10.496  17.885  0.00  0.00    +0.054 C 
ATOM     29  C   UNL     1      -6.004 -10.505  17.274  0.00  0.00    +0.096 C 
ENDBRANCH  20  21
ENDBRANCH  19  20
ENDBRANCH  18  19
TORSDOF 5
ENDMDL
MODEL 6
REMARK VINA RESULT:      -6.6     15.064     16.824
REMARK  Name = 
REMARK  5 active torsions:
REMARK  status: ('A' for Active; 'I' for Inactive)
REMARK    1  A    between atoms: N_6  and  C_7
REMARK    2  A    between atoms: C_7  and  C_8
REMARK    3  A    between atoms: C_18  and  C_19
REMARK    4  A    between atoms: C_19  and  C_20
REMARK    5  A    between atoms: C_20  and  C_21
REMARK                            x       y       z     vdW  Elec       q    Type
REMARK                         _______ _______ _______ _____ _____    ______ ____
ROOT
ATOM      1  C   UNL     1      -4.098 -10.465  14.620  0.00  0.00    +0.090 C 
ATOM      2  N   UNL     1      -4.900 -10.372  14.446  0.00  0.00    -0.271 NA
ATOM      3  C   UNL     1      -5.401 -10.306  15.097  0.00  0.00    +0.083 C 
ATOM      4  C   UNL     1      -5.138 -10.329  15.879  0.00  0.00    +0.035 C 
ATOM      5  C   UNL     1      -5.794 -10.247  16.372  0.00  0.00    +0.074 C 
ATOM      6  N   UNL     1      -6.463 -10.172  15.895  0.00  0.00    -0.259 NA
ATOM     13  C   UNL     1      -6.221 -10.209  15.107  0.00  0.00    +0.152 C 
ATOM     14  C   UNL     1      -6.740 -10.154  14.469  0.00  0.00    +0.257 C 
ATOM     15  O   UNL     1      -7.536 -10.058  14.663  0.00  0.00    -0.272 OA
ATOM     16  N   UNL     1      -6.569 -10.182  13.663  0.00  0.00    -0.203 NA
ATOM     17  C   UNL     1      -5.835 -10.272  13.295  0.00  0.00    +0.131 C 
ATOM     18  C   UNL     1      -5.092 -10.357  13.644  0.00  0.00    +0.080 C 
ENDROOT
BRANCH   6   7
ATOM      7  C   UNL     1      -7.239 -10.078  16.160  0.00  0.00    +0.139 C 
BRANCH   7   8
ATOM      8  C   UNL     1      -7.402 -10.078  16.969  0.00  0.00    +0.155 A 
ATOM      9  N   UNL     1      -7.394  -9.419  17.465  0.00  0.00    -0.226 NA
ATOM     10  C   UNL     1      -7.588  -9.671  18.226  0.00  0.00    +0.121 A 
ATOM     11  C   UNL     1      -7.716 -10.486  18.201  0.00  0.00    +0.121 A 
ATOM     12  N   UNL     1      -7.601 -10.737  17.423  0.00  0.00    -0.226 NA
ENDBRANCH   7   8
ENDBRANCH   6   7
BRANCH  18  19
ATOM     19  C   UNL     1      -4.458 -10.437  13.121  0.00  0.00    +0.027 C 
BRANCH  19  20
ATOM     20  C   UNL     1      -4.515 -10.134  12.356  0.00  0.00    +0.087 C 
BRANCH  20  21
ATOM     21  C   UNL     1      -3.868 -10.180  11.846  0.00  0.00    +0.226 C 
ATOM     22  O   UNL     1      -3.202 -10.616  12.062  0.00  0.00    -0.275 OA
ATOM     23  N   UNL     1      -3.888  -9.789  11.119  0.00  0.00    -0.279 N 
ATOM     24  C   UNL     1      -3.241  -9.835  10.609  0.00  0.00    +0.096 C 
ATOM     25  C   UNL     1      -3.261  -9.444   9.882  0.00  0.00    +0.054 C 
ATOM     26  C   UNL     1      -3.928  -9.008   9.666  0.00  0.00    +0.155 C 
ATOM     27  O   UNL     1      -3.947  -8.617   8.940  0.00  0.00    -0.223 OA
ATOM     28  C   UNL     1      -4.574  -8.962  10.177  0.00  0.00    +0.054 C 
ATOM     29  C   UNL     1      -4.554  -9.353  10.903  0.00  0.00    +0.096 C 
ENDBRANCH  20  21
ENDBRANCH  19  20
ENDBRANCH  18  19
TORSDOF 5
ENDMDL
MODEL 7
REMARK VINA RESULT:      -6.5     17.272     18.299
REMARK  Name = 
REMARK  5 active torsions:
REMARK  status: ('A' for Active; 'I' for Inactive)
REMARK    1  A    between atoms: N_6  and  C_7
REMARK    2  A    between atoms: C_7  and  C_8
REMARK    3  A    between atoms: C_18  and  C_19
REMARK    4  A    between atoms: C_19  and  C_20
REMARK    5  A    between atoms: C_20  and  C_21
REMARK                            x       y       z     vdW  Elec       q    Type
REMARK                         _______ _______ _______ _____ _____    ______ ____
ROOT
ATOM      1  C   UNL     1      -6.772  -9.099  11.038  0.00  0.00    +0.090 C 
ATOM      2  N   UNL     1      -6.255  -9.112  10.394  0.00  0.00    -0.271 NA
ATOM      3  C   UNL     1      -5.468  -9.287  10.571  0.00  0.00    +0.083 C 
ATOM      4  C   UNL     1      -5.198  -9.442  11.335  0.00  0.00    +0.035 C 
ATOM      5  C   UNL     1      -4.388  -9.592  11.293  0.00  0.00    +0.074 C 
ATOM      6  N   UNL     1      -4.157  -9.530  10.503  0.00  0.00    -0.259 NA
ATOM     13  C   UNL     1      -4.826  -9.341  10.057  0.00  0.00    +0.152 C 
ATOM     14  C   UNL     1      -4.811  -9.233   9.239  0.00  0.00    +0.257 C 
ATOM     15  O   UNL     1      -4.073  -9.326   8.879  0.00  0.00    -0.272 OA
ATOM     16  N   UNL     1      -5.434  -9.044   8.734  0.00  0.00    -0.203 NA
ATOM     17  C   UNL     1      -6.228  -8.917   8.921  0.00  0.00    +0.131 C 
ATOM     18  C   UNL     1      -6.593  -8.947   9.661  0.00  0.00    +0.080 C 
ENDROOT
BRANCH   6   7
ATOM      7  C   UNL     1      -3.393  -9.637  10.210  0.00  0.00    +0.139 C 
BRANCH   7   8
ATOM      8  C   UNL     1      -2.774  -9.809  10.728  0.00  0.00    +0.155 A 
ATOM      9  N   UNL     1      -2.165  -9.296  10.942  0.00  0.00    -0.226 NA
ATOM     10  C   UNL     1      -1.670  -9.694  11.469  0.00  0.00    +0.121 A 
ATOM     11  C   UNL     1      -1.973 -10.453  11.580  0.00  0.00    +0.121 A 
ATOM     12  N   UNL     1      -2.656 -10.524  11.121  0.00  0.00    -0.226 NA
ENDBRANCH   7   8
ENDBRANCH   6   7
BRANCH  18  19
ATOM     19  C   UNL     1      -7.404  -8.792   9.666  0.00  0.00    +0.027 C 
BRANCH  19  20
ATOM     20  C   UNL     1      -7.713  -8.204   9.176  0.00  0.00    +0.087 C 
BRANCH  20  21
ATOM     21  C   UNL     1      -8.530  -8.092   9.133  0.00  0.00    +0.226 C 
ATOM     22  O   UNL     1      -9.042  -8.705   9.341  0.00  0.00    -0.275 OA
ATOM     23  N   UNL     1      -8.834  -7.368   8.880  0.00  0.00    -0.279 N 
ATOM     24  C   UNL     1      -9.650  -7.256   8.837  0.00  0.00    +0.096 C 
ATOM     25  C   UNL     1      -9.954  -6.532   8.584  0.00  0.00    +0.054 C 
ATOM     26  C   UNL     1      -9.442  -5.919   8.376  0.00  0.00    +0.155 C 
ATOM     27  O   UNL     1      -9.746  -5.195   8.124  0.00  0.00    -0.223 OA
ATOM     28  C   UNL     1      -8.626  -6.031   8.420  0.00  0.00    +0.054 C 
ATOM     29  C   UNL     1      -8.322  -6.756   8.672  0.00  0.00    +0.096 C 
ENDBRANCH  20  21
ENDBRANCH  19  20
ENDBRANCH  18  19
TORSDOF 5
ENDMDL
MODEL 8
REMARK VINA RESULT:      -6.5     15.736     17.653
REMARK  Name = 
REMARK  5 active torsions:
REMARK  status: ('A' for Active; 'I' for Inactive)
REMARK    1  A    between atoms: N_6  and  C_7
REMARK    2  A    between atoms: C_7  and  C_8
REMARK    3  A    between atoms: C_18  and  C_19
REMARK    4  A    between atoms: C_19  and  C_20
REMARK    5  A    between atoms: C_20  and  C_21
REMARK                            x       y       z     vdW  Elec       q    Type
REMARK                         _______ _______ _______ _____ _____    ______ ____
ROOT
ATOM      1  C   UNL     1      -3.132  -9.687  11.028  0.00  0.00    +0.090 C 
ATOM      2  N   UNL     1      -3.889  -9.895  11.284  0.00  0.00    -0.271 NA
ATOM      3  C   UNL     1      -4.512  -9.621  10.819  0.00  0.00    +0.083 C 
ATOM      4  C   UNL     1      -4.405  -9.166  10.139  0.00  0.00    +0.035 C 
ATOM      5  C   UNL     1      -5.150  -8.998   9.825  0.00  0.00    +0.074 C 
ATOM      6  N   UNL     1      -5.717  -9.348  10.312  0.00  0.00    -0.259 NA
ATOM     13  C   UNL     1      -5.322  -9.733  10.926  0.00  0.00    +0.152 C 
ATOM     14  C   UNL     1      -5.708 -10.149  11.525  0.00  0.00    +0.257 C 
ATOM     15  O   UNL     1      -6.533 -10.161  11.478  0.00  0.00    -0.272 OA
ATOM     16  N   UNL     1      -5.381 -10.554  12.164  0.00  0.00    -0.203 NA
ATOM     17  C   UNL     1      -4.585 -10.644  12.363  0.00  0.00    +0.131 C 
ATOM     18  C   UNL     1      -3.921 -10.350  11.971  0.00  0.00    +0.080 C 
ENDROOT
BRANCH   6   7
ATOM      7  C   UNL     1      -6.534  -9.320  10.203  0.00  0.00    +0.139 C 
BRANCH   7   8
ATOM      8  C   UNL     1      -6.847  -8.991   9.515  0.00  0.00    +0.155 A 
ATOM      9  N   UNL     1      -6.966  -9.384   8.799  0.00  0.00    -0.226 NA
ATOM     10  C   UNL     1      -7.288  -8.847   8.264  0.00  0.00    +0.121 A 
ATOM     11  C   UNL     1      -7.369  -8.121   8.647  0.00  0.00    +0.121 A 
ATOM     12  N   UNL     1      -7.096  -8.210   9.421  0.00  0.00    -0.226 NA
ENDBRANCH   7   8
ENDBRANCH   6   7
BRANCH  18  19
ATOM     19  C   UNL     1      -3.193 -10.538  12.312  0.00  0.00    +0.027 C 
BRANCH  19  20
ATOM     20  C   UNL     1      -3.093 -10.477  13.129  0.00  0.00    +0.087 C 
BRANCH  20  21
ATOM     21  C   UNL     1      -2.348 -10.596  13.463  0.00  0.00    +0.226 C 
ATOM     22  O   UNL     1      -1.686 -10.681  12.977  0.00  0.00    -0.275 OA
ATOM     23  N   UNL     1      -2.264 -10.629  14.283  0.00  0.00    -0.279 N 
ATOM     24  C   UNL     1      -1.519 -10.747  14.617  0.00  0.00    +0.096 C 
ATOM     25  C   UNL     1      -1.436 -10.780  15.437  0.00  0.00    +0.054 C 
ATOM     26  C   UNL     1      -2.097 -10.695  15.924  0.00  0.00    +0.155 C 
ATOM     27  O   UNL     1      -2.013 -10.728  16.743  0.00  0.00    -0.223 OA
ATOM     28  C   UNL     1      -2.842 -10.576  15.589  0.00  0.00    +0.054 C 
ATOM     29  C   UNL     1      -2.925 -10.543  14.769  0.00  0.00    +0.096 C 
ENDBRANCH  20  21
ENDBRANCH  19  20
ENDBRANCH  18  19
TORSDOF 5
ENDMDL
