MODEL 1
REMARK VINA RESULT:     -17.5      0.000      0.000
REMARK  Name = 
REMARK  4 active torsions:
REMARK  status: ('A' for Active; 'I' for Inactive)
REMARK    1  A    between atoms: N_9  and  C_10
REMARK    2  A    between atoms: C_10  and  C_11
REMARK    3  A    between atoms: C_25  and  C_26
REMARK    4  A    between atoms: C_28  and  C_32
REMARK                            x       y       z     vdW  Elec       q    Type
REMARK                         _______ _______ _______ _____ _____    ______ ____
ROOT
ATOM      1  O   UNL     1      -2.435   1.894  24.793  0.00  0.00    -0.267 OA
ATOM      2  C   UNL     1      -3.085   2.346  25.024  0.00  0.00    +0.261 A 
ATOM      3  N   UNL     1      -3.839   2.011  25.029  0.00  0.00    -0.299 N 
ATOM      4  C   UNL     1      -3.990   2.791  25.288  0.00  0.00    +0.110 C 
ATOM      5  C   UNL     1      -4.969   2.739  25.412  0.00  0.00    +0.039 C 
ATOM      6  C   UNL     1      -5.761   2.858  25.561  0.00  0.00    +0.011 C 
ATOM      7  C   UNL     1      -5.347   2.335  25.343  0.00  0.00    +0.054 C 
ATOM      8  C   UNL     1      -5.376   1.455  25.079  0.00  0.00    +0.078 C 
ATOM      9  N   UNL     1      -4.586   1.339  24.931  0.00  0.00    -0.269 NA
ATOM     21  C   UNL     1      -4.990   1.820  25.135  0.00  0.00    +0.074 C 
ATOM     22  C   UNL     1      -4.489   2.463  25.260  0.00  0.00    +0.041 A 
ATOM     23  C   UNL     1      -4.386   3.249  25.484  0.00  0.00    +0.013 A 
ATOM     24  C   UNL     1      -3.633   3.584  25.479  0.00  0.00    +0.006 A 
ATOM     25  C   UNL     1      -2.982   3.133  25.249  0.00  0.00    +0.056 A 
ENDROOT
BRANCH  25  26
ATOM     26  C   UNL     1      -2.228   3.468  25.243  0.00  0.00    +0.005 A 
ATOM     27  C   UNL     1      -1.601   3.079  25.613  0.00  0.00    +0.010 A 
ATOM     28  C   UNL     1      -0.847   3.414  25.608  0.00  0.00    +0.068 A 
ATOM     29  C   UNL     1      -0.720   4.138  25.232  0.00  0.00    +0.010 A 
ATOM     30  C   UNL     1      -1.347   4.527  24.863  0.00  0.00    +0.001 A 
ATOM     31  C   UNL     1      -2.101   4.192  24.869  0.00  0.00    +0.000 A 
BRANCH  28  32
ATOM     32  C   UNL     1      -0.220   3.025  25.977  0.00  0.00    +0.100 C 
ATOM     33  N   UNL     1       0.406   2.637  26.346  0.00  0.00    -0.191 NA
ENDBRANCH  28  32
ENDBRANCH  25  26
BRANCH   9  10
ATOM     10  C   UNL     1      -3.889   0.957  24.715  0.00  0.00    +0.101 C 
BRANCH  10  11
ATOM     11  C   UNL     1      -3.899   0.153  24.531  0.00  0.00    +0.013 A 
ATOM     12  C   UNL     1      -3.656  -0.401  25.091  0.00  0.00    +0.000 A 
ATOM     13  C   UNL     1      -3.666  -1.206  24.907  0.00  0.00    +0.017 A 
ATOM     14  C   UNL     1      -3.920  -1.455  24.162  0.00  0.00    +0.081 A 
ATOM     15  C   UNL     1      -3.930  -2.259  23.978  0.00  0.00    +0.019 A 
ATOM     16  C   UNL     1      -3.687  -2.814  24.538  0.00  0.00    +0.002 A 
ATOM     17  C   UNL     1      -3.434  -2.565  25.283  0.00  0.00    +0.000 A 
ATOM     18  C   UNL     1      -3.424  -1.761  25.466  0.00  0.00    +0.001 A 
ATOM     19  N   UNL     1      -4.163  -0.901  23.602  0.00  0.00    -0.244 NA
ATOM     20  C   UNL     1      -4.152  -0.097  23.786  0.00  0.00    +0.096 A 
ENDBRANCH  10  11
ENDBRANCH   9  10
TORSDOF 4
ENDMDL
MODEL 2
REMARK VINA RESULT:     -16.2      1.000      4.668
REMARK  Name = 
REMARK  4 active torsions:
REMARK  status: ('A' for Active; 'I' for Inactive)
REMARK    1  A    between atoms: N_9  and  C_10
REMARK    2  A    between atoms: C_10  and  C_11
REMARK    3  A    between atoms: C_25  and  C_26
REMARK    4  A    between atoms: C_28  and  C_32
REMARK                            x       y       z     vdW  Elec       q    Type
REMARK                         _______ _______ _______ _____ _____    ______ ____
ROOT
ATOM      1  O   UNL     1      -3.005   0.830  25.185  0.00  0.00    -0.267 OA
ATOM      2  C   UNL     1      -3.824   0.923  25.140  0.00  0.00    +0.261 A 
ATOM      3  N   UNL     1      -4.152   1.680  25.112  0.00  0.00    -0.299 N 
ATOM      4  C   UNL     1      -4.829   1.191  25.083  0.00  0.00    +0.110 C 
ATOM      5  C   UNL     1      -5.532   1.885  25.036  0.00  0.00    +0.039 C 
ATOM      6  C   UNL     1      -6.216   2.324  24.993  0.00  0.00    +0.011 C 
ATOM      7  C   UNL     1      -5.526   2.442  25.028  0.00  0.00    +0.054 C 
ATOM      8  C   UNL     1      -4.912   3.126  25.052  0.00  0.00    +0.078 C 
ATOM      9  N   UNL     1      -4.231   2.686  25.094  0.00  0.00    -0.269 NA
ATOM     21  C   UNL     1      -4.883   2.592  25.061  0.00  0.00    +0.074 C 
ATOM     22  C   UNL     1      -4.970   1.773  25.067  0.00  0.00    +0.041 A 
ATOM     23  C   UNL     1      -5.460   1.110  25.050  0.00  0.00    +0.013 A 
ATOM     24  C   UNL     1      -5.133   0.354  25.078  0.00  0.00    +0.006 A 
ATOM     25  C   UNL     1      -4.314   0.260  25.123  0.00  0.00    +0.056 A 
ENDROOT
BRANCH  25  26
ATOM     26  C   UNL     1      -3.986  -0.497  25.151  0.00  0.00    +0.005 A 
ATOM     27  C   UNL     1      -4.127  -1.030  24.537  0.00  0.00    +0.010 A 
ATOM     28  C   UNL     1      -3.799  -1.787  24.565  0.00  0.00    +0.068 A 
ATOM     29  C   UNL     1      -3.331  -2.010  25.207  0.00  0.00    +0.010 A 
ATOM     30  C   UNL     1      -3.191  -1.477  25.820  0.00  0.00    +0.001 A 
ATOM     31  C   UNL     1      -3.519  -0.720  25.792  0.00  0.00    +0.000 A 
BRANCH  28  32
ATOM     32  C   UNL     1      -3.938  -2.319  23.951  0.00  0.00    +0.100 C 
ATOM     33  N   UNL     1      -4.078  -2.852  23.337  0.00  0.00    -0.191 NA
ENDBRANCH  28  32
ENDBRANCH  25  26
BRANCH   9  10
ATOM     10  C   UNL     1      -3.427   2.508  25.140  0.00  0.00    +0.101 C 
BRANCH  10  11
ATOM     11  C   UNL     1      -2.872   3.117  25.178  0.00  0.00    +0.013 A 
ATOM     12  C   UNL     1      -2.221   3.114  24.671  0.00  0.00    +0.000 A 
ATOM     13  C   UNL     1      -1.666   3.723  24.710  0.00  0.00    +0.017 A 
ATOM     14  C   UNL     1      -1.762   4.335  25.255  0.00  0.00    +0.081 A 
ATOM     15  C   UNL     1      -1.206   4.944  25.293  0.00  0.00    +0.019 A 
ATOM     16  C   UNL     1      -0.555   4.941  24.786  0.00  0.00    +0.002 A 
ATOM     17  C   UNL     1      -0.459   4.329  24.241  0.00  0.00    +0.000 A 
ATOM     18  C   UNL     1      -1.014   3.720  24.203  0.00  0.00    +0.001 A 
ATOM     19  N   UNL     1      -2.412   4.338  25.761  0.00  0.00    -0.244 NA
ATOM     20  C   UNL     1      -2.968   3.729  25.723  0.00  0.00    +0.096 A 
ENDBRANCH  10  11
ENDBRANCH   9  10
TORSDOF 4
ENDMDL
MODEL 3
REMARK VINA RESULT:     -14.4      1.975      3.320
REMARK  Name = 
REMARK  4 active torsions:
REMARK  status: ('A' for Active; 'I' for Inactive)
REMARK    1  A    between atoms: N_9  and  C_10
REMARK    2  A    between atoms: C_10  and  C_11
REMARK    3  A    between atoms: C_25  and  C_26
REMARK    4  A    between atoms: C_28  and  C_32
REMARK                            x       y       z     vdW  Elec       q    Type
REMARK                         _______ _______ _______ _____ _____    ______ ____
ROOT
ATOM      1  O   UNL     1      -2.361   1.399  25.253  0.00  0.00    -0.267 OA
ATOM      2  C   UNL     1      -1.628   1.532  24.896  0.00  0.00    +0.261 A 
ATOM      3  N   UNL     1      -1.195   0.897  24.595  0.00  0.00    -0.299 N 
ATOM      4  C   UNL     1      -0.699   1.547  24.424  0.00  0.00    +0.110 C 
ATOM      5  C   UNL     1       0.048   1.074  23.984  0.00  0.00    +0.039 C 
ATOM      6  C   UNL     1       0.731   0.840  23.606  0.00  0.00    +0.011 C 
ATOM      7  C   UNL     1       0.151   0.539  23.863  0.00  0.00    +0.054 C 
ATOM      8  C   UNL     1      -0.252  -0.281  23.965  0.00  0.00    +0.078 C 
ATOM      9  N   UNL     1      -0.931  -0.044  24.341  0.00  0.00    -0.269 NA
ATOM     21  C   UNL     1      -0.380   0.222  24.094  0.00  0.00    +0.074 C 
ATOM     22  C   UNL     1      -0.464   1.029  24.239  0.00  0.00    +0.041 A 
ATOM     23  C   UNL     1      -0.165   1.796  24.183  0.00  0.00    +0.013 A 
ATOM     24  C   UNL     1      -0.597   2.430  24.484  0.00  0.00    +0.006 A 
ATOM     25  C   UNL     1      -1.329   2.298  24.841  0.00  0.00    +0.056 A 
ENDROOT
BRANCH  25  26
ATOM     26  C   UNL     1      -1.762   2.933  25.142  0.00  0.00    +0.005 A 
ATOM     27  C   UNL     1      -2.445   3.187  24.754  0.00  0.00    +0.010 A 
ATOM     28  C   UNL     1      -2.878   3.822  25.055  0.00  0.00    +0.068 A 
ATOM     29  C   UNL     1      -2.628   4.202  25.744  0.00  0.00    +0.010 A 
ATOM     30  C   UNL     1      -1.946   3.947  26.131  0.00  0.00    +0.001 A 
ATOM     31  C   UNL     1      -1.513   3.313  25.830  0.00  0.00    +0.000 A 
BRANCH  28  32
ATOM     32  C   UNL     1      -3.560   4.077  24.667  0.00  0.00    +0.100 C 
ATOM     33  N   UNL     1      -4.242   4.331  24.280  0.00  0.00    -0.191 NA
ENDBRANCH  28  32
ENDBRANCH  25  26
BRANCH   9  10
ATOM     10  C   UNL     1      -1.667  -0.091  24.710  0.00  0.00    +0.101 C 
BRANCH  10  11
ATOM     11  C   UNL     1      -2.083  -0.804  24.709  0.00  0.00    +0.013 A 
ATOM     12  C   UNL     1      -2.790  -0.868  24.288  0.00  0.00    +0.000 A 
ATOM     13  C   UNL     1      -3.206  -1.580  24.287  0.00  0.00    +0.017 A 
ATOM     14  C   UNL     1      -2.915  -2.229  24.708  0.00  0.00    +0.081 A 
ATOM     15  C   UNL     1      -3.332  -2.941  24.706  0.00  0.00    +0.019 A 
ATOM     16  C   UNL     1      -4.038  -3.005  24.286  0.00  0.00    +0.002 A 
ATOM     17  C   UNL     1      -4.329  -2.357  23.865  0.00  0.00    +0.000 A 
ATOM     18  C   UNL     1      -3.912  -1.645  23.867  0.00  0.00    +0.001 A 
ATOM     19  N   UNL     1      -2.209  -2.164  25.128  0.00  0.00    -0.244 NA
ATOM     20  C   UNL     1      -1.793  -1.452  25.129  0.00  0.00    +0.096 A 
ENDBRANCH  10  11
ENDBRANCH   9  10
TORSDOF 4
ENDMDL
MODEL 4
REMARK VINA RESULT:     -13.7      1.624      2.828
REMARK  Name = 
REMARK  4 active torsions:
REMARK  status: ('A' for Active; 'I' for Inactive)
REMARK    1  A    between atoms: N_9  and  C_10
REMARK    2  A    between atoms: C_10  and  C_11
REMARK    3  A    between atoms: C_25  and  C_26
REMARK    4  A    between atoms: C_28  and  C_32
REMARK                            x       y       z     vdW  Elec       q    Type
REMARK                         _______ _______ _______ _____ _____    ______ ____
ROOT
ATOM      1  O   UNL     1      -3.529   1.748  25.234  0.00  0.00    -0.267 OA
ATOM      2  C   UNL     1      -3.332   2.106  24.517  0.00  0.00    +0.261 A 
ATOM      3  N   UNL     1      -3.057   1.646  23.889  0.00  0.00    -0.299 N 
ATOM      4  C   UNL     1      -3.049   2.416  23.563  0.00  0.00    +0.110 C 
ATOM      5  C   UNL     1      -2.713   2.208  22.658  0.00  0.00    +0.039 C 
ATOM      6  C   UNL     1      -2.450   2.205  21.887  0.00  0.00    +0.011 C 
ATOM      7  C   UNL     1      -2.562   1.738  22.399  0.00  0.00    +0.054 C 
ATOM      8  C   UNL     1      -2.503   0.839  22.579  0.00  0.00    +0.078 C 
ATOM      9  N   UNL     1      -2.766   0.846  23.348  0.00  0.00    -0.269 NA
ATOM     21  C   UNL     1      -2.655   1.271  22.856  0.00  0.00    +0.074 C 
ATOM     22  C   UNL     1      -2.861   2.003  23.173  0.00  0.00    +0.041 A 
ATOM     23  C   UNL     1      -2.939   2.819  23.083  0.00  0.00    +0.013 A 
ATOM     24  C   UNL     1      -3.214   3.278  23.710  0.00  0.00    +0.006 A 
ATOM     25  C   UNL     1      -3.411   2.922  24.428  0.00  0.00    +0.056 A 
ENDROOT
BRANCH  25  26
ATOM     26  C   UNL     1      -3.686   3.381  25.056  0.00  0.00    +0.005 A 
ATOM     27  C   UNL     1      -4.489   3.563  25.112  0.00  0.00    +0.010 A 
ATOM     28  C   UNL     1      -4.764   4.022  25.740  0.00  0.00    +0.068 A 
ATOM     29  C   UNL     1      -4.236   4.299  26.311  0.00  0.00    +0.010 A 
ATOM     30  C   UNL     1      -3.434   4.117  26.255  0.00  0.00    +0.001 A 
ATOM     31  C   UNL     1      -3.159   3.658  25.627  0.00  0.00    +0.000 A 
BRANCH  28  32
ATOM     32  C   UNL     1      -5.567   4.205  25.797  0.00  0.00    +0.100 C 
ATOM     33  N   UNL     1      -6.369   4.387  25.854  0.00  0.00    -0.191 NA
ENDBRANCH  28  32
ENDBRANCH  25  26
BRANCH   9  10
ATOM     10  C   UNL     1      -2.982   0.567  24.092  0.00  0.00    +0.101 C 
BRANCH  10  11
ATOM     11  C   UNL     1      -2.950  -0.241  24.255  0.00  0.00    +0.013 A 
ATOM     12  C   UNL     1      -3.580  -0.730  24.044  0.00  0.00    +0.000 A 
ATOM     13  C   UNL     1      -3.548  -1.538  24.207  0.00  0.00    +0.017 A 
ATOM     14  C   UNL     1      -2.885  -1.858  24.581  0.00  0.00    +0.081 A 
ATOM     15  C   UNL     1      -2.854  -2.666  24.744  0.00  0.00    +0.019 A 
ATOM     16  C   UNL     1      -3.483  -3.154  24.533  0.00  0.00    +0.002 A 
ATOM     17  C   UNL     1      -4.146  -2.836  24.158  0.00  0.00    +0.000 A 
ATOM     18  C   UNL     1      -4.177  -2.028  23.996  0.00  0.00    +0.001 A 
ATOM     19  N   UNL     1      -2.256  -1.369  24.793  0.00  0.00    -0.244 NA
ATOM     20  C   UNL     1      -2.288  -0.561  24.630  0.00  0.00    +0.096 A 
ENDBRANCH  10  11
ENDBRANCH   9  10
TORSDOF 4
ENDMDL
MODEL 5
REMARK VINA RESULT:     -13.6      2.149      5.647
REMARK  Name = 
REMARK  4 active torsions:
REMARK  status: ('A' for Active; 'I' for Inactive)
REMARK    1  A    between atoms: N_9  and  C_10
REMARK    2  A    between atoms: C_10  and  C_11
REMARK    3  A    between atoms: C_25  and  C_26
REMARK    4  A    between atoms: C_28  and  C_32
REMARK                            x       y       z     vdW  Elec       q    Type
REMARK                         _______ _______ _______ _____ _____    ______ ____
ROOT
ATOM      1  O   UNL     1      -2.275   0.099  25.253  0.00  0.00    -0.267 OA
ATOM      2  C   UNL     1      -1.658  -0.222  24.808  0.00  0.00    +0.261 A 
ATOM      3  N   UNL     1      -1.035   0.259  24.560  0.00  0.00    -0.299 N 
ATOM      4  C   UNL     1      -0.820  -0.485  24.247  0.00  0.00    +0.110 C 
ATOM      5  C   UNL     1       0.030  -0.240  23.806  0.00  0.00    +0.039 C 
ATOM      6  C   UNL     1       0.735  -0.202  23.399  0.00  0.00    +0.011 C 
ATOM      7  C   UNL     1       0.317   0.236  23.755  0.00  0.00    +0.054 C 
ATOM      8  C   UNL     1       0.248   1.114  24.015  0.00  0.00    +0.078 C 
ATOM      9  N   UNL     1      -0.455   1.073  24.420  0.00  0.00    -0.269 NA
ATOM     21  C   UNL     1      -0.051   0.676  24.082  0.00  0.00    +0.074 C 
ATOM     22  C   UNL     1      -0.419  -0.061  24.116  0.00  0.00    +0.041 A 
ATOM     23  C   UNL     1      -0.425  -0.861  23.920  0.00  0.00    +0.013 A 
ATOM     24  C   UNL     1      -1.047  -1.342  24.167  0.00  0.00    +0.006 A 
ATOM     25  C   UNL     1      -1.664  -1.022  24.612  0.00  0.00    +0.056 A 
ENDROOT
BRANCH  25  26
ATOM     26  C   UNL     1      -2.286  -1.504  24.860  0.00  0.00    +0.005 A 
ATOM     27  C   UNL     1      -2.884  -1.711  24.329  0.00  0.00    +0.010 A 
ATOM     28  C   UNL     1      -3.507  -2.192  24.577  0.00  0.00    +0.068 A 
ATOM     29  C   UNL     1      -3.532  -2.466  25.356  0.00  0.00    +0.010 A 
ATOM     30  C   UNL     1      -2.935  -2.259  25.885  0.00  0.00    +0.001 A 
ATOM     31  C   UNL     1      -2.312  -1.778  25.637  0.00  0.00    +0.000 A 
BRANCH  28  32
ATOM     32  C   UNL     1      -4.104  -2.399  24.048  0.00  0.00    +0.100 C 
ATOM     33  N   UNL     1      -4.702  -2.606  23.518  0.00  0.00    -0.191 NA
ENDBRANCH  28  32
ENDBRANCH  25  26
BRANCH   9  10
ATOM     10  C   UNL     1      -1.105   1.315  24.865  0.00  0.00    +0.101 C 
BRANCH  10  11
ATOM     11  C   UNL     1      -1.192   2.109  25.071  0.00  0.00    +0.013 A 
ATOM     12  C   UNL     1      -1.795   2.560  24.732  0.00  0.00    +0.000 A 
ATOM     13  C   UNL     1      -1.881   3.354  24.938  0.00  0.00    +0.017 A 
ATOM     14  C   UNL     1      -1.365   3.698  25.482  0.00  0.00    +0.081 A 
ATOM     15  C   UNL     1      -1.452   4.492  25.687  0.00  0.00    +0.019 A 
ATOM     16  C   UNL     1      -2.054   4.942  25.349  0.00  0.00    +0.002 A 
ATOM     17  C   UNL     1      -2.571   4.599  24.805  0.00  0.00    +0.000 A 
ATOM     18  C   UNL     1      -2.484   3.805  24.600  0.00  0.00    +0.001 A 
ATOM     19  N   UNL     1      -0.762   3.248  25.820  0.00  0.00    -0.244 NA
ATOM     20  C   UNL     1      -0.676   2.454  25.614  0.00  0.00    +0.096 A 
ENDBRANCH  10  11
ENDBRANCH   9  10
TORSDOF 4
ENDMDL
