REMARK  Name = 
REMARK  6 active torsions:
REMARK  status: ('A' for Active; 'I' for Inactive)
REMARK    1  A    between atoms: O_2  and  C_3
REMARK    2  A    between atoms: C_3  and  C_4
REMARK    3  A    between atoms: N_6  and  C_7
REMARK    4  A    between atoms: C_7  and  C_8
REMARK    5  A    between atoms: C_11  and  N_12
REMARK    6  A    between atoms: N_12  and  C_13
REMARK                            x       y       z     vdW  Elec       q    Type
REMARK                         _______ _______ _______ _____ _____    ______ ____
ROOT
ATOM      8  C   UNL     1       4.018  -3.422   0.000  0.00  0.00    +0.169 C 
ATOM      9  O   UNL     1       4.104  -2.602   0.000  0.00  0.00    -0.350 OA
ATOM     10  C   UNL     1       4.911  -2.430   0.000  0.00  0.00    +0.162 C 
ATOM     11  C   UNL     1       5.323  -3.145   0.000  0.00  0.00    +0.135 C 
ATOM     17  C   UNL     1       4.771  -3.758   0.000  0.00  0.00    +0.199 C 
ATOM     18  O   UNL     1       4.943  -4.565   0.000  0.00  0.00    -0.219 OA
ENDROOT
BRANCH   8   7
ATOM      7  C   UNL     1       3.303  -3.835   0.000  0.00  0.00    +0.147 C 
BRANCH   7   6
ATOM      4  C   UNL     1       1.874  -3.835   0.000  0.00  0.00    +0.272 C 
ATOM      5  O   UNL     1       1.874  -4.660   0.000  0.00  0.00    -0.271 OA
ATOM      6  N   UNL     1       2.589  -3.422   0.000  0.00  0.00    -0.201 NA
BRANCH   4   3
ATOM      3  C   UNL     1       1.160  -3.422   0.000  0.00  0.00    +0.229 C 
BRANCH   3   2
ATOM      1  C   UNL     1      -0.269  -3.422   0.000  0.00  0.00    +0.175 C 
ATOM      2  O   UNL     1       0.445  -3.835   0.000  0.00  0.00    -0.342 OA
ENDBRANCH   3   2
ENDBRANCH   4   3
ENDBRANCH   7   6
ENDBRANCH   8   7
BRANCH  11  12
ATOM     12  N   UNL     1       6.144  -3.231   0.000  0.00  0.00    -0.211 NA
BRANCH  12  13
ATOM     13  C   UNL     1       6.479  -3.985   0.000  0.00  0.00    +0.132 C 
ATOM     14  C   UNL     1       7.250  -4.280   0.000  0.00  0.00    +0.162 C 
ATOM     15  O   UNL     1       6.954  -5.051   0.000  0.00  0.00    -0.351 OA
ATOM     16  C   UNL     1       6.184  -4.755   0.000  0.00  0.00    +0.162 C 
ENDBRANCH  12  13
ENDBRANCH  11  12
TORSDOF 6
