MODEL 1
REMARK VINA RESULT:     -12.0      0.000      0.000
REMARK  Name = 
REMARK  8 active torsions:
REMARK  status: ('A' for Active; 'I' for Inactive)
REMARK    1  A    between atoms: O_2  and  C_3
REMARK    2  A    between atoms: C_8  and  O_9
REMARK    3  A    between atoms: C_11  and  C_12
REMARK    4  A    between atoms: C_12  and  C_13
REMARK    5  A    between atoms: N_15  and  S_23
REMARK    6  A    between atoms: C_18  and  C_19
REMARK    7  A    between atoms: C_19  and  C_20
REMARK    8  A    between atoms: S_23  and  C_26
REMARK                            x       y       z     vdW  Elec       q    Type
REMARK                         _______ _______ _______ _____ _____    ______ ____
ROOT
ATOM     13  C   UNL     1      -3.748   1.775  24.906  0.00  0.00    +0.024 C 
ATOM     14  C   UNL     1      -3.621   0.969  24.787  0.00  0.00    +0.096 C 
ATOM     15  N   UNL     1      -4.235   0.432  24.911  0.00  0.00    -0.156 NA
ATOM     16  C   UNL     1      -4.976   0.702  25.155  0.00  0.00    +0.096 C 
ATOM     17  C   UNL     1      -5.102   1.507  25.274  0.00  0.00    +0.020 C 
ATOM     18  C   UNL     1      -4.489   2.044  25.150  0.00  0.00    +0.014 C 
ENDROOT
BRANCH  15  23
ATOM     23  S   UNL     1      -4.109  -0.375  24.792  0.00  0.00    +0.063 S 
ATOM     24  O   UNL     1      -4.459  -0.320  24.047  0.00  0.00    -0.153 OA
ATOM     25  O   UNL     1      -3.758  -0.430  25.537  0.00  0.00    -0.153 OA
BRANCH  23  26
ATOM     26  C   UNL     1      -3.982  -1.181  24.673  0.00  0.00    +0.122 A 
ATOM     27  C   UNL     1      -4.276  -1.549  23.995  0.00  0.00    +0.021 A 
ATOM     28  C   UNL     1      -4.149  -2.355  23.875  0.00  0.00    +0.013 A 
ATOM     29  C   UNL     1      -3.729  -2.794  24.434  0.00  0.00    +0.058 A 
ATOM     30 CL   UNL     1      -3.602  -3.601  24.315  0.00  0.00    -0.082 Cl
ATOM     31  C   UNL     1      -3.435  -2.426  25.111  0.00  0.00    +0.013 A 
ATOM     32  C   UNL     1      -3.562  -1.619  25.231  0.00  0.00    +0.021 A 
ENDBRANCH  23  26
ENDBRANCH  15  23
BRANCH  13  12
ATOM     12  C   UNL     1      -3.134   2.312  24.782  0.00  0.00    +0.047 C 
BRANCH  12  11
ATOM      3  C   UNL     1      -0.192   2.070  24.411  0.00  0.00    +0.172 A 
ATOM      4  C   UNL     1      -0.521   2.048  23.654  0.00  0.00    +0.036 A 
ATOM      5  C   UNL     1      -1.339   2.103  23.557  0.00  0.00    -0.016 A 
ATOM      6  C   UNL     1      -1.828   2.180  24.218  0.00  0.00    +0.012 A 
ATOM      7  C   UNL     1      -1.499   2.202  24.974  0.00  0.00    +0.041 A 
ATOM      8  C   UNL     1      -0.681   2.147  25.071  0.00  0.00    +0.172 A 
ATOM     11  C   UNL     1      -2.645   2.235  24.122  0.00  0.00    +0.053 C 
ATOM     33  N   UNL     1      -2.974   2.213  23.366  0.00  0.00    -0.274 NA
ATOM     34  C   UNL     1      -2.484   2.137  22.705  0.00  0.00    +0.130 C 
ATOM     35  C   UNL     1      -1.667   2.082  22.801  0.00  0.00    +0.053 C 
BRANCH   3   2
ATOM      1  C   UNL     1       1.080   1.614  23.949  0.00  0.00    +0.253 C 
ATOM      2  O   UNL     1       0.625   2.015  24.507  0.00  0.00    -0.468 OA
ENDBRANCH   3   2
BRANCH   8   9
ATOM      9  O   UNL     1      -0.353   2.169  25.827  0.00  0.00    -0.468 OA
ATOM     10  C   UNL     1      -0.575   2.760  26.357  0.00  0.00    +0.253 C 
ENDBRANCH   8   9
ENDBRANCH  12  11
ENDBRANCH  13  12
BRANCH  18  19
ATOM     19  C   UNL     1      -4.615   2.851  25.269  0.00  0.00    +0.114 C 
BRANCH  19  20
ATOM     20  C   UNL     1      -5.291   3.108  25.666  0.00  0.00    +0.365 C 
ATOM     21  O   UNL     1      -5.970   3.306  25.241  0.00  0.00    -0.246 OA
ATOM     22  O   UNL     1      -5.288   3.166  26.490  0.00  0.00    -0.246 OA
ENDBRANCH  19  20
ENDBRANCH  18  19
TORSDOF 8
ENDMDL
MODEL 2
REMARK VINA RESULT:     -11.2      1.300      3.519
REMARK  Name = 
REMARK  8 active torsions:
REMARK  status: ('A' for Active; 'I' for Inactive)
REMARK    1  A    between atoms: O_2  and  C_3
REMARK    2  A    between atoms: C_8  and  O_9
REMARK    3  A    between atoms: C_11  and  C_12
REMARK    4  A    between atoms: C_12  and  C_13
REMARK    5  A    between atoms: N_15  and  S_23
REMARK    6  A    between atoms: C_18  and  C_19
REMARK    7  A    between atoms: C_19  and  C_20
REMARK    8  A    between atoms: S_23  and  C_26
REMARK                            x       y       z     vdW  Elec       q    Type
REMARK                         _______ _______ _______ _____ _____    ______ ____
ROOT
ATOM     13  C   UNL     1      -1.524   1.551  24.552  0.00  0.00    +0.024 C 
ATOM     14  C   UNL     1      -1.984   0.867  24.566  0.00  0.00    +0.096 C 
ATOM     15  N   UNL     1      -1.623   0.125  24.552  0.00  0.00    -0.156 NA
ATOM     16  C   UNL     1      -0.800   0.068  24.525  0.00  0.00    +0.096 C 
ATOM     17  C   UNL     1      -0.340   0.751  24.512  0.00  0.00    +0.020 C 
ATOM     18  C   UNL     1      -0.700   1.493  24.525  0.00  0.00    +0.014 C 
ENDROOT
BRANCH  15  23
ATOM     23  S   UNL     1      -2.084  -0.559  24.566  0.00  0.00    +0.063 S 
ATOM     24  O   UNL     1      -2.315  -0.387  25.339  0.00  0.00    -0.153 OA
ATOM     25  O   UNL     1      -1.853  -0.730  23.793  0.00  0.00    -0.153 OA
BRANCH  23  26
ATOM     26  C   UNL     1      -2.545  -1.243  24.580  0.00  0.00    +0.122 A 
ATOM     27  C   UNL     1      -3.364  -1.189  24.495  0.00  0.00    +0.021 A 
ATOM     28  C   UNL     1      -3.825  -1.873  24.509  0.00  0.00    +0.013 A 
ATOM     29  C   UNL     1      -3.468  -2.610  24.608  0.00  0.00    +0.058 A 
ATOM     30 CL   UNL     1      -3.929  -3.294  24.622  0.00  0.00    -0.082 Cl
ATOM     31  C   UNL     1      -2.649  -2.663  24.692  0.00  0.00    +0.013 A 
ATOM     32  C   UNL     1      -2.188  -1.979  24.679  0.00  0.00    +0.021 A 
ENDBRANCH  23  26
ENDBRANCH  15  23
BRANCH  13  12
ATOM     12  C   UNL     1      -1.884   2.292  24.565  0.00  0.00    +0.047 C 
BRANCH  12  11
ATOM      3  C   UNL     1      -4.475   3.638  25.140  0.00  0.00    +0.172 A 
ATOM      4  C   UNL     1      -4.524   3.368  24.361  0.00  0.00    +0.036 A 
ATOM      5  C   UNL     1      -3.889   2.964  24.023  0.00  0.00    -0.016 A 
ATOM      6  C   UNL     1      -3.204   2.830  24.463  0.00  0.00    +0.012 A 
ATOM      7  C   UNL     1      -3.155   3.100  25.241  0.00  0.00    +0.041 A 
ATOM      8  C   UNL     1      -3.790   3.503  25.580  0.00  0.00    +0.172 A 
ATOM     11  C   UNL     1      -2.569   2.426  24.125  0.00  0.00    +0.053 C 
ATOM     33  N   UNL     1      -2.619   2.157  23.347  0.00  0.00    -0.274 NA
ATOM     34  C   UNL     1      -3.304   2.291  22.907  0.00  0.00    +0.130 C 
ATOM     35  C   UNL     1      -3.939   2.695  23.245  0.00  0.00    +0.053 C 
BRANCH   3   2
ATOM      1  C   UNL     1      -5.870   3.727  25.431  0.00  0.00    +0.253 C 
ATOM      2  O   UNL     1      -5.110   4.041  25.478  0.00  0.00    -0.468 OA
ENDBRANCH   3   2
BRANCH   8   9
ATOM      9  O   UNL     1      -3.740   3.773  26.358  0.00  0.00    -0.468 OA
ATOM     10  C   UNL     1      -3.056   4.150  26.621  0.00  0.00    +0.253 C 
ENDBRANCH   8   9
ENDBRANCH  12  11
ENDBRANCH  13  12
BRANCH  18  19
ATOM     19  C   UNL     1      -0.239   2.177  24.511  0.00  0.00    +0.114 C 
BRANCH  19  20
ATOM     20  C   UNL     1       0.556   2.142  24.727  0.00  0.00    +0.365 C 
ATOM     21  O   UNL     1       1.135   2.017  24.152  0.00  0.00    -0.246 OA
ATOM     22  O   UNL     1       0.773   2.233  25.519  0.00  0.00    -0.246 OA
ENDBRANCH  19  20
ENDBRANCH  18  19
TORSDOF 8
ENDMDL
MODEL 3
REMARK VINA RESULT:     -10.1      2.407      4.414
REMARK  Name = 
REMARK  8 active torsions:
REMARK  status: ('A' for Active; 'I' for Inactive)
REMARK    1  A    between atoms: O_2  and  C_3
REMARK    2  A    between atoms: C_8  and  O_9
REMARK    3  A    between atoms: C_11  and  C_12
REMARK    4  A    between atoms: C_12  and  C_13
REMARK    5  A    between atoms: N_15  and  S_23
REMARK    6  A    between atoms: C_18  and  C_19
REMARK    7  A    between atoms: C_19  and  C_20
REMARK    8  A    between atoms: S_23  and  C_26
REMARK                            x       y       z     vdW  Elec       q    Type
REMARK                         _______ _______ _______ _____ _____    ______ ____
ROOT
ATOM     13  C   UNL     1      -4.312   1.691  25.192  0.00  0.00    +0.024 C 
ATOM     14  C   UNL     1      -3.628   2.147  25.136  0.00  0.00    +0.096 C 
ATOM     15  N   UNL     1      -3.677   2.971  25.169  0.00  0.00    -0.156 NA
ATOM     16  C   UNL     1      -4.412   3.336  25.259  0.00  0.00    +0.096 C 
ATOM     17  C   UNL     1      -5.095   2.879  25.315  0.00  0.00    +0.020 C 
ATOM     18  C   UNL     1      -5.046   2.057  25.282  0.00  0.00    +0.014 C 
ENDROOT
BRANCH  15  23
ATOM     23  S   UNL     1      -2.993   3.428  25.113  0.00  0.00    +0.063 S 
ATOM     24  O   UNL     1      -2.765   3.179  25.866  0.00  0.00    -0.153 OA
ATOM     25  O   UNL     1      -3.221   3.677  24.360  0.00  0.00    -0.153 OA
BRANCH  23  26
ATOM     26  C   UNL     1      -2.308   3.885  25.057  0.00  0.00    +0.122 A 
ATOM     27  C   UNL     1      -2.329   4.684  25.261  0.00  0.00    +0.021 A 
ATOM     28  C   UNL     1      -1.644   5.141  25.205  0.00  0.00    +0.013 A 
ATOM     29  C   UNL     1      -0.939   4.799  24.944  0.00  0.00    +0.058 A 
ATOM     30 CL   UNL     1      -0.255   5.256  24.888  0.00  0.00    -0.082 Cl
ATOM     31  C   UNL     1      -0.920   4.000  24.740  0.00  0.00    +0.013 A 
ATOM     32  C   UNL     1      -1.605   3.543  24.796  0.00  0.00    +0.021 A 
ENDBRANCH  23  26
ENDBRANCH  15  23
BRANCH  13  12
ATOM     12  C   UNL     1      -4.263   0.868  25.159  0.00  0.00    +0.047 C 
BRANCH  12  11
ATOM      3  C   UNL     1      -2.963  -1.781  24.781  0.00  0.00    +0.172 A 
ATOM      4  C   UNL     1      -2.892  -1.386  24.060  0.00  0.00    +0.036 A 
ATOM      5  C   UNL     1      -3.200  -0.625  23.974  0.00  0.00    -0.016 A 
ATOM      6  C   UNL     1      -3.578  -0.258  24.610  0.00  0.00    +0.012 A 
ATOM      7  C   UNL     1      -3.648  -0.654  25.331  0.00  0.00    +0.041 A 
ATOM      8  C   UNL     1      -3.341  -1.415  25.417  0.00  0.00    +0.172 A 
ATOM     11  C   UNL     1      -3.885   0.502  24.524  0.00  0.00    +0.053 C 
ATOM     33  N   UNL     1      -3.815   0.896  23.804  0.00  0.00    -0.274 NA
ATOM     34  C   UNL     1      -3.436   0.530  23.167  0.00  0.00    +0.130 C 
ATOM     35  C   UNL     1      -3.129  -0.231  23.253  0.00  0.00    +0.053 C 
BRANCH   3   2
ATOM      1  C   UNL     1      -2.282  -2.910  24.231  0.00  0.00    +0.253 C 
ATOM      2  O   UNL     1      -2.656  -2.541  24.867  0.00  0.00    -0.468 OA
ENDBRANCH   3   2
BRANCH   8   9
ATOM      9  O   UNL     1      -3.411  -1.809  26.138  0.00  0.00    -0.468 OA
ATOM     10  C   UNL     1      -3.180  -1.437  26.836  0.00  0.00    +0.253 C 
ENDBRANCH   8   9
ENDBRANCH  12  11
ENDBRANCH  13  12
BRANCH  18  19
ATOM     19  C   UNL     1      -5.731   1.600  25.338  0.00  0.00    +0.114 C 
BRANCH  19  20
ATOM     20  C   UNL     1      -6.440   1.947  25.574  0.00  0.00    +0.365 C 
ATOM     21  O   UNL     1      -6.993   2.182  25.008  0.00  0.00    -0.246 OA
ATOM     22  O   UNL     1      -6.598   2.061  26.376  0.00  0.00    -0.246 OA
ENDBRANCH  19  20
ENDBRANCH  18  19
TORSDOF 8
ENDMDL
MODEL 4
REMARK VINA RESULT:      -9.4      2.528      4.373
REMARK  Name = 
REMARK  8 active torsions:
REMARK  status: ('A' for Active; 'I' for Inactive)
REMARK    1  A    between atoms: O_2  and  C_3
REMARK    2  A    between atoms: C_8  and  O_9
REMARK    3  A    between atoms: C_11  and  C_12
REMARK    4  A    between atoms: C_12  and  C_13
REMARK    5  A    between atoms: N_15  and  S_23
REMARK    6  A    between atoms: C_18  and  C_19
REMARK    7  A    between atoms: C_19  and  C_20
REMARK    8  A    between atoms: S_23  and  C_26
REMARK                            x       y       z     vdW  Elec       q    Type
REMARK                         _______ _______ _______ _____ _____    ______ ____
ROOT
ATOM     13  C   UNL     1      -1.578   0.485  24.797  0.00  0.00    +0.024 C 
ATOM     14  C   UNL     1      -0.881   0.534  24.359  0.00  0.00    +0.096 C 
ATOM     15  N   UNL     1      -0.539  -0.150  24.049  0.00  0.00    -0.156 NA
ATOM     16  C   UNL     1      -0.895  -0.883  24.177  0.00  0.00    +0.096 C 
ATOM     17  C   UNL     1      -1.592  -0.932  24.615  0.00  0.00    +0.020 C 
ATOM     18  C   UNL     1      -1.934  -0.249  24.925  0.00  0.00    +0.014 C 
ENDROOT
BRANCH  15  23
ATOM     23  S   UNL     1       0.158  -0.101  23.611  0.00  0.00    +0.063 S 
ATOM     24  O   UNL     1      -0.203   0.432  23.095  0.00  0.00    -0.153 OA
ATOM     25  O   UNL     1       0.520  -0.634  24.127  0.00  0.00    -0.153 OA
BRANCH  23  26
ATOM     26  C   UNL     1       0.856  -0.052  23.173  0.00  0.00    +0.122 A 
ATOM     27  C   UNL     1       1.505   0.357  23.476  0.00  0.00    +0.021 A 
ATOM     28  C   UNL     1       2.202   0.406  23.038  0.00  0.00    +0.013 A 
ATOM     29  C   UNL     1       2.250   0.046  22.297  0.00  0.00    +0.058 A 
ATOM     30 CL   UNL     1       2.948   0.096  21.859  0.00  0.00    -0.082 Cl
ATOM     31  C   UNL     1       1.601  -0.362  21.994  0.00  0.00    +0.013 A 
ATOM     32  C   UNL     1       0.903  -0.411  22.432  0.00  0.00    +0.021 A 
ENDBRANCH  23  26
ENDBRANCH  15  23
BRANCH  13  12
ATOM     12  C   UNL     1      -1.920   1.169  25.107  0.00  0.00    +0.047 C 
BRANCH  12  11
ATOM      3  C   UNL     1      -1.980   4.143  25.158  0.00  0.00    +0.172 A 
ATOM      4  C   UNL     1      -1.327   3.919  25.611  0.00  0.00    +0.036 A 
ATOM      5  C   UNL     1      -1.149   3.119  25.712  0.00  0.00    -0.016 A 
ATOM      6  C   UNL     1      -1.623   2.543  25.359  0.00  0.00    +0.012 A 
ATOM      7  C   UNL     1      -2.276   2.767  24.906  0.00  0.00    +0.041 A 
ATOM      8  C   UNL     1      -2.454   3.567  24.805  0.00  0.00    +0.172 A 
ATOM     11  C   UNL     1      -1.445   1.744  25.459  0.00  0.00    +0.053 C 
ATOM     33  N   UNL     1      -0.794   1.521  25.912  0.00  0.00    -0.274 NA
ATOM     34  C   UNL     1      -0.319   2.097  26.265  0.00  0.00    +0.130 C 
ATOM     35  C   UNL     1      -0.497   2.896  26.165  0.00  0.00    +0.053 C 
BRANCH   3   2
ATOM      1  C   UNL     1      -1.556   5.505  25.081  0.00  0.00    +0.253 C 
ATOM      2  O   UNL     1      -2.158   4.942  25.058  0.00  0.00    -0.468 OA
ENDBRANCH   3   2
BRANCH   8   9
ATOM      9  O   UNL     1      -3.106   3.790  24.352  0.00  0.00    -0.468 OA
ATOM     10  C   UNL     1      -3.805   3.355  24.392  0.00  0.00    +0.253 C 
ENDBRANCH   8   9
ENDBRANCH  12  11
ENDBRANCH  13  12
BRANCH  18  19
ATOM     19  C   UNL     1      -2.631  -0.298  25.363  0.00  0.00    +0.114 C 
BRANCH  19  20
ATOM     20  C   UNL     1      -3.093  -0.980  25.328  0.00  0.00    +0.365 C 
ATOM     21  O   UNL     1      -3.001  -1.571  25.896  0.00  0.00    -0.246 OA
ATOM     22  O   UNL     1      -3.648  -1.072  24.723  0.00  0.00    -0.246 OA
ENDBRANCH  19  20
ENDBRANCH  18  19
TORSDOF 8
ENDMDL
MODEL 5
REMARK VINA RESULT:      -9.2      1.981      3.823
REMARK  Name = 
REMARK  8 active torsions:
REMARK  status: ('A' for Active; 'I' for Inactive)
REMARK    1  A    between atoms: O_2  and  C_3
REMARK    2  A    between atoms: C_8  and  O_9
REMARK    3  A    between atoms: C_11  and  C_12
REMARK    4  A    between atoms: C_12  and  C_13
REMARK    5  A    between atoms: N_15  and  S_23
REMARK    6  A    between atoms: C_18  and  C_19
REMARK    7  A    between atoms: C_19  and  C_20
REMARK    8  A    between atoms: S_23  and  C_26
REMARK                            x       y       z     vdW  Elec       q    Type
REMARK                         _______ _______ _______ _____ _____    ______ ____
ROOT
ATOM     13  C   UNL     1      -3.223  -0.526  24.400  0.00  0.00    +0.024 C 
ATOM     14  C   UNL     1      -3.529   0.211  24.604  0.00  0.00    +0.096 C 
ATOM     15  N   UNL     1      -4.342   0.307  24.708  0.00  0.00    -0.156 NA
ATOM     16  C   UNL     1      -4.848  -0.337  24.608  0.00  0.00    +0.096 C 
ATOM     17  C   UNL     1      -4.543  -1.074  24.404  0.00  0.00    +0.020 C 
ATOM     18  C   UNL     1      -3.730  -1.170  24.300  0.00  0.00    +0.014 C 
ENDROOT
BRANCH  15  23
ATOM     23  S   UNL     1      -4.648   1.045  24.912  0.00  0.00    +0.063 S 
ATOM     24  O   UNL     1      -4.532   1.307  24.138  0.00  0.00    -0.153 OA
ATOM     25  O   UNL     1      -4.765   0.783  25.685  0.00  0.00    -0.153 OA
BRANCH  23  26
ATOM     26  C   UNL     1      -4.954   1.784  25.116  0.00  0.00    +0.122 A 
ATOM     27  C   UNL     1      -4.473   2.453  25.083  0.00  0.00    +0.021 A 
ATOM     28  C   UNL     1      -4.779   3.191  25.287  0.00  0.00    +0.013 A 
ATOM     29  C   UNL     1      -5.567   3.261  25.524  0.00  0.00    +0.058 A 
ATOM     30 CL   UNL     1      -5.873   3.999  25.728  0.00  0.00    -0.082 Cl
ATOM     31  C   UNL     1      -6.047   2.591  25.557  0.00  0.00    +0.013 A 
ATOM     32  C   UNL     1      -5.741   1.853  25.352  0.00  0.00    +0.021 A 
ENDBRANCH  23  26
ENDBRANCH  15  23
BRANCH  13  12
ATOM     12  C   UNL     1      -2.410  -0.622  24.296  0.00  0.00    +0.047 C 
BRANCH  12  11
ATOM      3  C   UNL     1      -0.230   1.400  24.407  0.00  0.00    +0.172 A 
ATOM      4  C   UNL     1      -0.259   1.052  25.154  0.00  0.00    +0.036 A 
ATOM      5  C   UNL     1      -0.811   0.460  25.314  0.00  0.00    -0.016 A 
ATOM      6  C   UNL     1      -1.335   0.215  24.725  0.00  0.00    +0.012 A 
ATOM      7  C   UNL     1      -1.306   0.562  23.977  0.00  0.00    +0.041 A 
ATOM      8  C   UNL     1      -0.754   1.155  23.817  0.00  0.00    +0.172 A 
ATOM     11  C   UNL     1      -1.887  -0.377  24.884  0.00  0.00    +0.053 C 
ATOM     33  N   UNL     1      -1.915  -0.724  25.632  0.00  0.00    -0.274 NA
ATOM     34  C   UNL     1      -1.391  -0.479  26.221  0.00  0.00    +0.130 C 
ATOM     35  C   UNL     1      -0.840   0.113  26.062  0.00  0.00    +0.053 C 
BRANCH   3   2
ATOM      1  C   UNL     1       0.530   2.530  24.836  0.00  0.00    +0.253 C 
ATOM      2  O   UNL     1       0.321   1.992  24.247  0.00  0.00    -0.468 OA
ENDBRANCH   3   2
BRANCH   8   9
ATOM      9  O   UNL     1      -0.726   1.502  23.070  0.00  0.00    -0.468 OA
ATOM     10  C   UNL     1      -1.403   1.844  22.748  0.00  0.00    +0.253 C 
ENDBRANCH   8   9
ENDBRANCH  12  11
ENDBRANCH  13  12
BRANCH  18  19
ATOM     19  C   UNL     1      -3.424  -1.908  24.096  0.00  0.00    +0.114 C 
BRANCH  19  20
ATOM     20  C   UNL     1      -3.923  -2.562  24.047  0.00  0.00    +0.365 C 
ATOM     21  O   UNL     1      -4.423  -2.654  23.397  0.00  0.00    -0.246 OA
ATOM     22  O   UNL     1      -3.924  -3.127  24.650  0.00  0.00    -0.246 OA
ENDBRANCH  19  20
ENDBRANCH  18  19
TORSDOF 8
ENDMDL
MODEL 6
REMARK VINA RESULT:      -9.0      2.116      4.071
REMARK  Name = 
REMARK  8 active torsions:
REMARK  status: ('A' for Active; 'I' for Inactive)
REMARK    1  A    between atoms: O_2  and  C_3
REMARK    2  A    between atoms: C_8  and  O_9
REMARK    3  A    between atoms: C_11  and  C_12
REMARK    4  A    between atoms: C_12  and  C_13
REMARK    5  A    between atoms: N_15  and  S_23
REMARK    6  A    between atoms: C_18  and  C_19
REMARK    7  A    between atoms: C_19  and  C_20
REMARK    8  A    between atoms: S_23  and  C_26
REMARK                            x       y       z     vdW  Elec       q    Type
REMARK                         _______ _______ _______ _____ _____    ______ ____
ROOT
ATOM     13  C   UNL     1      -1.805   3.006  24.832  0.00  0.00    +0.024 C 
ATOM     14  C   UNL     1      -1.708   2.189  24.882  0.00  0.00    +0.096 C 
ATOM     15  N   UNL     1      -0.953   1.868  24.980  0.00  0.00    -0.156 NA
ATOM     16  C   UNL     1      -0.297   2.365  25.026  0.00  0.00    +0.096 C 
ATOM     17  C   UNL     1      -0.394   3.182  24.976  0.00  0.00    +0.020 C 
ATOM     18  C   UNL     1      -1.148   3.503  24.879  0.00  0.00    +0.014 C 
ENDROOT
BRANCH  15  23
ATOM     23  S   UNL     1      -0.856   1.050  25.030  0.00  0.00    +0.063 S 
ATOM     24  O   UNL     1      -0.580   1.035  24.253  0.00  0.00    -0.153 OA
ATOM     25  O   UNL     1      -1.132   1.065  25.807  0.00  0.00    -0.153 OA
BRANCH  23  26
ATOM     26  C   UNL     1      -0.759   0.232  25.080  0.00  0.00    +0.122 A 
ATOM     27  C   UNL     1      -1.067  -0.180  25.725  0.00  0.00    +0.021 A 
ATOM     28  C   UNL     1      -0.970  -0.998  25.776  0.00  0.00    +0.013 A 
ATOM     29  C   UNL     1      -0.565  -1.403  25.181  0.00  0.00    +0.058 A 
ATOM     30 CL   UNL     1      -0.468  -2.221  25.232  0.00  0.00    -0.082 Cl
ATOM     31  C   UNL     1      -0.257  -0.989  24.537  0.00  0.00    +0.013 A 
ATOM     32  C   UNL     1      -0.354  -0.172  24.487  0.00  0.00    +0.021 A 
ENDBRANCH  23  26
ENDBRANCH  15  23
BRANCH  13  12
ATOM     12  C   UNL     1      -2.558   3.327  24.734  0.00  0.00    +0.047 C 
BRANCH  12  11
ATOM      3  C   UNL     1      -5.406   2.542  25.088  0.00  0.00    +0.172 A 
ATOM      4  C   UNL     1      -5.193   2.296  24.329  0.00  0.00    +0.036 A 
ATOM      5  C   UNL     1      -4.428   2.431  24.051  0.00  0.00    -0.016 A 
ATOM      6  C   UNL     1      -3.875   2.812  24.532  0.00  0.00    +0.012 A 
ATOM      7  C   UNL     1      -4.088   3.057  25.290  0.00  0.00    +0.041 A 
ATOM      8  C   UNL     1      -4.853   2.923  25.569  0.00  0.00    +0.172 A 
ATOM     11  C   UNL     1      -3.111   2.946  24.254  0.00  0.00    +0.053 C 
ATOM     33  N   UNL     1      -2.898   2.701  23.496  0.00  0.00    -0.274 NA
ATOM     34  C   UNL     1      -3.451   2.320  23.015  0.00  0.00    +0.130 C 
ATOM     35  C   UNL     1      -4.215   2.185  23.293  0.00  0.00    +0.053 C 
BRANCH   3   2
ATOM      1  C   UNL     1      -6.608   1.771  25.078  0.00  0.00    +0.253 C 
ATOM      2  O   UNL     1      -6.171   2.407  25.365  0.00  0.00    -0.468 OA
ENDBRANCH   3   2
BRANCH   8   9
ATOM      9  O   UNL     1      -5.066   3.168  26.326  0.00  0.00    -0.468 OA
ATOM     10  C   UNL     1      -4.757   3.867  26.636  0.00  0.00    +0.253 C 
ENDBRANCH   8   9
ENDBRANCH  12  11
ENDBRANCH  13  12
BRANCH  18  19
ATOM     19  C   UNL     1      -1.245   4.321  24.828  0.00  0.00    +0.114 C 
BRANCH  19  20
ATOM     20  C   UNL     1      -0.592   4.806  24.692  0.00  0.00    +0.365 C 
ATOM     21  O   UNL     1      -0.256   5.231  25.314  0.00  0.00    -0.246 OA
ATOM     22  O   UNL     1      -0.274   4.867  23.932  0.00  0.00    -0.246 OA
ENDBRANCH  19  20
ENDBRANCH  18  19
TORSDOF 8
ENDMDL
MODEL 7
REMARK VINA RESULT:      -9.0      2.057      4.121
REMARK  Name = 
REMARK  8 active torsions:
REMARK  status: ('A' for Active; 'I' for Inactive)
REMARK    1  A    between atoms: O_2  and  C_3
REMARK    2  A    between atoms: C_8  and  O_9
REMARK    3  A    between atoms: C_11  and  C_12
REMARK    4  A    between atoms: C_12  and  C_13
REMARK    5  A    between atoms: N_15  and  S_23
REMARK    6  A    between atoms: C_18  and  C_19
REMARK    7  A    between atoms: C_19  and  C_20
REMARK    8  A    between atoms: S_23  and  C_26
REMARK                            x       y       z     vdW  Elec       q    Type
REMARK                         _______ _______ _______ _____ _____    ______ ____
ROOT
ATOM     13  C   UNL     1      -0.150   0.920  24.023  0.00  0.00    +0.024 C 
ATOM     14  C   UNL     1      -0.754   0.421  24.278  0.00  0.00    +0.096 C 
ATOM     15  N   UNL     1      -0.676  -0.397  24.200  0.00  0.00    -0.156 NA
ATOM     16  C   UNL     1       0.009  -0.715  23.866  0.00  0.00    +0.096 C 
ATOM     17  C   UNL     1       0.613  -0.216  23.611  0.00  0.00    +0.020 C 
ATOM     18  C   UNL     1       0.535   0.601  23.689  0.00  0.00    +0.014 C 
ENDROOT
BRANCH  15  23
ATOM     23  S   UNL     1      -1.281  -0.896  24.455  0.00  0.00    +0.063 S 
ATOM     24  O   UNL     1      -1.764  -0.623  23.844  0.00  0.00    -0.153 OA
ATOM     25  O   UNL     1      -0.798  -1.169  25.066  0.00  0.00    -0.153 OA
BRANCH  23  26
ATOM     26  C   UNL     1      -1.886  -1.395  24.710  0.00  0.00    +0.122 A 
ATOM     27  C   UNL     1      -1.929  -2.169  24.427  0.00  0.00    +0.021 A 
ATOM     28  C   UNL     1      -2.534  -2.668  24.682  0.00  0.00    +0.013 A 
ATOM     29  C   UNL     1      -3.097  -2.394  25.220  0.00  0.00    +0.058 A 
ATOM     30 CL   UNL     1      -3.702  -2.893  25.476  0.00  0.00    -0.082 Cl
ATOM     31  C   UNL     1      -3.053  -1.620  25.503  0.00  0.00    +0.013 A 
ATOM     32  C   UNL     1      -2.447  -1.121  25.248  0.00  0.00    +0.021 A 
ENDBRANCH  23  26
ENDBRANCH  15  23
BRANCH  13  12
ATOM     12  C   UNL     1      -0.228   1.737  24.101  0.00  0.00    +0.047 C 
BRANCH  12  11
ATOM      3  C   UNL     1      -2.286   3.563  25.233  0.00  0.00    +0.172 A 
ATOM      4  C   UNL     1      -1.761   3.400  25.849  0.00  0.00    +0.036 A 
ATOM      5  C   UNL     1      -1.115   2.903  25.720  0.00  0.00    -0.016 A 
ATOM      6  C   UNL     1      -0.994   2.568  24.975  0.00  0.00    +0.012 A 
ATOM      7  C   UNL     1      -1.519   2.732  24.359  0.00  0.00    +0.041 A 
ATOM      8  C   UNL     1      -2.165   3.229  24.488  0.00  0.00    +0.172 A 
ATOM     11  C   UNL     1      -0.349   2.071  24.846  0.00  0.00    +0.053 C 
ATOM     33  N   UNL     1       0.175   1.908  25.461  0.00  0.00    -0.274 NA
ATOM     34  C   UNL     1       0.054   2.243  26.206  0.00  0.00    +0.130 C 
ATOM     35  C   UNL     1      -0.591   2.740  26.335  0.00  0.00    +0.053 C 
BRANCH   3   2
ATOM      1  C   UNL     1      -3.123   4.297  26.128  0.00  0.00    +0.253 C 
ATOM      2  O   UNL     1      -2.931   4.060  25.362  0.00  0.00    -0.468 OA
ENDBRANCH   3   2
BRANCH   8   9
ATOM      9  O   UNL     1      -2.690   3.392  23.873  0.00  0.00    -0.468 OA
ATOM     10  C   UNL     1      -3.114   2.780  23.520  0.00  0.00    +0.253 C 
ENDBRANCH   8   9
ENDBRANCH  12  11
ENDBRANCH  13  12
BRANCH  18  19
ATOM     19  C   UNL     1       1.140   1.100  23.434  0.00  0.00    +0.114 C 
BRANCH  19  20
ATOM     20  C   UNL     1       1.820   0.782  23.094  0.00  0.00    +0.365 C 
ATOM     21  O   UNL     1       1.764   0.315  22.416  0.00  0.00    -0.246 OA
ATOM     22  O   UNL     1       2.559   0.931  23.432  0.00  0.00    -0.246 OA
ENDBRANCH  19  20
ENDBRANCH  18  19
TORSDOF 8
ENDMDL
MODEL 8
REMARK VINA RESULT:      -8.6      1.885      4.491
REMARK  Name = 
REMARK  8 active torsions:
REMARK  status: ('A' for Active; 'I' for Inactive)
REMARK    1  A    between atoms: O_2  and  C_3
REMARK    2  A    between atoms: C_8  and  O_9
REMARK    3  A    between atoms: C_11  and  C_12
REMARK    4  A    between atoms: C_12  and  C_13
REMARK    5  A    between atoms: N_15  and  S_23
REMARK    6  A    between atoms: C_18  and  C_19
REMARK    7  A    between atoms: C_19  and  C_20
REMARK    8  A    between atoms: S_23  and  C_26
REMARK                            x       y       z     vdW  Elec       q    Type
REMARK                         _______ _______ _______ _____ _____    ______ ____
ROOT
ATOM     13  C   UNL     1      -3.295   0.076  24.467  0.00  0.00    +0.024 C 
ATOM     14  C   UNL     1      -2.565   0.446  24.377  0.00  0.00    +0.096 C 
ATOM     15  N   UNL     1      -1.875  -0.006  24.334  0.00  0.00    -0.156 NA
ATOM     16  C   UNL     1      -1.918  -0.829  24.382  0.00  0.00    +0.096 C 
ATOM     17  C   UNL     1      -2.649  -1.199  24.472  0.00  0.00    +0.020 C 
ATOM     18  C   UNL     1      -3.338  -0.748  24.515  0.00  0.00    +0.014 C 
ENDROOT
BRANCH  15  23
ATOM     23  S   UNL     1      -1.144   0.364  24.244  0.00  0.00    +0.063 S 
ATOM     24  O   UNL     1      -1.139   0.161  23.445  0.00  0.00    -0.153 OA
ATOM     25  O   UNL     1      -1.148   0.567  25.044  0.00  0.00    -0.153 OA
BRANCH  23  26
ATOM     26  C   UNL     1      -0.412   0.735  24.154  0.00  0.00    +0.122 A 
ATOM     27  C   UNL     1      -0.252   1.434  24.561  0.00  0.00    +0.021 A 
ATOM     28  C   UNL     1       0.480   1.805  24.471  0.00  0.00    +0.013 A 
ATOM     29  C   UNL     1       1.051   1.476  23.974  0.00  0.00    +0.058 A 
ATOM     30 CL   UNL     1       1.783   1.847  23.884  0.00  0.00    -0.082 Cl
ATOM     31  C   UNL     1       0.889   0.777  23.567  0.00  0.00    +0.013 A 
ATOM     32  C   UNL     1       0.158   0.406  23.657  0.00  0.00    +0.021 A 
ENDBRANCH  23  26
ENDBRANCH  15  23
BRANCH  13  12
ATOM     12  C   UNL     1      -3.984   0.527  24.510  0.00  0.00    +0.047 C 
BRANCH  12  11
ATOM      3  C   UNL     1      -5.285   3.069  25.346  0.00  0.00    +0.172 A 
ATOM      4  C   UNL     1      -4.869   3.241  24.655  0.00  0.00    +0.036 A 
ATOM      5  C   UNL     1      -4.439   2.649  24.273  0.00  0.00    -0.016 A 
ATOM      6  C   UNL     1      -4.426   1.883  24.583  0.00  0.00    +0.012 A 
ATOM      7  C   UNL     1      -4.843   1.711  25.274  0.00  0.00    +0.041 A 
ATOM      8  C   UNL     1      -5.272   2.303  25.656  0.00  0.00    +0.172 A 
ATOM     11  C   UNL     1      -3.997   1.292  24.201  0.00  0.00    +0.053 C 
ATOM     33  N   UNL     1      -3.581   1.464  23.510  0.00  0.00    -0.274 NA
ATOM     34  C   UNL     1      -3.594   2.229  23.201  0.00  0.00    +0.130 C 
ATOM     35  C   UNL     1      -4.023   2.821  23.582  0.00  0.00    +0.053 C 
BRANCH   3   2
ATOM      1  C   UNL     1      -5.627   4.447  25.498  0.00  0.00    +0.253 C 
ATOM      2  O   UNL     1      -5.714   3.661  25.728  0.00  0.00    -0.468 OA
ENDBRANCH   3   2
BRANCH   8   9
ATOM      9  O   UNL     1      -5.688   2.131  26.347  0.00  0.00    -0.468 OA
ATOM     10  C   UNL     1      -6.238   1.517  26.355  0.00  0.00    +0.253 C 
ENDBRANCH   8   9
ENDBRANCH  12  11
ENDBRANCH  13  12
BRANCH  18  19
ATOM     19  C   UNL     1      -4.070  -1.118  24.605  0.00  0.00    +0.114 C 
BRANCH  19  20
ATOM     20  C   UNL     1      -4.142  -1.927  24.462  0.00  0.00    +0.365 C 
ATOM     21  O   UNL     1      -3.929  -2.470  25.045  0.00  0.00    -0.246 OA
ATOM     22  O   UNL     1      -4.429  -2.193  23.735  0.00  0.00    -0.246 OA
ENDBRANCH  19  20
ENDBRANCH  18  19
TORSDOF 8
ENDMDL
MODEL 9
REMARK VINA RESULT:      -8.5     15.643     18.533
REMARK  Name = 
REMARK  8 active torsions:
REMARK  status: ('A' for Active; 'I' for Inactive)
REMARK    1  A    between atoms: O_2  and  C_3
REMARK    2  A    between atoms: C_8  and  O_9
REMARK    3  A    between atoms: C_11  and  C_12
REMARK    4  A    between atoms: C_12  and  C_13
REMARK    5  A    between atoms: N_15  and  S_23
REMARK    6  A    between atoms: C_18  and  C_19
REMARK    7  A    between atoms: C_19  and  C_20
REMARK    8  A    between atoms: S_23  and  C_26
REMARK                            x       y       z     vdW  Elec       q    Type
REMARK                         _______ _______ _______ _____ _____    ______ ____
ROOT
ATOM     13  C   UNL     1      13.890   7.246  19.820  0.00  0.00    +0.024 C 
ATOM     14  C   UNL     1      13.346   7.531  19.271  0.00  0.00    +0.096 C 
ATOM     15  N   UNL     1      13.579   7.666  18.490  0.00  0.00    -0.156 NA
ATOM     16  C   UNL     1      14.357   7.514  18.261  0.00  0.00    +0.096 C 
ATOM     17  C   UNL     1      14.901   7.229  18.810  0.00  0.00    +0.020 C 
ATOM     18  C   UNL     1      14.669   7.094  19.590  0.00  0.00    +0.014 C 
ENDROOT
BRANCH  15  23
ATOM     23  S   UNL     1      13.034   7.951  17.940  0.00  0.00    +0.063 S 
ATOM     24  O   UNL     1      12.819   7.177  17.752  0.00  0.00    -0.153 OA
ATOM     25  O   UNL     1      13.250   8.725  18.129  0.00  0.00    -0.153 OA
BRANCH  23  26
ATOM     26  C   UNL     1      12.490   8.237  17.391  0.00  0.00    +0.122 A 
ATOM     27  C   UNL     1      11.683   8.221  17.563  0.00  0.00    +0.021 A 
ATOM     28  C   UNL     1      11.138   8.506  17.013  0.00  0.00    +0.013 A 
ATOM     29  C   UNL     1      11.400   8.808  16.291  0.00  0.00    +0.058 A 
ATOM     30 CL   UNL     1      10.856   9.094  15.741  0.00  0.00    -0.082 Cl
ATOM     31  C   UNL     1      12.207   8.824  16.120  0.00  0.00    +0.013 A 
ATOM     32  C   UNL     1      12.752   8.538  16.669  0.00  0.00    +0.021 A 
ENDBRANCH  23  26
ENDBRANCH  15  23
BRANCH  13  12
ATOM     12  C   UNL     1      13.658   7.111  20.600  0.00  0.00    +0.047 C 
BRANCH  12  11
ATOM      3  C   UNL     1      11.122   7.549  22.094  0.00  0.00    +0.172 A 
ATOM      4  C   UNL     1      11.574   8.230  22.203  0.00  0.00    +0.036 A 
ATOM      5  C   UNL     1      12.320   8.292  21.858  0.00  0.00    -0.016 A 
ATOM      6  C   UNL     1      12.616   7.671  21.401  0.00  0.00    +0.012 A 
ATOM      7  C   UNL     1      12.165   6.989  21.292  0.00  0.00    +0.041 A 
ATOM      8  C   UNL     1      11.418   6.927  21.637  0.00  0.00    +0.172 A 
ATOM     11  C   UNL     1      13.362   7.732  21.056  0.00  0.00    +0.053 C 
ATOM     33  N   UNL     1      13.813   8.413  21.166  0.00  0.00    -0.274 NA
ATOM     34  C   UNL     1      13.517   9.035  21.622  0.00  0.00    +0.130 C 
ATOM     35  C   UNL     1      12.771   8.974  21.968  0.00  0.00    +0.053 C 
BRANCH   3   2
ATOM      1  C   UNL     1       9.917   8.162  22.552  0.00  0.00    +0.253 C 
ATOM      2  O   UNL     1      10.376   7.487  22.439  0.00  0.00    -0.468 OA
ENDBRANCH   3   2
BRANCH   8   9
ATOM      9  O   UNL     1      10.967   6.246  21.527  0.00  0.00    -0.468 OA
ATOM     10  C   UNL     1      11.315   5.503  21.612  0.00  0.00    +0.253 C 
ENDBRANCH   8   9
ENDBRANCH  12  11
ENDBRANCH  13  12
BRANCH  18  19
ATOM     19  C   UNL     1      15.213   6.809  20.140  0.00  0.00    +0.114 C 
BRANCH  19  20
ATOM     20  C   UNL     1      15.956   6.552  19.889  0.00  0.00    +0.365 C 
ATOM     21  O   UNL     1      16.022   5.888  19.404  0.00  0.00    -0.246 OA
ATOM     22  O   UNL     1      16.634   6.960  20.125  0.00  0.00    -0.246 OA
ENDBRANCH  19  20
ENDBRANCH  18  19
TORSDOF 8
ENDMDL
