MODEL 1
REMARK VINA RESULT:     -11.2      0.000      0.000
REMARK  Name = 
REMARK  8 active torsions:
REMARK  status: ('A' for Active; 'I' for Inactive)
REMARK    1  A    between atoms: C_2  and  C_3
REMARK    2  A    between atoms: C_5  and  O_27
REMARK    3  A    between atoms: C_10  and  C_11
REMARK    4  A    between atoms: C_11  and  C_12
REMARK    5  A    between atoms: N_14  and  C_15
REMARK    6  A    between atoms: C_15  and  C_16
REMARK    7  A    between atoms: O_27  and  C_28
REMARK    8  A    between atoms: N_30  and  C_31
REMARK                            x       y       z     vdW  Elec       q    Type
REMARK                         _______ _______ _______ _____ _____    ______ ____
ROOT
ATOM      1  C   UNL     1      -3.317   0.676  24.404  0.00  0.00    +0.006 C 
ATOM      2  C   UNL     1      -2.507   0.547  24.319  0.00  0.00    +0.068 C 
ATOM      5  C   UNL     1      -2.551   1.337  24.088  0.00  0.00    +0.173 C 
ATOM      6  C   UNL     1      -1.866   1.739  23.862  0.00  0.00    +0.044 C 
ATOM      7  C   UNL     1      -1.139   1.351  23.867  0.00  0.00    +0.004 C 
ATOM      8  C   UNL     1      -1.095   0.560  24.097  0.00  0.00    +0.003 C 
ATOM      9  C   UNL     1      -0.412   0.962  23.872  0.00  0.00    +0.000 C 
ATOM     10  C   UNL     1      -0.368   0.171  24.103  0.00  0.00    +0.040 C 
ATOM     22  C   UNL     1      -0.324  -0.620  24.333  0.00  0.00    +0.152 C 
ATOM     23  O   UNL     1       0.403  -1.009  24.338  0.00  0.00    -0.223 OA
ATOM     24  C   UNL     1      -1.009  -1.022  24.559  0.00  0.00    +0.033 C 
ATOM     25  C   UNL     1      -1.736  -0.633  24.554  0.00  0.00    +0.003 C 
ATOM     26  C   UNL     1      -1.780   0.158  24.324  0.00  0.00    +0.006 C 
ENDROOT
BRANCH   2   3
ATOM      3  C   UNL     1      -2.745  -0.199  24.579  0.00  0.00    +0.185 C 
ATOM      4  O   UNL     1      -3.525  -0.323  24.819  0.00  0.00    -0.220 OA
ENDBRANCH   2   3
BRANCH  10  11
ATOM     11  C   UNL     1       0.316   0.573  23.877  0.00  0.00    +0.089 C 
BRANCH  11  12
ATOM     12  C   UNL     1       0.830   0.237  23.325  0.00  0.00    +0.242 C 
ATOM     13  O   UNL     1       0.538  -0.282  22.753  0.00  0.00    -0.273 OA
ATOM     14  N   UNL     1       1.633   0.419  23.345  0.00  0.00    -0.201 NA
BRANCH  14  15
ATOM     15  C   UNL     1       2.146   0.083  22.792  0.00  0.00    +0.141 C 
BRANCH  15  16
ATOM     16  C   UNL     1       2.958   0.220  22.847  0.00  0.00    -0.001 A 
ATOM     17  C   UNL     1       3.460  -0.379  23.110  0.00  0.00    -0.003 A 
ATOM     18  C   UNL     1       4.272  -0.242  23.165  0.00  0.00    -0.000 A 
ATOM     19  C   UNL     1       4.582   0.494  22.955  0.00  0.00    -0.000 A 
ATOM     20  C   UNL     1       4.079   1.092  22.692  0.00  0.00    -0.000 A 
ATOM     21  C   UNL     1       3.267   0.955  22.637  0.00  0.00    -0.003 A 
ENDBRANCH  15  16
ENDBRANCH  14  15
ENDBRANCH  11  12
ENDBRANCH  10  11
BRANCH   5  27
ATOM     27  O   UNL     1      -3.278   1.726  24.083  0.00  0.00    -0.437 OA
BRANCH  27  28
ATOM     28  C   UNL     1      -3.450   2.274  23.490  0.00  0.00    +0.421 C 
ATOM     29  O   UNL     1      -3.095   2.203  22.748  0.00  0.00    -0.225 OA
ATOM     30  N   UNL     1      -3.975   2.893  23.639  0.00  0.00    -0.170 NA
BRANCH  30  31
ATOM     31  C   UNL     1      -4.329   2.964  24.381  0.00  0.00    +0.099 C 
ATOM     32  C   UNL     1      -5.041   2.579  24.537  0.00  0.00    +0.022 C 
ATOM     33  C   UNL     1      -5.395   2.650  25.278  0.00  0.00    +0.002 C 
ATOM     34  C   UNL     1      -5.036   3.105  25.864  0.00  0.00    +0.000 C 
ATOM     35  C   UNL     1      -4.324   3.490  25.708  0.00  0.00    +0.002 C 
ATOM     36  C   UNL     1      -3.970   3.419  24.967  0.00  0.00    +0.022 C 
ENDBRANCH  30  31
ENDBRANCH  27  28
ENDBRANCH   5  27
TORSDOF 8
ENDMDL
MODEL 2
REMARK VINA RESULT:     -11.1      2.139      3.227
REMARK  Name = 
REMARK  8 active torsions:
REMARK  status: ('A' for Active; 'I' for Inactive)
REMARK    1  A    between atoms: C_2  and  C_3
REMARK    2  A    between atoms: C_5  and  O_27
REMARK    3  A    between atoms: C_10  and  C_11
REMARK    4  A    between atoms: C_11  and  C_12
REMARK    5  A    between atoms: N_14  and  C_15
REMARK    6  A    between atoms: C_15  and  C_16
REMARK    7  A    between atoms: O_27  and  C_28
REMARK    8  A    between atoms: N_30  and  C_31
REMARK                            x       y       z     vdW  Elec       q    Type
REMARK                         _______ _______ _______ _____ _____    ______ ____
ROOT
ATOM      1  C   UNL     1      -2.891   3.569  25.632  0.00  0.00    +0.006 C 
ATOM      2  C   UNL     1      -2.266   3.155  25.289  0.00  0.00    +0.068 C 
ATOM      5  C   UNL     1      -2.875   2.946  24.775  0.00  0.00    +0.173 C 
ATOM      6  C   UNL     1      -2.723   2.444  24.136  0.00  0.00    +0.044 C 
ATOM      7  C   UNL     1      -1.962   2.153  24.013  0.00  0.00    +0.004 C 
ATOM      8  C   UNL     1      -1.352   2.362  24.528  0.00  0.00    +0.003 C 
ATOM      9  C   UNL     1      -1.201   1.861  23.891  0.00  0.00    +0.000 C 
ATOM     10  C   UNL     1      -0.590   2.070  24.405  0.00  0.00    +0.040 C 
ATOM     22  C   UNL     1       0.020   2.279  24.919  0.00  0.00    +0.152 C 
ATOM     23  O   UNL     1       0.782   1.988  24.797  0.00  0.00    -0.223 OA
ATOM     24  C   UNL     1      -0.132   2.781  25.558  0.00  0.00    +0.033 C 
ATOM     25  C   UNL     1      -0.894   3.072  25.681  0.00  0.00    +0.003 C 
ATOM     26  C   UNL     1      -1.504   2.863  25.166  0.00  0.00    +0.006 C 
ENDROOT
BRANCH   2   3
ATOM      3  C   UNL     1      -1.873   3.508  25.923  0.00  0.00    +0.185 C 
ATOM      4  O   UNL     1      -2.294   3.967  26.465  0.00  0.00    -0.220 OA
ENDBRANCH   2   3
BRANCH  10  11
ATOM     11  C   UNL     1      -0.438   1.569  23.767  0.00  0.00    +0.089 C 
BRANCH  11  12
ATOM     12  C   UNL     1      -0.085   0.835  23.894  0.00  0.00    +0.242 C 
ATOM     13  O   UNL     1       0.736   0.759  23.848  0.00  0.00    -0.273 OA
ATOM     14  N   UNL     1      -0.550   0.177  24.067  0.00  0.00    -0.201 NA
BRANCH  14  15
ATOM     15  C   UNL     1      -0.196  -0.558  24.193  0.00  0.00    +0.141 C 
BRANCH  15  16
ATOM     16  C   UNL     1      -0.649  -1.193  24.462  0.00  0.00    -0.001 A 
ATOM     17  C   UNL     1      -0.579  -1.448  25.243  0.00  0.00    -0.003 A 
ATOM     18  C   UNL     1      -1.031  -2.083  25.512  0.00  0.00    -0.000 A 
ATOM     19  C   UNL     1      -1.554  -2.464  24.998  0.00  0.00    -0.000 A 
ATOM     20  C   UNL     1      -1.623  -2.208  24.217  0.00  0.00    -0.000 A 
ATOM     21  C   UNL     1      -1.171  -1.573  23.949  0.00  0.00    -0.003 A 
ENDBRANCH  15  16
ENDBRANCH  14  15
ENDBRANCH  11  12
ENDBRANCH  10  11
BRANCH   5  27
ATOM     27  O   UNL     1      -3.637   3.237  24.897  0.00  0.00    -0.437 OA
BRANCH  27  28
ATOM     28  C   UNL     1      -4.097   3.478  24.255  0.00  0.00    +0.421 C 
ATOM     29  O   UNL     1      -3.751   3.902  23.636  0.00  0.00    -0.225 OA
ATOM     30  N   UNL     1      -4.900   3.295  24.231  0.00  0.00    -0.170 NA
BRANCH  30  31
ATOM     31  C   UNL     1      -5.246   2.872  24.849  0.00  0.00    +0.099 C 
ATOM     32  C   UNL     1      -5.490   3.264  25.532  0.00  0.00    +0.022 C 
ATOM     33  C   UNL     1      -5.836   2.842  26.149  0.00  0.00    +0.002 C 
ATOM     34  C   UNL     1      -5.937   2.025  26.085  0.00  0.00    +0.000 C 
ATOM     35  C   UNL     1      -5.692   1.633  25.402  0.00  0.00    +0.002 C 
ATOM     36  C   UNL     1      -5.347   2.056  24.785  0.00  0.00    +0.022 C 
ENDBRANCH  30  31
ENDBRANCH  27  28
ENDBRANCH   5  27
TORSDOF 8
ENDMDL
MODEL 3
REMARK VINA RESULT:     -11.0      2.356      5.265
REMARK  Name = 
REMARK  8 active torsions:
REMARK  status: ('A' for Active; 'I' for Inactive)
REMARK    1  A    between atoms: C_2  and  C_3
REMARK    2  A    between atoms: C_5  and  O_27
REMARK    3  A    between atoms: C_10  and  C_11
REMARK    4  A    between atoms: C_11  and  C_12
REMARK    5  A    between atoms: N_14  and  C_15
REMARK    6  A    between atoms: C_15  and  C_16
REMARK    7  A    between atoms: O_27  and  C_28
REMARK    8  A    between atoms: N_30  and  C_31
REMARK                            x       y       z     vdW  Elec       q    Type
REMARK                         _______ _______ _______ _____ _____    ______ ____
ROOT
ATOM      1  C   UNL     1      -0.590  -0.799  23.990  0.00  0.00    +0.006 C 
ATOM      2  C   UNL     1      -0.530  -0.044  24.317  0.00  0.00    +0.068 C 
ATOM      5  C   UNL     1      -1.027  -0.401  24.870  0.00  0.00    +0.173 C 
ATOM      6  C   UNL     1      -1.299   0.030  25.520  0.00  0.00    +0.044 C 
ATOM      7  C   UNL     1      -1.074   0.817  25.615  0.00  0.00    +0.004 C 
ATOM      8  C   UNL     1      -0.577   1.174  25.063  0.00  0.00    +0.003 C 
ATOM      9  C   UNL     1      -0.849   1.604  25.711  0.00  0.00    +0.000 C 
ATOM     10  C   UNL     1      -0.351   1.962  25.158  0.00  0.00    +0.040 C 
ATOM     22  C   UNL     1       0.145   2.319  24.605  0.00  0.00    +0.152 C 
ATOM     23  O   UNL     1       0.371   3.107  24.700  0.00  0.00    -0.223 OA
ATOM     24  C   UNL     1       0.417   1.888  23.955  0.00  0.00    +0.033 C 
ATOM     25  C   UNL     1       0.192   1.100  23.860  0.00  0.00    +0.003 C 
ATOM     26  C   UNL     1      -0.305   0.743  24.413  0.00  0.00    +0.006 C 
ENDROOT
BRANCH   2   3
ATOM      3  C   UNL     1      -0.054   0.050  23.650  0.00  0.00    +0.185 C 
ATOM      4  O   UNL     1       0.105  -0.596  23.162  0.00  0.00    -0.220 OA
ENDBRANCH   2   3
BRANCH  10  11
ATOM     11  C   UNL     1      -0.623   2.393  25.807  0.00  0.00    +0.089 C 
BRANCH  11  12
ATOM     12  C   UNL     1      -1.028   3.102  25.692  0.00  0.00    +0.242 C 
ATOM     13  O   UNL     1      -0.606   3.807  25.600  0.00  0.00    -0.273 OA
ATOM     14  N   UNL     1      -1.851   3.109  25.668  0.00  0.00    -0.201 NA
BRANCH  14  15
ATOM     15  C   UNL     1      -2.256   3.819  25.552  0.00  0.00    +0.141 C 
BRANCH  15  16
ATOM     16  C   UNL     1      -3.069   3.813  25.416  0.00  0.00    -0.001 A 
ATOM     17  C   UNL     1      -3.358   3.797  24.644  0.00  0.00    -0.003 A 
ATOM     18  C   UNL     1      -4.172   3.791  24.508  0.00  0.00    -0.000 A 
ATOM     19  C   UNL     1      -4.697   3.802  25.145  0.00  0.00    -0.000 A 
ATOM     20  C   UNL     1      -4.407   3.818  25.917  0.00  0.00    -0.000 A 
ATOM     21  C   UNL     1      -3.593   3.824  26.053  0.00  0.00    -0.003 A 
ENDBRANCH  15  16
ENDBRANCH  14  15
ENDBRANCH  11  12
ENDBRANCH  10  11
BRANCH   5  27
ATOM     27  O   UNL     1      -1.253  -1.189  24.775  0.00  0.00    -0.437 OA
BRANCH  27  28
ATOM     28  C   UNL     1      -1.202  -1.714  25.409  0.00  0.00    +0.421 C 
ATOM     29  O   UNL     1      -0.543  -1.696  25.908  0.00  0.00    -0.225 OA
ATOM     30  N   UNL     1      -1.807  -2.257  25.546  0.00  0.00    -0.170 NA
BRANCH  30  31
ATOM     31  C   UNL     1      -2.465  -2.275  25.049  0.00  0.00    +0.099 C 
ATOM     32  C   UNL     1      -3.140  -1.842  25.241  0.00  0.00    +0.022 C 
ATOM     33  C   UNL     1      -3.797  -1.861  24.744  0.00  0.00    +0.002 C 
ATOM     34  C   UNL     1      -3.780  -2.312  24.054  0.00  0.00    +0.000 C 
ATOM     35  C   UNL     1      -3.105  -2.744  23.861  0.00  0.00    +0.002 C 
ATOM     36  C   UNL     1      -2.448  -2.726  24.358  0.00  0.00    +0.022 C 
ENDBRANCH  30  31
ENDBRANCH  27  28
ENDBRANCH   5  27
TORSDOF 8
ENDMDL
MODEL 4
REMARK VINA RESULT:     -10.6      2.185      6.060
REMARK  Name = 
REMARK  8 active torsions:
REMARK  status: ('A' for Active; 'I' for Inactive)
REMARK    1  A    between atoms: C_2  and  C_3
REMARK    2  A    between atoms: C_5  and  O_27
REMARK    3  A    between atoms: C_10  and  C_11
REMARK    4  A    between atoms: C_11  and  C_12
REMARK    5  A    between atoms: N_14  and  C_15
REMARK    6  A    between atoms: C_15  and  C_16
REMARK    7  A    between atoms: O_27  and  C_28
REMARK    8  A    between atoms: N_30  and  C_31
REMARK                            x       y       z     vdW  Elec       q    Type
REMARK                         _______ _______ _______ _____ _____    ______ ____
ROOT
ATOM      1  C   UNL     1      -0.219   1.336  25.399  0.00  0.00    +0.006 C 
ATOM      2  C   UNL     1      -0.789   1.898  25.201  0.00  0.00    +0.068 C 
ATOM      5  C   UNL     1      -0.953   1.323  24.634  0.00  0.00    +0.173 C 
ATOM      6  C   UNL     1      -1.562   1.442  24.089  0.00  0.00    +0.044 C 
ATOM      7  C   UNL     1      -2.006   2.136  24.113  0.00  0.00    +0.004 C 
ATOM      8  C   UNL     1      -1.842   2.711  24.680  0.00  0.00    +0.003 C 
ATOM      9  C   UNL     1      -2.450   2.830  24.137  0.00  0.00    +0.000 C 
ATOM     10  C   UNL     1      -2.286   3.407  24.705  0.00  0.00    +0.040 C 
ATOM     22  C   UNL     1      -2.122   3.982  25.272  0.00  0.00    +0.152 C 
ATOM     23  O   UNL     1      -2.566   4.677  25.296  0.00  0.00    -0.223 OA
ATOM     24  C   UNL     1      -1.513   3.863  25.816  0.00  0.00    +0.033 C 
ATOM     25  C   UNL     1      -1.069   3.168  25.793  0.00  0.00    +0.003 C 
ATOM     26  C   UNL     1      -1.233   2.592  25.225  0.00  0.00    +0.006 C 
ENDROOT
BRANCH   2   3
ATOM      3  C   UNL     1      -0.427   2.278  25.837  0.00  0.00    +0.185 C 
ATOM      4  O   UNL     1       0.151   1.885  26.278  0.00  0.00    -0.220 OA
ENDBRANCH   2   3
BRANCH  10  11
ATOM     11  C   UNL     1      -2.895   3.526  24.160  0.00  0.00    +0.089 C 
BRANCH  11  12
ATOM     12  C   UNL     1      -3.651   3.723  24.424  0.00  0.00    +0.242 C 
ATOM     13  O   UNL     1      -3.876   4.516  24.476  0.00  0.00    -0.273 OA
ATOM     14  N   UNL     1      -4.183   3.130  24.634  0.00  0.00    -0.201 NA
BRANCH  14  15
ATOM     15  C   UNL     1      -4.940   3.328  24.898  0.00  0.00    +0.141 C 
BRANCH  15  16
ATOM     16  C   UNL     1      -5.431   2.747  25.217  0.00  0.00    -0.001 A 
ATOM     17  C   UNL     1      -5.752   2.165  24.728  0.00  0.00    -0.003 A 
ATOM     18  C   UNL     1      -6.243   1.584  25.047  0.00  0.00    -0.000 A 
ATOM     19  C   UNL     1      -6.413   1.584  25.855  0.00  0.00    -0.000 A 
ATOM     20  C   UNL     1      -6.091   2.166  26.343  0.00  0.00    -0.000 A 
ATOM     21  C   UNL     1      -5.600   2.747  26.024  0.00  0.00    -0.003 A 
ENDBRANCH  15  16
ENDBRANCH  14  15
ENDBRANCH  11  12
ENDBRANCH  10  11
BRANCH   5  27
ATOM     27  O   UNL     1      -0.509   0.628  24.610  0.00  0.00    -0.437 OA
BRANCH  27  28
ATOM     28  C   UNL     1      -0.220   0.346  23.890  0.00  0.00    +0.421 C 
ATOM     29  O   UNL     1       0.092   0.873  23.336  0.00  0.00    -0.225 OA
ATOM     30  N   UNL     1      -0.243  -0.461  23.723  0.00  0.00    -0.170 NA
BRANCH  30  31
ATOM     31  C   UNL     1      -0.554  -0.988  24.277  0.00  0.00    +0.099 C 
ATOM     32  C   UNL     1      -0.082  -1.264  24.895  0.00  0.00    +0.022 C 
ATOM     33  C   UNL     1      -0.393  -1.790  25.447  0.00  0.00    +0.002 C 
ATOM     34  C   UNL     1      -1.177  -2.041  25.384  0.00  0.00    +0.000 C 
ATOM     35  C   UNL     1      -1.648  -1.765  24.766  0.00  0.00    +0.002 C 
ATOM     36  C   UNL     1      -1.337  -1.239  24.213  0.00  0.00    +0.022 C 
ENDBRANCH  30  31
ENDBRANCH  27  28
ENDBRANCH   5  27
TORSDOF 8
ENDMDL
MODEL 5
REMARK VINA RESULT:     -10.5      3.421      5.339
REMARK  Name = 
REMARK  8 active torsions:
REMARK  status: ('A' for Active; 'I' for Inactive)
REMARK    1  A    between atoms: C_2  and  C_3
REMARK    2  A    between atoms: C_5  and  O_27
REMARK    3  A    between atoms: C_10  and  C_11
REMARK    4  A    between atoms: C_11  and  C_12
REMARK    5  A    between atoms: N_14  and  C_15
REMARK    6  A    between atoms: C_15  and  C_16
REMARK    7  A    between atoms: O_27  and  C_28
REMARK    8  A    between atoms: N_30  and  C_31
REMARK                            x       y       z     vdW  Elec       q    Type
REMARK                         _______ _______ _______ _____ _____    ______ ____
ROOT
ATOM      1  C   UNL     1      -3.033   3.990  25.808  0.00  0.00    +0.006 C 
ATOM      2  C   UNL     1      -3.472   3.360  25.508  0.00  0.00    +0.068 C 
ATOM      5  C   UNL     1      -2.714   3.124  25.288  0.00  0.00    +0.173 C 
ATOM      6  C   UNL     1      -2.604   2.414  24.880  0.00  0.00    +0.044 C 
ATOM      7  C   UNL     1      -3.254   1.942  24.694  0.00  0.00    +0.004 C 
ATOM      8  C   UNL     1      -4.012   2.178  24.914  0.00  0.00    +0.003 C 
ATOM      9  C   UNL     1      -3.903   1.470  24.507  0.00  0.00    +0.000 C 
ATOM     10  C   UNL     1      -4.663   1.706  24.727  0.00  0.00    +0.040 C 
ATOM     22  C   UNL     1      -5.421   1.942  24.947  0.00  0.00    +0.152 C 
ATOM     23  O   UNL     1      -6.072   1.470  24.760  0.00  0.00    -0.223 OA
ATOM     24  C   UNL     1      -5.531   2.652  25.355  0.00  0.00    +0.033 C 
ATOM     25  C   UNL     1      -4.881   3.124  25.542  0.00  0.00    +0.003 C 
ATOM     26  C   UNL     1      -4.122   2.888  25.322  0.00  0.00    +0.006 C 
ENDROOT
BRANCH   2   3
ATOM      3  C   UNL     1      -4.078   3.815  25.833  0.00  0.00    +0.185 C 
ATOM      4  O   UNL     1      -3.903   4.532  26.203  0.00  0.00    -0.220 OA
ENDBRANCH   2   3
BRANCH  10  11
ATOM     11  C   UNL     1      -4.554   0.997  24.319  0.00  0.00    +0.089 C 
BRANCH  11  12
ATOM     12  C   UNL     1      -4.671   0.277  24.704  0.00  0.00    +0.242 C 
ATOM     13  O   UNL     1      -5.177   0.235  25.355  0.00  0.00    -0.273 OA
ATOM     14  N   UNL     1      -4.283  -0.401  24.440  0.00  0.00    -0.201 NA
BRANCH  14  15
ATOM     15  C   UNL     1      -4.401  -1.121  24.826  0.00  0.00    +0.141 C 
BRANCH  15  16
ATOM     16  C   UNL     1      -3.927  -1.770  24.642  0.00  0.00    -0.001 A 
ATOM     17  C   UNL     1      -4.136  -2.271  24.020  0.00  0.00    -0.003 A 
ATOM     18  C   UNL     1      -3.662  -2.920  23.836  0.00  0.00    -0.000 A 
ATOM     19  C   UNL     1      -2.977  -3.068  24.273  0.00  0.00    -0.000 A 
ATOM     20  C   UNL     1      -2.768  -2.567  24.894  0.00  0.00    -0.000 A 
ATOM     21  C   UNL     1      -3.243  -1.918  25.078  0.00  0.00    -0.003 A 
ENDBRANCH  15  16
ENDBRANCH  14  15
ENDBRANCH  11  12
ENDBRANCH  10  11
BRANCH   5  27
ATOM     27  O   UNL     1      -2.063   3.596  25.475  0.00  0.00    -0.437 OA
BRANCH  27  28
ATOM     28  C   UNL     1      -1.367   3.250  25.753  0.00  0.00    +0.421 C 
ATOM     29  O   UNL     1      -1.404   2.609  26.272  0.00  0.00    -0.225 OA
ATOM     30  N   UNL     1      -0.636   3.544  25.512  0.00  0.00    -0.170 NA
BRANCH  30  31
ATOM     31  C   UNL     1      -0.599   4.185  24.994  0.00  0.00    +0.099 C 
ATOM     32  C   UNL     1      -0.746   4.948  25.269  0.00  0.00    +0.022 C 
ATOM     33  C   UNL     1      -0.709   5.588  24.751  0.00  0.00    +0.002 C 
ATOM     34  C   UNL     1      -0.526   5.466  23.956  0.00  0.00    +0.000 C 
ATOM     35  C   UNL     1      -0.379   4.702  23.681  0.00  0.00    +0.002 C 
ATOM     36  C   UNL     1      -0.416   4.063  24.199  0.00  0.00    +0.022 C 
ENDBRANCH  30  31
ENDBRANCH  27  28
ENDBRANCH   5  27
TORSDOF 8
ENDMDL
MODEL 6
REMARK VINA RESULT:     -10.3      2.388      4.346
REMARK  Name = 
REMARK  8 active torsions:
REMARK  status: ('A' for Active; 'I' for Inactive)
REMARK    1  A    between atoms: C_2  and  C_3
REMARK    2  A    between atoms: C_5  and  O_27
REMARK    3  A    between atoms: C_10  and  C_11
REMARK    4  A    between atoms: C_11  and  C_12
REMARK    5  A    between atoms: N_14  and  C_15
REMARK    6  A    between atoms: C_15  and  C_16
REMARK    7  A    between atoms: O_27  and  C_28
REMARK    8  A    between atoms: N_30  and  C_31
REMARK                            x       y       z     vdW  Elec       q    Type
REMARK                         _______ _______ _______ _____ _____    ______ ____
ROOT
ATOM      1  C   UNL     1      -0.484   2.558  24.475  0.00  0.00    +0.006 C 
ATOM      2  C   UNL     1      -0.499   1.741  24.585  0.00  0.00    +0.068 C 
ATOM      5  C   UNL     1      -0.948   1.980  25.233  0.00  0.00    +0.173 C 
ATOM      6  C   UNL     1      -1.255   1.416  25.753  0.00  0.00    +0.044 C 
ATOM      7  C   UNL     1      -1.112   0.615  25.623  0.00  0.00    +0.004 C 
ATOM      8  C   UNL     1      -0.662   0.376  24.975  0.00  0.00    +0.003 C 
ATOM      9  C   UNL     1      -0.968  -0.187  25.494  0.00  0.00    +0.000 C 
ATOM     10  C   UNL     1      -0.518  -0.426  24.845  0.00  0.00    +0.040 C 
ATOM     22  C   UNL     1      -0.069  -0.665  24.197  0.00  0.00    +0.152 C 
ATOM     23  O   UNL     1       0.075  -1.467  24.067  0.00  0.00    -0.223 OA
ATOM     24  C   UNL     1       0.238  -0.102  23.677  0.00  0.00    +0.033 C 
ATOM     25  C   UNL     1       0.095   0.700  23.806  0.00  0.00    +0.003 C 
ATOM     26  C   UNL     1      -0.355   0.939  24.455  0.00  0.00    +0.006 C 
ENDROOT
BRANCH   2   3
ATOM      3  C   UNL     1      -0.044   1.786  23.898  0.00  0.00    +0.185 C 
ATOM      4  O   UNL     1       0.145   2.522  23.576  0.00  0.00    -0.220 OA
ENDBRANCH   2   3
BRANCH  10  11
ATOM     11  C   UNL     1      -0.825  -0.989  25.364  0.00  0.00    +0.089 C 
BRANCH  11  12
ATOM     12  C   UNL     1      -1.188  -1.668  25.070  0.00  0.00    +0.242 C 
ATOM     13  O   UNL     1      -0.741  -2.349  24.931  0.00  0.00    -0.273 OA
ATOM     14  N   UNL     1      -1.997  -1.668  24.913  0.00  0.00    -0.201 NA
BRANCH  14  15
ATOM     15  C   UNL     1      -2.361  -2.348  24.618  0.00  0.00    +0.141 C 
BRANCH  15  16
ATOM     16  C   UNL     1      -3.138  -2.314  24.342  0.00  0.00    -0.001 A 
ATOM     17  C   UNL     1      -3.519  -1.585  24.272  0.00  0.00    -0.003 A 
ATOM     18  C   UNL     1      -4.295  -1.551  23.996  0.00  0.00    -0.000 A 
ATOM     19  C   UNL     1      -4.691  -2.246  23.790  0.00  0.00    -0.000 A 
ATOM     20  C   UNL     1      -4.310  -2.974  23.860  0.00  0.00    -0.000 A 
ATOM     21  C   UNL     1      -3.533  -3.008  24.136  0.00  0.00    -0.003 A 
ENDBRANCH  15  16
ENDBRANCH  14  15
ENDBRANCH  11  12
ENDBRANCH  10  11
BRANCH   5  27
ATOM     27  O   UNL     1      -1.092   2.782  25.363  0.00  0.00    -0.437 OA
BRANCH  27  28
ATOM     28  C   UNL     1      -1.069   3.088  26.129  0.00  0.00    +0.421 C 
ATOM     29  O   UNL     1      -0.510   2.806  26.669  0.00  0.00    -0.225 OA
ATOM     30  N   UNL     1      -1.602   3.674  26.356  0.00  0.00    -0.170 NA
BRANCH  30  31
ATOM     31  C   UNL     1      -2.160   3.955  25.818  0.00  0.00    +0.099 C 
ATOM     32  C   UNL     1      -1.961   4.562  25.296  0.00  0.00    +0.022 C 
ATOM     33  C   UNL     1      -2.518   4.843  24.758  0.00  0.00    +0.002 C 
ATOM     34  C   UNL     1      -3.276   4.518  24.740  0.00  0.00    +0.000 C 
ATOM     35  C   UNL     1      -3.475   3.911  25.262  0.00  0.00    +0.002 C 
ATOM     36  C   UNL     1      -2.918   3.630  25.800  0.00  0.00    +0.022 C 
ENDBRANCH  30  31
ENDBRANCH  27  28
ENDBRANCH   5  27
TORSDOF 8
ENDMDL
