MODEL 1
REMARK VINA RESULT:      -9.1      0.000      0.000
REMARK  Name = 
REMARK  8 active torsions:
REMARK  status: ('A' for Active; 'I' for Inactive)
REMARK    1  A    between atoms: O_2  and  C_3
REMARK    2  A    between atoms: C_3  and  C_4
REMARK    3  A    between atoms: C_4  and  O_5
REMARK    4  A    between atoms: O_5  and  C_6
REMARK    5  A    between atoms: C_8  and  C_12
REMARK    6  A    between atoms: C_15  and  C_17
REMARK    7  A    between atoms: N_21  and  C_22
REMARK    8  A    between atoms: C_22  and  C_23
REMARK                            x       y       z     vdW  Elec       q    Type
REMARK                         _______ _______ _______ _____ _____    ______ ____
ROOT
ATOM     12  C   UNL     1      -4.035   1.480  24.455  0.00  0.00    +0.221 A 
ATOM     13  N   UNL     1      -3.863   1.392  23.653  0.00  0.00    -0.054 NA
ATOM     14  O   UNL     1      -3.679   0.600  23.518  0.00  0.00    -0.336 OA
ATOM     15  C   UNL     1      -3.737   0.198  24.236  0.00  0.00    +0.251 A 
ATOM     16  N   UNL     1      -3.957   0.741  24.815  0.00  0.00    -0.188 NA
ENDROOT
BRANCH  12   8
ATOM      6  C   UNL     1      -3.878   3.386  25.507  0.00  0.00    +0.142 A 
ATOM      7  C   UNL     1      -3.666   2.684  25.130  0.00  0.00    +0.059 A 
ATOM      8  C   UNL     1      -4.248   2.182  24.831  0.00  0.00    +0.123 A 
ATOM      9  N   UNL     1      -5.045   2.385  24.908  0.00  0.00    -0.240 NA
ATOM     10  C   UNL     1      -5.258   3.087  25.285  0.00  0.00    +0.102 A 
ATOM     11  C   UNL     1      -4.674   3.588  25.583  0.00  0.00    +0.058 A 
BRANCH   6   5
ATOM      5  O   UNL     1      -3.295   3.887  25.805  0.00  0.00    -0.473 OA
BRANCH   5   4
ATOM      4  C   UNL     1      -2.750   4.237  25.294  0.00  0.00    +0.237 C 
BRANCH   4   3
ATOM      3  C   UNL     1      -2.057   4.569  25.592  0.00  0.00    +0.189 C 
BRANCH   3   2
ATOM      1  C   UNL     1      -0.872   5.044  24.951  0.00  0.00    +0.174 C 
ATOM      2  O   UNL     1      -1.661   5.153  25.165  0.00  0.00    -0.347 OA
ENDBRANCH   3   2
ENDBRANCH   4   3
ENDBRANCH   5   4
ENDBRANCH   6   5
ENDBRANCH  12   8
BRANCH  15  17
ATOM     17  C   UNL     1      -3.599  -0.608  24.353  0.00  0.00    +0.138 C 
ATOM     18  C   UNL     1      -4.141  -1.216  24.228  0.00  0.00    +0.027 C 
ATOM     19  C   UNL     1      -3.771  -1.929  24.414  0.00  0.00    +0.019 C 
ATOM     20  C   UNL     1      -3.000  -1.762  24.655  0.00  0.00    +0.073 C 
ATOM     21  N   UNL     1      -2.893  -0.945  24.617  0.00  0.00    -0.260 NA
BRANCH  21  22
ATOM     22  C   UNL     1      -2.203  -0.536  24.810  0.00  0.00    +0.139 C 
BRANCH  22  23
ATOM     23  C   UNL     1      -1.492  -0.946  24.896  0.00  0.00    +0.155 A 
ATOM     24  N   UNL     1      -0.943  -1.098  24.300  0.00  0.00    -0.226 NA
ATOM     25  C   UNL     1      -0.319  -1.522  24.630  0.00  0.00    +0.121 A 
ATOM     26  C   UNL     1      -0.480  -1.633  25.431  0.00  0.00    +0.121 A 
ATOM     27  N   UNL     1      -1.206  -1.277  25.596  0.00  0.00    -0.226 NA
ENDBRANCH  22  23
ENDBRANCH  21  22
ENDBRANCH  15  17
TORSDOF 8
ENDMDL
MODEL 2
REMARK VINA RESULT:      -9.0      2.004      5.662
REMARK  Name = 
REMARK  8 active torsions:
REMARK  status: ('A' for Active; 'I' for Inactive)
REMARK    1  A    between atoms: O_2  and  C_3
REMARK    2  A    between atoms: C_3  and  C_4
REMARK    3  A    between atoms: C_4  and  O_5
REMARK    4  A    between atoms: O_5  and  C_6
REMARK    5  A    between atoms: C_8  and  C_12
REMARK    6  A    between atoms: C_15  and  C_17
REMARK    7  A    between atoms: N_21  and  C_22
REMARK    8  A    between atoms: C_22  and  C_23
REMARK                            x       y       z     vdW  Elec       q    Type
REMARK                         _______ _______ _______ _____ _____    ______ ____
ROOT
ATOM     12  C   UNL     1      -0.515   1.627  25.078  0.00  0.00    +0.221 A 
ATOM     13  N   UNL     1      -0.289   1.806  25.851  0.00  0.00    -0.054 NA
ATOM     14  O   UNL     1      -0.549   2.569  26.022  0.00  0.00    -0.336 OA
ATOM     15  C   UNL     1      -0.935   2.863  25.355  0.00  0.00    +0.251 A 
ATOM     16  N   UNL     1      -0.914   2.281  24.771  0.00  0.00    -0.188 NA
ENDROOT
BRANCH  12   8
ATOM      6  C   UNL     1      -0.575  -0.489  24.542  0.00  0.00    +0.142 A 
ATOM      7  C   UNL     1      -0.722   0.219  24.939  0.00  0.00    +0.059 A 
ATOM      8  C   UNL     1      -0.368   0.918  24.682  0.00  0.00    +0.123 A 
ATOM      9  N   UNL     1       0.135   0.909  24.027  0.00  0.00    -0.240 NA
ATOM     10  C   UNL     1       0.282   0.201  23.630  0.00  0.00    +0.102 A 
ATOM     11  C   UNL     1      -0.073  -0.498  23.888  0.00  0.00    +0.058 A 
BRANCH   6   5
ATOM      5  O   UNL     1      -0.930  -1.187  24.801  0.00  0.00    -0.473 OA
BRANCH   5   4
ATOM      4  C   UNL     1      -1.595  -1.481  24.409  0.00  0.00    +0.237 C 
BRANCH   4   3
ATOM      3  C   UNL     1      -2.036  -2.091  24.746  0.00  0.00    +0.189 C 
BRANCH   3   2
ATOM      1  C   UNL     1      -3.344  -2.664  24.700  0.00  0.00    +0.174 C 
ATOM      2  O   UNL     1      -2.647  -2.443  24.318  0.00  0.00    -0.347 OA
ENDBRANCH   3   2
ENDBRANCH   4   3
ENDBRANCH   5   4
ENDBRANCH   6   5
ENDBRANCH  12   8
BRANCH  15  17
ATOM     17  C   UNL     1      -1.281   3.609  25.283  0.00  0.00    +0.138 C 
ATOM     18  C   UNL     1      -0.888   4.310  25.099  0.00  0.00    +0.027 C 
ATOM     19  C   UNL     1      -1.445   4.918  25.086  0.00  0.00    +0.019 C 
ATOM     20  C   UNL     1      -2.183   4.593  25.262  0.00  0.00    +0.073 C 
ATOM     21  N   UNL     1      -2.081   3.784  25.384  0.00  0.00    -0.260 NA
BRANCH  21  22
ATOM     22  C   UNL     1      -2.675   3.243  25.574  0.00  0.00    +0.139 C 
BRANCH  22  23
ATOM     23  C   UNL     1      -3.462   3.419  25.401  0.00  0.00    +0.155 A 
ATOM     24  N   UNL     1      -4.010   3.755  25.919  0.00  0.00    -0.226 NA
ATOM     25  C   UNL     1      -4.725   3.833  25.517  0.00  0.00    +0.121 A 
ATOM     26  C   UNL     1      -4.621   3.547  24.751  0.00  0.00    +0.121 A 
ATOM     27  N   UNL     1      -3.840   3.290  24.679  0.00  0.00    -0.226 NA
ENDBRANCH  22  23
ENDBRANCH  21  22
ENDBRANCH  15  17
TORSDOF 8
ENDMDL
MODEL 3
REMARK VINA RESULT:      -8.9      2.033      3.306
REMARK  Name = 
REMARK  8 active torsions:
REMARK  status: ('A' for Active; 'I' for Inactive)
REMARK    1  A    between atoms: O_2  and  C_3
REMARK    2  A    between atoms: C_3  and  C_4
REMARK    3  A    between atoms: C_4  and  O_5
REMARK    4  A    between atoms: O_5  and  C_6
REMARK    5  A    between atoms: C_8  and  C_12
REMARK    6  A    between atoms: C_15  and  C_17
REMARK    7  A    between atoms: N_21  and  C_22
REMARK    8  A    between atoms: C_22  and  C_23
REMARK                            x       y       z     vdW  Elec       q    Type
REMARK                         _______ _______ _______ _____ _____    ______ ____
ROOT
ATOM     12  C   UNL     1      -0.678   2.743  25.211  0.00  0.00    +0.221 A 
ATOM     13  N   UNL     1      -0.130   2.471  25.764  0.00  0.00    -0.054 NA
ATOM     14  O   UNL     1       0.195   1.770  25.476  0.00  0.00    -0.336 OA
ATOM     15  C   UNL     1      -0.153   1.608  24.746  0.00  0.00    +0.251 A 
ATOM     16  N   UNL     1      -0.692   2.209  24.581  0.00  0.00    -0.188 NA
ENDROOT
BRANCH  12   8
ATOM      6  C   UNL     1      -2.355   4.074  25.639  0.00  0.00    +0.142 A 
ATOM      7  C   UNL     1      -1.900   3.388  25.575  0.00  0.00    +0.059 A 
ATOM      8  C   UNL     1      -1.133   3.429  25.276  0.00  0.00    +0.123 A 
ATOM      9  N   UNL     1      -0.819   4.156  25.041  0.00  0.00    -0.240 NA
ATOM     10  C   UNL     1      -1.274   4.841  25.106  0.00  0.00    +0.102 A 
ATOM     11  C   UNL     1      -2.042   4.799  25.405  0.00  0.00    +0.058 A 
BRANCH   6   5
ATOM      5  O   UNL     1      -3.123   4.032  25.938  0.00  0.00    -0.473 OA
BRANCH   5   4
ATOM      4  C   UNL     1      -3.739   3.770  25.456  0.00  0.00    +0.237 C 
BRANCH   4   3
ATOM      3  C   UNL     1      -4.479   3.606  25.783  0.00  0.00    +0.189 C 
BRANCH   3   2
ATOM      1  C   UNL     1      -5.670   2.847  25.572  0.00  0.00    +0.174 C 
ATOM      2  O   UNL     1      -5.105   3.382  25.296  0.00  0.00    -0.347 OA
ENDBRANCH   3   2
ENDBRANCH   4   3
ENDBRANCH   5   4
ENDBRANCH   6   5
ENDBRANCH  12   8
BRANCH  15  17
ATOM     17  C   UNL     1       0.011   0.958  24.264  0.00  0.00    +0.138 C 
ATOM     18  C   UNL     1       0.507   0.956  23.605  0.00  0.00    +0.027 C 
ATOM     19  C   UNL     1       0.510   0.194  23.291  0.00  0.00    +0.019 C 
ATOM     20  C   UNL     1       0.016  -0.276  23.756  0.00  0.00    +0.073 C 
ATOM     21  N   UNL     1      -0.293   0.197  24.357  0.00  0.00    -0.260 NA
BRANCH  21  22
ATOM     22  C   UNL     1      -0.814  -0.048  24.948  0.00  0.00    +0.139 C 
BRANCH  22  23
ATOM     23  C   UNL     1      -1.160  -0.796  24.908  0.00  0.00    +0.155 A 
ATOM     24  N   UNL     1      -0.831  -1.500  25.183  0.00  0.00    -0.226 NA
ATOM     25  C   UNL     1      -1.365  -2.108  25.029  0.00  0.00    +0.121 A 
ATOM     26  C   UNL     1      -2.025  -1.782  24.658  0.00  0.00    +0.121 A 
ATOM     27  N   UNL     1      -1.899  -0.970  24.582  0.00  0.00    -0.226 NA
ENDBRANCH  22  23
ENDBRANCH  21  22
ENDBRANCH  15  17
TORSDOF 8
ENDMDL
MODEL 4
REMARK VINA RESULT:      -8.6      1.985      4.395
REMARK  Name = 
REMARK  8 active torsions:
REMARK  status: ('A' for Active; 'I' for Inactive)
REMARK    1  A    between atoms: O_2  and  C_3
REMARK    2  A    between atoms: C_3  and  C_4
REMARK    3  A    between atoms: C_4  and  O_5
REMARK    4  A    between atoms: O_5  and  C_6
REMARK    5  A    between atoms: C_8  and  C_12
REMARK    6  A    between atoms: C_15  and  C_17
REMARK    7  A    between atoms: N_21  and  C_22
REMARK    8  A    between atoms: C_22  and  C_23
REMARK                            x       y       z     vdW  Elec       q    Type
REMARK                         _______ _______ _______ _____ _____    ______ ____
ROOT
ATOM     12  C   UNL     1      -3.855   3.387  25.674  0.00  0.00    +0.221 A 
ATOM     13  N   UNL     1      -3.761   3.801  26.381  0.00  0.00    -0.054 NA
ATOM     14  O   UNL     1      -3.036   4.193  26.352  0.00  0.00    -0.336 OA
ATOM     15  C   UNL     1      -2.682   4.021  25.627  0.00  0.00    +0.251 A 
ATOM     16  N   UNL     1      -3.188   3.524  25.207  0.00  0.00    -0.188 NA
ENDROOT
BRANCH  12   8
ATOM      6  C   UNL     1      -5.034   1.728  24.884  0.00  0.00    +0.142 A 
ATOM      7  C   UNL     1      -4.386   2.196  25.090  0.00  0.00    +0.059 A 
ATOM      8  C   UNL     1      -4.503   2.919  25.468  0.00  0.00    +0.123 A 
ATOM      9  N   UNL     1      -5.269   3.175  25.641  0.00  0.00    -0.240 NA
ATOM     10  C   UNL     1      -5.916   2.707  25.435  0.00  0.00    +0.102 A 
ATOM     11  C   UNL     1      -5.798   1.983  25.057  0.00  0.00    +0.058 A 
BRANCH   6   5
ATOM      5  O   UNL     1      -4.915   1.004  24.505  0.00  0.00    -0.473 OA
BRANCH   5   4
ATOM      4  C   UNL     1      -4.568   0.377  24.914  0.00  0.00    +0.237 C 
BRANCH   4   3
ATOM      3  C   UNL     1      -4.393  -0.326  24.520  0.00  0.00    +0.189 C 
BRANCH   3   2
ATOM      1  C   UNL     1      -3.820  -1.635  24.527  0.00  0.00    +0.174 C 
ATOM      2  O   UNL     1      -4.068  -0.961  24.934  0.00  0.00    -0.347 OA
ENDBRANCH   3   2
ENDBRANCH   4   3
ENDBRANCH   5   4
ENDBRANCH   6   5
ENDBRANCH  12   8
BRANCH  15  17
ATOM     17  C   UNL     1      -1.950   4.300  25.367  0.00  0.00    +0.138 C 
ATOM     18  C   UNL     1      -1.784   5.068  25.117  0.00  0.00    +0.027 C 
ATOM     19  C   UNL     1      -0.987   5.101  24.907  0.00  0.00    +0.019 C 
ATOM     20  C   UNL     1      -0.660   4.353  25.027  0.00  0.00    +0.073 C 
ATOM     21  N   UNL     1      -1.255   3.858  25.311  0.00  0.00    -0.260 NA
BRANCH  21  22
ATOM     22  C   UNL     1      -1.171   3.060  25.506  0.00  0.00    +0.139 C 
BRANCH  22  23
ATOM     23  C   UNL     1      -0.565   2.615  25.167  0.00  0.00    +0.155 A 
ATOM     24  N   UNL     1       0.149   2.412  25.526  0.00  0.00    -0.226 NA
ATOM     25  C   UNL     1       0.587   1.967  24.989  0.00  0.00    +0.121 A 
ATOM     26  C   UNL     1       0.145   1.894  24.296  0.00  0.00    +0.121 A 
ATOM     27  N   UNL     1      -0.568   2.295  24.406  0.00  0.00    -0.226 NA
ENDBRANCH  22  23
ENDBRANCH  21  22
ENDBRANCH  15  17
TORSDOF 8
ENDMDL
MODEL 5
REMARK VINA RESULT:      -8.4      1.674      4.636
REMARK  Name = 
REMARK  8 active torsions:
REMARK  status: ('A' for Active; 'I' for Inactive)
REMARK    1  A    between atoms: O_2  and  C_3
REMARK    2  A    between atoms: C_3  and  C_4
REMARK    3  A    between atoms: C_4  and  O_5
REMARK    4  A    between atoms: O_5  and  C_6
REMARK    5  A    between atoms: C_8  and  C_12
REMARK    6  A    between atoms: C_15  and  C_17
REMARK    7  A    between atoms: N_21  and  C_22
REMARK    8  A    between atoms: C_22  and  C_23
REMARK                            x       y       z     vdW  Elec       q    Type
REMARK                         _______ _______ _______ _____ _____    ______ ____
ROOT
ATOM     12  C   UNL     1      -3.932  -0.051  24.653  0.00  0.00    +0.221 A 
ATOM     13  N   UNL     1      -4.275   0.181  23.939  0.00  0.00    -0.054 NA
ATOM     14  O   UNL     1      -4.632   0.915  24.055  0.00  0.00    -0.336 OA
ATOM     15  C   UNL     1      -4.511   1.137  24.840  0.00  0.00    +0.251 A 
ATOM     16  N   UNL     1      -4.078   0.541  25.210  0.00  0.00    -0.188 NA
ENDROOT
BRANCH  12   8
ATOM      6  C   UNL     1      -2.276  -1.440  24.956  0.00  0.00    +0.142 A 
ATOM      7  C   UNL     1      -2.692  -0.741  24.822  0.00  0.00    +0.059 A 
ATOM      8  C   UNL     1      -3.516  -0.750  24.787  0.00  0.00    +0.123 A 
ATOM      9  N   UNL     1      -3.924  -1.461  24.886  0.00  0.00    -0.240 NA
ATOM     10  C   UNL     1      -3.508  -2.161  25.019  0.00  0.00    +0.102 A 
ATOM     11  C   UNL     1      -2.684  -2.150  25.055  0.00  0.00    +0.058 A 
BRANCH   6   5
ATOM      5  O   UNL     1      -1.451  -1.429  24.991  0.00  0.00    -0.473 OA
BRANCH   5   4
ATOM      4  C   UNL     1      -1.014  -1.208  24.327  0.00  0.00    +0.237 C 
BRANCH   4   3
ATOM      3  C   UNL     1      -0.247  -0.918  24.416  0.00  0.00    +0.189 C 
BRANCH   3   2
ATOM      1  C   UNL     1       0.545  -0.162  23.499  0.00  0.00    +0.174 C 
ATOM      2  O   UNL     1       0.262  -0.889  23.767  0.00  0.00    -0.347 OA
ENDBRANCH   3   2
ENDBRANCH   4   3
ENDBRANCH   5   4
ENDBRANCH   6   5
ENDBRANCH  12   8
BRANCH  15  17
ATOM     17  C   UNL     1      -4.776   1.835  25.193  0.00  0.00    +0.138 C 
ATOM     18  C   UNL     1      -5.499   1.940  25.575  0.00  0.00    +0.027 C 
ATOM     19  C   UNL     1      -5.534   2.719  25.844  0.00  0.00    +0.019 C 
ATOM     20  C   UNL     1      -4.832   3.095  25.627  0.00  0.00    +0.073 C 
ATOM     21  N   UNL     1      -4.364   2.549  25.225  0.00  0.00    -0.260 NA
BRANCH  21  22
ATOM     22  C   UNL     1      -3.615   2.691  24.910  0.00  0.00    +0.139 C 
BRANCH  22  23
ATOM     23  C   UNL     1      -3.195   3.365  25.133  0.00  0.00    +0.155 A 
ATOM     24  N   UNL     1      -2.726   3.445  25.806  0.00  0.00    -0.226 NA
ATOM     25  C   UNL     1      -2.414   4.208  25.810  0.00  0.00    +0.121 A 
ATOM     26  C   UNL     1      -2.688   4.600  25.139  0.00  0.00    +0.121 A 
ATOM     27  N   UNL     1      -3.172   4.080  24.719  0.00  0.00    -0.226 NA
ENDBRANCH  22  23
ENDBRANCH  21  22
ENDBRANCH  15  17
TORSDOF 8
ENDMDL
MODEL 6
REMARK VINA RESULT:      -8.4      2.671      5.581
REMARK  Name = 
REMARK  8 active torsions:
REMARK  status: ('A' for Active; 'I' for Inactive)
REMARK    1  A    between atoms: O_2  and  C_3
REMARK    2  A    between atoms: C_3  and  C_4
REMARK    3  A    between atoms: C_4  and  O_5
REMARK    4  A    between atoms: O_5  and  C_6
REMARK    5  A    between atoms: C_8  and  C_12
REMARK    6  A    between atoms: C_15  and  C_17
REMARK    7  A    between atoms: N_21  and  C_22
REMARK    8  A    between atoms: C_22  and  C_23
REMARK                            x       y       z     vdW  Elec       q    Type
REMARK                         _______ _______ _______ _____ _____    ______ ____
ROOT
ATOM     12  C   UNL     1      -0.585   1.544  25.069  0.00  0.00    +0.221 A 
ATOM     13  N   UNL     1      -0.399   1.699  25.857  0.00  0.00    -0.054 NA
ATOM     14  O   UNL     1      -0.665   2.458  26.038  0.00  0.00    -0.336 OA
ATOM     15  C   UNL     1      -1.017   2.773  25.361  0.00  0.00    +0.251 A 
ATOM     16  N   UNL     1      -0.967   2.208  24.762  0.00  0.00    -0.188 NA
ENDROOT
BRANCH  12   8
ATOM      6  C   UNL     1       0.281   0.160  23.619  0.00  0.00    +0.142 A 
ATOM      7  C   UNL     1       0.114   0.856  24.030  0.00  0.00    +0.059 A 
ATOM      8  C   UNL     1      -0.419   0.848  24.658  0.00  0.00    +0.123 A 
ATOM      9  N   UNL     1      -0.787   0.142  24.877  0.00  0.00    -0.240 NA
ATOM     10  C   UNL     1      -0.621  -0.554  24.467  0.00  0.00    +0.102 A 
ATOM     11  C   UNL     1      -0.087  -0.545  23.838  0.00  0.00    +0.058 A 
BRANCH   6   5
ATOM      5  O   UNL     1       0.815   0.170  22.990  0.00  0.00    -0.473 OA
BRANCH   5   4
ATOM      4  C   UNL     1       1.619   0.053  23.131  0.00  0.00    +0.237 C 
BRANCH   4   3
ATOM      3  C   UNL     1       2.165   0.161  22.523  0.00  0.00    +0.189 C 
BRANCH   3   2
ATOM      1  C   UNL     1       3.537   0.546  22.421  0.00  0.00    +0.174 C 
ATOM      2  O   UNL     1       2.964  -0.001  22.651  0.00  0.00    -0.347 OA
ENDBRANCH   3   2
ENDBRANCH   4   3
ENDBRANCH   5   4
ENDBRANCH   6   5
ENDBRANCH  12   8
BRANCH  15  17
ATOM     17  C   UNL     1      -1.357   3.522  25.295  0.00  0.00    +0.138 C 
ATOM     18  C   UNL     1      -0.957   4.224  25.132  0.00  0.00    +0.027 C 
ATOM     19  C   UNL     1      -1.511   4.835  25.117  0.00  0.00    +0.019 C 
ATOM     20  C   UNL     1      -2.254   4.510  25.272  0.00  0.00    +0.073 C 
ATOM     21  N   UNL     1      -2.159   3.699  25.382  0.00  0.00    -0.260 NA
BRANCH  21  22
ATOM     22  C   UNL     1      -2.760   3.158  25.549  0.00  0.00    +0.139 C 
BRANCH  22  23
ATOM     23  C   UNL     1      -3.544   3.352  25.387  0.00  0.00    +0.155 A 
ATOM     24  N   UNL     1      -4.083   3.683  25.917  0.00  0.00    -0.226 NA
ATOM     25  C   UNL     1      -4.799   3.785  25.522  0.00  0.00    +0.121 A 
ATOM     26  C   UNL     1      -4.706   3.516  24.748  0.00  0.00    +0.121 A 
ATOM     27  N   UNL     1      -3.929   3.249  24.664  0.00  0.00    -0.226 NA
ENDBRANCH  22  23
ENDBRANCH  21  22
ENDBRANCH  15  17
TORSDOF 8
ENDMDL
MODEL 7
REMARK VINA RESULT:      -8.4      1.870      3.307
REMARK  Name = 
REMARK  8 active torsions:
REMARK  status: ('A' for Active; 'I' for Inactive)
REMARK    1  A    between atoms: O_2  and  C_3
REMARK    2  A    between atoms: C_3  and  C_4
REMARK    3  A    between atoms: C_4  and  O_5
REMARK    4  A    between atoms: O_5  and  C_6
REMARK    5  A    between atoms: C_8  and  C_12
REMARK    6  A    between atoms: C_15  and  C_17
REMARK    7  A    between atoms: N_21  and  C_22
REMARK    8  A    between atoms: C_22  and  C_23
REMARK                            x       y       z     vdW  Elec       q    Type
REMARK                         _______ _______ _______ _____ _____    ______ ____
ROOT
ATOM     12  C   UNL     1      -3.128   3.427  24.719  0.00  0.00    +0.221 A 
ATOM     13  N   UNL     1      -3.599   3.623  24.071  0.00  0.00    -0.054 NA
ATOM     14  O   UNL     1      -4.283   3.163  24.106  0.00  0.00    -0.336 OA
ATOM     15  C   UNL     1      -4.234   2.682  24.775  0.00  0.00    +0.251 A 
ATOM     16  N   UNL     1      -3.520   2.846  25.154  0.00  0.00    -0.188 NA
ENDROOT
BRANCH  12   8
ATOM      6  C   UNL     1      -0.995   3.597  25.153  0.00  0.00    +0.142 A 
ATOM      7  C   UNL     1      -1.730   3.269  24.972  0.00  0.00    +0.059 A 
ATOM      8  C   UNL     1      -2.393   3.755  24.901  0.00  0.00    +0.123 A 
ATOM      9  N   UNL     1      -2.320   4.570  25.012  0.00  0.00    -0.240 NA
ATOM     10  C   UNL     1      -1.585   4.898  25.193  0.00  0.00    +0.102 A 
ATOM     11  C   UNL     1      -0.923   4.411  25.264  0.00  0.00    +0.058 A 
BRANCH   6   5
ATOM      5  O   UNL     1      -0.333   3.110  25.224  0.00  0.00    -0.473 OA
BRANCH   5   4
ATOM      4  C   UNL     1      -0.045   2.708  24.563  0.00  0.00    +0.237 C 
BRANCH   4   3
ATOM      3  C   UNL     1       0.419   2.033  24.661  0.00  0.00    +0.189 C 
BRANCH   3   2
ATOM      1  C   UNL     1       0.949   1.054  23.766  0.00  0.00    +0.174 C 
ATOM      2  O   UNL     1       0.962   1.817  24.078  0.00  0.00    -0.347 OA
ENDBRANCH   3   2
ENDBRANCH   4   3
ENDBRANCH   5   4
ENDBRANCH   6   5
ENDBRANCH  12   8
BRANCH  15  17
ATOM     17  C   UNL     1      -4.800   2.135  25.021  0.00  0.00    +0.138 C 
ATOM     18  C   UNL     1      -5.510   2.309  25.401  0.00  0.00    +0.027 C 
ATOM     19  C   UNL     1      -5.904   1.599  25.545  0.00  0.00    +0.019 C 
ATOM     20  C   UNL     1      -5.436   0.985  25.253  0.00  0.00    +0.073 C 
ATOM     21  N   UNL     1      -4.754   1.316  24.930  0.00  0.00    -0.260 NA
BRANCH  21  22
ATOM     22  C   UNL     1      -4.134   0.901  24.576  0.00  0.00    +0.139 C 
BRANCH  22  23
ATOM     23  C   UNL     1      -4.107   0.079  24.627  0.00  0.00    +0.155 A 
ATOM     24  N   UNL     1      -3.807  -0.359  25.258  0.00  0.00    -0.226 NA
ATOM     25  C   UNL     1      -3.891  -1.159  25.077  0.00  0.00    +0.121 A 
ATOM     26  C   UNL     1      -4.243  -1.217  24.333  0.00  0.00    +0.121 A 
ATOM     27  N   UNL     1      -4.378  -0.451  24.055  0.00  0.00    -0.226 NA
ENDBRANCH  22  23
ENDBRANCH  21  22
ENDBRANCH  15  17
TORSDOF 8
ENDMDL
