MODEL 1
REMARK VINA RESULT:     -10.6      0.000      0.000
REMARK  Name = 
REMARK  6 active torsions:
REMARK  status: ('A' for Active; 'I' for Inactive)
REMARK    1  A    between atoms: O_2  and  C_3
REMARK    2  A    between atoms: C_3  and  C_5
REMARK    3  A    between atoms: C_11  and  C_13
REMARK    4  A    between atoms: N_18  and  C_19
REMARK    5  A    between atoms: C_19  and  C_20
REMARK    6  A    between atoms: C_23  and  O_24
REMARK                            x       y       z     vdW  Elec       q    Type
REMARK                         _______ _______ _______ _____ _____    ______ ____
ROOT
ATOM      5  C   UNL     1      -2.074   3.045  25.126  0.00  0.00    +0.181 C 
ATOM      6  C   UNL     1      -1.586   2.448  24.835  0.00  0.00    +0.078 C 
ATOM      7  C   UNL     1      -1.912   1.726  24.600  0.00  0.00    +0.076 A 
ATOM      8  C   UNL     1      -2.726   1.604  24.656  0.00  0.00    +0.072 A 
ATOM      9  C   UNL     1      -3.214   2.203  24.947  0.00  0.00    +0.139 C 
ATOM     10  N   UNL     1      -2.888   2.923  25.182  0.00  0.00    -0.261 N 
ATOM     11  C   UNL     1      -3.376   3.521  25.472  0.00  0.00    +0.256 C 
ATOM     12  O   UNL     1      -3.050   4.242  25.707  0.00  0.00    -0.269 OA
ATOM     18  N   UNL     1      -2.888   0.843  24.385  0.00  0.00    -0.307 N 
ATOM     28  C   UNL     1      -2.175   0.494  24.162  0.00  0.00    +0.178 A 
ATOM     29  N   UNL     1      -1.572   1.041  24.295  0.00  0.00    -0.229 NA
ENDROOT
BRANCH  11  13
ATOM     13  C   UNL     1      -4.190   3.399  25.528  0.00  0.00    +0.083 A 
ATOM     14  C   UNL     1      -4.583   3.027  26.151  0.00  0.00    +0.012 A 
ATOM     15  C   UNL     1      -5.389   3.025  25.978  0.00  0.00    +0.008 A 
ATOM     16  C   UNL     1      -5.495   3.396  25.249  0.00  0.00    +0.036 A 
ATOM     17  S   UNL     1      -4.754   3.627  24.970  0.00  0.00    -0.082 S 
ENDBRANCH  11  13
BRANCH   5   3
ATOM      3  C   UNL     1      -1.748   3.766  25.360  0.00  0.00    +0.336 C 
ATOM      4  O   UNL     1      -1.595   3.908  26.158  0.00  0.00    -0.248 OA
BRANCH   3   2
ATOM      1  C   UNL     1      -1.069   4.966  24.987  0.00  0.00    +0.256 C 
ATOM      2  O   UNL     1      -1.576   4.344  24.798  0.00  0.00    -0.443 OA
ENDBRANCH   3   2
ENDBRANCH   5   3
BRANCH  18  19
ATOM     19  C   UNL     1      -3.634   0.491  24.345  0.00  0.00    +0.134 C 
BRANCH  19  20
ATOM     20  C   UNL     1      -3.708  -0.327  24.416  0.00  0.00    +0.001 A 
ATOM     21  C   UNL     1      -3.860  -0.788  23.747  0.00  0.00    +0.001 A 
ATOM     22  C   UNL     1      -3.934  -1.606  23.818  0.00  0.00    +0.037 A 
ATOM     23  C   UNL     1      -3.857  -1.964  24.557  0.00  0.00    +0.139 A 
ATOM     26  C   UNL     1      -3.706  -1.505  25.225  0.00  0.00    +0.037 A 
ATOM     27  C   UNL     1      -3.631  -0.687  25.154  0.00  0.00    +0.001 A 
BRANCH  23  24
ATOM     24  O   UNL     1      -3.931  -2.783  24.628  0.00  0.00    -0.471 OA
ATOM     25  C   UNL     1      -3.257  -3.258  24.655  0.00  0.00    +0.252 C 
ENDBRANCH  23  24
ENDBRANCH  19  20
ENDBRANCH  18  19
TORSDOF 6
ENDMDL
MODEL 2
REMARK VINA RESULT:      -9.7      1.280      2.440
REMARK  Name = 
REMARK  6 active torsions:
REMARK  status: ('A' for Active; 'I' for Inactive)
REMARK    1  A    between atoms: O_2  and  C_3
REMARK    2  A    between atoms: C_3  and  C_5
REMARK    3  A    between atoms: C_11  and  C_13
REMARK    4  A    between atoms: N_18  and  C_19
REMARK    5  A    between atoms: C_19  and  C_20
REMARK    6  A    between atoms: C_23  and  O_24
REMARK                            x       y       z     vdW  Elec       q    Type
REMARK                         _______ _______ _______ _____ _____    ______ ____
ROOT
ATOM      5  C   UNL     1      -2.676   3.346  25.281  0.00  0.00    +0.181 C 
ATOM      6  C   UNL     1      -3.460   3.112  25.177  0.00  0.00    +0.078 C 
ATOM      7  C   UNL     1      -3.631   2.365  24.871  0.00  0.00    +0.076 A 
ATOM      8  C   UNL     1      -3.017   1.852  24.669  0.00  0.00    +0.072 A 
ATOM      9  C   UNL     1      -2.232   2.086  24.773  0.00  0.00    +0.139 C 
ATOM     10  N   UNL     1      -2.062   2.833  25.079  0.00  0.00    -0.261 N 
ATOM     11  C   UNL     1      -1.278   3.067  25.182  0.00  0.00    +0.256 C 
ATOM     12  O   UNL     1      -1.107   3.814  25.488  0.00  0.00    -0.269 OA
ATOM     18  N   UNL     1      -3.351   1.155  24.382  0.00  0.00    -0.307 N 
ATOM     28  C   UNL     1      -4.172   1.237  24.406  0.00  0.00    +0.178 A 
ATOM     29  N   UNL     1      -4.344   1.985  24.708  0.00  0.00    -0.229 NA
ENDROOT
BRANCH  11  13
ATOM     13  C   UNL     1      -0.664   2.554  24.981  0.00  0.00    +0.083 A 
ATOM     14  C   UNL     1      -0.318   1.992  25.476  0.00  0.00    +0.012 A 
ATOM     15  C   UNL     1       0.271   1.604  25.050  0.00  0.00    +0.008 A 
ATOM     16  C   UNL     1       0.289   1.925  24.290  0.00  0.00    +0.036 A 
ATOM     17  S   UNL     1      -0.288   2.512  24.247  0.00  0.00    -0.082 S 
ENDBRANCH  11  13
BRANCH   5   3
ATOM      3  C   UNL     1      -2.505   4.093  25.586  0.00  0.00    +0.336 C 
ATOM      4  O   UNL     1      -2.494   4.212  26.402  0.00  0.00    -0.248 OA
BRANCH   3   2
ATOM      1  C   UNL     1      -2.268   5.486  25.375  0.00  0.00    +0.256 C 
ATOM      2  O   UNL     1      -2.346   4.722  25.076  0.00  0.00    -0.443 OA
ENDBRANCH   3   2
ENDBRANCH   5   3
BRANCH  18  19
ATOM     19  C   UNL     1      -2.938   0.492  24.117  0.00  0.00    +0.134 C 
BRANCH  19  20
ATOM     20  C   UNL     1      -3.176  -0.263  24.350  0.00  0.00    +0.001 A 
ATOM     21  C   UNL     1      -2.872  -0.597  25.040  0.00  0.00    +0.001 A 
ATOM     22  C   UNL     1      -3.111  -1.352  25.273  0.00  0.00    +0.037 A 
ATOM     23  C   UNL     1      -3.653  -1.772  24.814  0.00  0.00    +0.139 A 
ATOM     26  C   UNL     1      -3.957  -1.438  24.124  0.00  0.00    +0.037 A 
ATOM     27  C   UNL     1      -3.718  -0.684  23.892  0.00  0.00    +0.001 A 
BRANCH  23  24
ATOM     24  O   UNL     1      -3.891  -2.527  25.046  0.00  0.00    -0.471 OA
ATOM     25  C   UNL     1      -3.524  -3.193  24.726  0.00  0.00    +0.252 C 
ENDBRANCH  23  24
ENDBRANCH  19  20
ENDBRANCH  18  19
TORSDOF 6
ENDMDL
MODEL 3
REMARK VINA RESULT:      -9.5      2.045      3.385
REMARK  Name = 
REMARK  6 active torsions:
REMARK  status: ('A' for Active; 'I' for Inactive)
REMARK    1  A    between atoms: O_2  and  C_3
REMARK    2  A    between atoms: C_3  and  C_5
REMARK    3  A    between atoms: C_11  and  C_13
REMARK    4  A    between atoms: N_18  and  C_19
REMARK    5  A    between atoms: C_19  and  C_20
REMARK    6  A    between atoms: C_23  and  O_24
REMARK                            x       y       z     vdW  Elec       q    Type
REMARK                         _______ _______ _______ _____ _____    ______ ____
ROOT
ATOM      5  C   UNL     1      -4.372   1.667  24.951  0.00  0.00    +0.181 C 
ATOM      6  C   UNL     1      -4.283   0.856  24.831  0.00  0.00    +0.078 C 
ATOM      7  C   UNL     1      -3.530   0.519  24.825  0.00  0.00    +0.076 A 
ATOM      8  C   UNL     1      -2.865   0.994  24.940  0.00  0.00    +0.072 A 
ATOM      9  C   UNL     1      -2.954   1.806  25.061  0.00  0.00    +0.139 C 
ATOM     10  N   UNL     1      -3.707   2.142  25.066  0.00  0.00    -0.261 N 
ATOM     11  C   UNL     1      -3.795   2.953  25.186  0.00  0.00    +0.256 C 
ATOM     12  O   UNL     1      -4.549   3.290  25.192  0.00  0.00    -0.269 OA
ATOM     18  N   UNL     1      -2.198   0.511  24.907  0.00  0.00    -0.307 N 
ATOM     28  C   UNL     1      -2.449  -0.262  24.771  0.00  0.00    +0.178 A 
ATOM     29  N   UNL     1      -3.272  -0.257  24.721  0.00  0.00    -0.229 NA
ENDROOT
BRANCH  11  13
ATOM     13  C   UNL     1      -3.131   3.428  25.302  0.00  0.00    +0.083 A 
ATOM     14  C   UNL     1      -2.756   3.572  26.022  0.00  0.00    +0.012 A 
ATOM     15  C   UNL     1      -2.118   4.075  25.882  0.00  0.00    +0.008 A 
ATOM     16  C   UNL     1      -2.098   4.243  25.074  0.00  0.00    +0.036 A 
ATOM     17  S   UNL     1      -2.724   3.843  24.715  0.00  0.00    -0.082 S 
ENDBRANCH  11  13
BRANCH   5   3
ATOM      3  C   UNL     1      -5.124   2.003  24.956  0.00  0.00    +0.336 C 
ATOM      4  O   UNL     1      -5.416   2.373  24.279  0.00  0.00    -0.248 OA
BRANCH   3   2
ATOM      1  C   UNL     1      -6.405   2.059  25.588  0.00  0.00    +0.256 C 
ATOM      2  O   UNL     1      -5.587   1.970  25.639  0.00  0.00    -0.443 OA
ENDBRANCH   3   2
ENDBRANCH   5   3
BRANCH  18  19
ATOM     19  C   UNL     1      -1.415   0.758  24.994  0.00  0.00    +0.134 C 
BRANCH  19  20
ATOM     20  C   UNL     1      -0.830   0.458  24.496  0.00  0.00    +0.001 A 
ATOM     21  C   UNL     1      -0.524  -0.297  24.628  0.00  0.00    +0.001 A 
ATOM     22  C   UNL     1       0.062  -0.598  24.131  0.00  0.00    +0.037 A 
ATOM     23  C   UNL     1       0.341  -0.143  23.501  0.00  0.00    +0.139 A 
ATOM     26  C   UNL     1       0.035   0.611  23.369  0.00  0.00    +0.037 A 
ATOM     27  C   UNL     1      -0.550   0.912  23.867  0.00  0.00    +0.001 A 
BRANCH  23  24
ATOM     24  O   UNL     1       0.926  -0.444  23.004  0.00  0.00    -0.471 OA
ATOM     25  C   UNL     1       1.538   0.046  22.743  0.00  0.00    +0.252 C 
ENDBRANCH  23  24
ENDBRANCH  19  20
ENDBRANCH  18  19
TORSDOF 6
ENDMDL
MODEL 4
REMARK VINA RESULT:      -9.4      1.677      5.382
REMARK  Name = 
REMARK  6 active torsions:
REMARK  status: ('A' for Active; 'I' for Inactive)
REMARK    1  A    between atoms: O_2  and  C_3
REMARK    2  A    between atoms: C_3  and  C_5
REMARK    3  A    between atoms: C_11  and  C_13
REMARK    4  A    between atoms: N_18  and  C_19
REMARK    5  A    between atoms: C_19  and  C_20
REMARK    6  A    between atoms: C_23  and  O_24
REMARK                            x       y       z     vdW  Elec       q    Type
REMARK                         _______ _______ _______ _____ _____    ______ ____
ROOT
ATOM      5  C   UNL     1      -3.592  -0.835  24.523  0.00  0.00    +0.181 C 
ATOM      6  C   UNL     1      -4.093  -0.182  24.557  0.00  0.00    +0.078 C 
ATOM      7  C   UNL     1      -3.781   0.572  24.685  0.00  0.00    +0.076 A 
ATOM      8  C   UNL     1      -2.968   0.671  24.778  0.00  0.00    +0.072 A 
ATOM      9  C   UNL     1      -2.465   0.016  24.744  0.00  0.00    +0.139 C 
ATOM     10  N   UNL     1      -2.778  -0.736  24.616  0.00  0.00    -0.261 N 
ATOM     11  C   UNL     1      -2.276  -1.390  24.582  0.00  0.00    +0.256 C 
ATOM     12  O   UNL     1      -2.588  -2.143  24.455  0.00  0.00    -0.269 OA
ATOM     18  N   UNL     1      -2.820   1.473  24.895  0.00  0.00    -0.307 N 
ATOM     28  C   UNL     1      -3.543   1.871  24.875  0.00  0.00    +0.178 A 
ATOM     29  N   UNL     1      -4.136   1.313  24.745  0.00  0.00    -0.229 NA
ENDROOT
BRANCH  11  13
ATOM     13  C   UNL     1      -1.462  -1.291  24.675  0.00  0.00    +0.083 A 
ATOM     14  C   UNL     1      -0.931  -1.059  24.088  0.00  0.00    +0.012 A 
ATOM     15  C   UNL     1      -0.178  -1.031  24.422  0.00  0.00    +0.008 A 
ATOM     16  C   UNL     1      -0.243  -1.245  25.216  0.00  0.00    +0.036 A 
ATOM     17  S   UNL     1      -1.036  -1.406  25.373  0.00  0.00    -0.082 S 
ENDBRANCH  11  13
BRANCH   5   3
ATOM      3  C   UNL     1      -3.903  -1.588  24.396  0.00  0.00    +0.336 C 
ATOM      4  O   UNL     1      -3.970  -2.118  25.024  0.00  0.00    -0.248 OA
BRANCH   3   2
ATOM      1  C   UNL     1      -4.533  -2.532  23.527  0.00  0.00    +0.256 C 
ATOM      2  O   UNL     1      -4.148  -1.812  23.640  0.00  0.00    -0.443 OA
ENDBRANCH   3   2
ENDBRANCH   5   3
BRANCH  18  19
ATOM     19  C   UNL     1      -2.080   1.819  25.013  0.00  0.00    +0.134 C 
BRANCH  19  20
ATOM     20  C   UNL     1      -2.016   2.636  25.102  0.00  0.00    +0.001 A 
ATOM     21  C   UNL     1      -1.858   3.112  24.446  0.00  0.00    +0.001 A 
ATOM     22  C   UNL     1      -1.794   3.929  24.535  0.00  0.00    +0.037 A 
ATOM     23  C   UNL     1      -1.887   4.271  25.280  0.00  0.00    +0.139 A 
ATOM     26  C   UNL     1      -2.045   3.797  25.935  0.00  0.00    +0.037 A 
ATOM     27  C   UNL     1      -2.109   2.979  25.846  0.00  0.00    +0.001 A 
BRANCH  23  24
ATOM     24  O   UNL     1      -1.823   5.089  25.369  0.00  0.00    -0.471 OA
ATOM     25  C   UNL     1      -1.209   5.498  24.998  0.00  0.00    +0.252 C 
ENDBRANCH  23  24
ENDBRANCH  19  20
ENDBRANCH  18  19
TORSDOF 6
ENDMDL
MODEL 5
REMARK VINA RESULT:      -9.3      2.237      4.401
REMARK  Name = 
REMARK  6 active torsions:
REMARK  status: ('A' for Active; 'I' for Inactive)
REMARK    1  A    between atoms: O_2  and  C_3
REMARK    2  A    between atoms: C_3  and  C_5
REMARK    3  A    between atoms: C_11  and  C_13
REMARK    4  A    between atoms: N_18  and  C_19
REMARK    5  A    between atoms: C_19  and  C_20
REMARK    6  A    between atoms: C_23  and  O_24
REMARK                            x       y       z     vdW  Elec       q    Type
REMARK                         _______ _______ _______ _____ _____    ______ ____
ROOT
ATOM      5  C   UNL     1      -1.129   0.075  24.254  0.00  0.00    +0.181 C 
ATOM      6  C   UNL     1      -1.158   0.871  24.040  0.00  0.00    +0.078 C 
ATOM      7  C   UNL     1      -1.883   1.263  24.003  0.00  0.00    +0.076 A 
ATOM      8  C   UNL     1      -2.580   0.858  24.182  0.00  0.00    +0.072 A 
ATOM      9  C   UNL     1      -2.551   0.061  24.397  0.00  0.00    +0.139 C 
ATOM     10  N   UNL     1      -1.825  -0.329  24.433  0.00  0.00    -0.261 N 
ATOM     11  C   UNL     1      -1.797  -1.125  24.648  0.00  0.00    +0.256 C 
ATOM     12  O   UNL     1      -1.071  -1.517  24.684  0.00  0.00    -0.269 OA
ATOM     18  N   UNL     1      -3.209   1.384  24.100  0.00  0.00    -0.307 N 
ATOM     28  C   UNL     1      -2.902   2.114  23.870  0.00  0.00    +0.178 A 
ATOM     29  N   UNL     1      -2.083   2.039  23.810  0.00  0.00    -0.229 NA
ENDROOT
BRANCH  11  13
ATOM     13  C   UNL     1      -2.493  -1.530  24.827  0.00  0.00    +0.083 A 
ATOM     14  C   UNL     1      -2.885  -1.524  25.552  0.00  0.00    +0.012 A 
ATOM     15  C   UNL     1      -3.554  -2.002  25.485  0.00  0.00    +0.008 A 
ATOM     16  C   UNL     1      -3.575  -2.304  24.717  0.00  0.00    +0.036 A 
ATOM     17  S   UNL     1      -2.920  -2.013  24.310  0.00  0.00    -0.082 S 
ENDBRANCH  11  13
BRANCH   5   3
ATOM      3  C   UNL     1      -0.404  -0.316  24.290  0.00  0.00    +0.336 C 
ATOM      4  O   UNL     1      -0.064  -0.486  25.022  0.00  0.00    -0.248 OA
BRANCH   3   2
ATOM      1  C   UNL     1       0.805  -0.542  23.563  0.00  0.00    +0.256 C 
ATOM      2  O   UNL     1      -0.019  -0.537  23.595  0.00  0.00    -0.443 OA
ENDBRANCH   3   2
ENDBRANCH   5   3
BRANCH  18  19
ATOM     19  C   UNL     1      -4.006   1.211  24.225  0.00  0.00    +0.134 C 
BRANCH  19  20
ATOM     20  C   UNL     1      -4.492   1.758  24.607  0.00  0.00    +0.001 A 
ATOM     21  C   UNL     1      -4.787   1.592  25.359  0.00  0.00    +0.001 A 
ATOM     22  C   UNL     1      -5.273   2.138  25.741  0.00  0.00    +0.037 A 
ATOM     23  C   UNL     1      -5.463   2.850  25.371  0.00  0.00    +0.139 A 
ATOM     26  C   UNL     1      -5.168   3.016  24.619  0.00  0.00    +0.037 A 
ATOM     27  C   UNL     1      -4.683   2.470  24.237  0.00  0.00    +0.001 A 
BRANCH  23  24
ATOM     24  O   UNL     1      -5.949   3.397  25.753  0.00  0.00    -0.471 OA
ATOM     25  C   UNL     1      -5.767   4.201  25.725  0.00  0.00    +0.252 C 
ENDBRANCH  23  24
ENDBRANCH  19  20
ENDBRANCH  18  19
TORSDOF 6
ENDMDL
MODEL 6
REMARK VINA RESULT:      -9.1      2.078      4.606
REMARK  Name = 
REMARK  6 active torsions:
REMARK  status: ('A' for Active; 'I' for Inactive)
REMARK    1  A    between atoms: O_2  and  C_3
REMARK    2  A    between atoms: C_3  and  C_5
REMARK    3  A    between atoms: C_11  and  C_13
REMARK    4  A    between atoms: N_18  and  C_19
REMARK    5  A    between atoms: C_19  and  C_20
REMARK    6  A    between atoms: C_23  and  O_24
REMARK                            x       y       z     vdW  Elec       q    Type
REMARK                         _______ _______ _______ _____ _____    ______ ____
ROOT
ATOM      5  C   UNL     1      -1.983  -0.692  25.001  0.00  0.00    +0.181 C 
ATOM      6  C   UNL     1      -2.791  -0.848  24.950  0.00  0.00    +0.078 C 
ATOM      7  C   UNL     1      -3.321  -0.235  24.796  0.00  0.00    +0.076 A 
ATOM      8  C   UNL     1      -3.042   0.535  24.694  0.00  0.00    +0.072 A 
ATOM      9  C   UNL     1      -2.233   0.691  24.745  0.00  0.00    +0.139 C 
ATOM     10  N   UNL     1      -1.704   0.077  24.899  0.00  0.00    -0.261 N 
ATOM     11  C   UNL     1      -0.896   0.234  24.950  0.00  0.00    +0.256 C 
ATOM     12  O   UNL     1      -0.366  -0.380  25.104  0.00  0.00    -0.269 OA
ATOM     18  N   UNL     1      -3.690   1.023  24.549  0.00  0.00    -0.307 N 
ATOM     28  C   UNL     1      -4.370   0.556  24.563  0.00  0.00    +0.178 A 
ATOM     29  N   UNL     1      -4.141  -0.221  24.715  0.00  0.00    -0.229 NA
ENDROOT
BRANCH  11  13
ATOM     13  C   UNL     1      -0.617   1.004  24.847  0.00  0.00    +0.083 A 
ATOM     14  C   UNL     1      -0.551   1.578  25.435  0.00  0.00    +0.012 A 
ATOM     15  C   UNL     1      -0.249   2.263  25.090  0.00  0.00    +0.008 A 
ATOM     16  C   UNL     1      -0.128   2.113  24.288  0.00  0.00    +0.036 A 
ATOM     17  S   UNL     1      -0.356   1.335  24.138  0.00  0.00    -0.082 S 
ENDBRANCH  11  13
BRANCH   5   3
ATOM      3  C   UNL     1      -1.453  -1.305  25.155  0.00  0.00    +0.336 C 
ATOM      4  O   UNL     1      -1.142  -1.401  25.913  0.00  0.00    -0.248 OA
BRANCH   3   2
ATOM      1  C   UNL     1      -0.970  -2.582  24.734  0.00  0.00    +0.256 C 
ATOM      2  O   UNL     1      -1.234  -1.823  24.551  0.00  0.00    -0.443 OA
ENDBRANCH   3   2
ENDBRANCH   5   3
BRANCH  18  19
ATOM     19  C   UNL     1      -3.664   1.837  24.415  0.00  0.00    +0.134 C 
BRANCH  19  20
ATOM     20  C   UNL     1      -4.217   2.333  24.775  0.00  0.00    +0.001 A 
ATOM     21  C   UNL     1      -3.972   2.884  25.339  0.00  0.00    +0.001 A 
ATOM     22  C   UNL     1      -4.524   3.380  25.699  0.00  0.00    +0.037 A 
ATOM     23  C   UNL     1      -5.322   3.324  25.495  0.00  0.00    +0.139 A 
ATOM     26  C   UNL     1      -5.567   2.773  24.933  0.00  0.00    +0.037 A 
ATOM     27  C   UNL     1      -5.014   2.278  24.573  0.00  0.00    +0.001 A 
BRANCH  23  24
ATOM     24  O   UNL     1      -5.875   3.819  25.855  0.00  0.00    -0.471 OA
ATOM     25  C   UNL     1      -5.937   4.608  25.620  0.00  0.00    +0.252 C 
ENDBRANCH  23  24
ENDBRANCH  19  20
ENDBRANCH  18  19
TORSDOF 6
ENDMDL
MODEL 7
REMARK VINA RESULT:      -9.0      2.329      3.885
REMARK  Name = 
REMARK  6 active torsions:
REMARK  status: ('A' for Active; 'I' for Inactive)
REMARK    1  A    between atoms: O_2  and  C_3
REMARK    2  A    between atoms: C_3  and  C_5
REMARK    3  A    between atoms: C_11  and  C_13
REMARK    4  A    between atoms: N_18  and  C_19
REMARK    5  A    between atoms: C_19  and  C_20
REMARK    6  A    between atoms: C_23  and  O_24
REMARK                            x       y       z     vdW  Elec       q    Type
REMARK                         _______ _______ _______ _____ _____    ______ ____
ROOT
ATOM      5  C   UNL     1      -3.715   1.906  24.822  0.00  0.00    +0.181 C 
ATOM      6  C   UNL     1      -3.112   2.465  24.764  0.00  0.00    +0.078 C 
ATOM      7  C   UNL     1      -2.323   2.223  24.749  0.00  0.00    +0.076 A 
ATOM      8  C   UNL     1      -2.139   1.420  24.792  0.00  0.00    +0.072 A 
ATOM      9  C   UNL     1      -2.742   0.860  24.850  0.00  0.00    +0.139 C 
ATOM     10  N   UNL     1      -3.530   1.104  24.865  0.00  0.00    -0.261 N 
ATOM     11  C   UNL     1      -4.133   0.544  24.923  0.00  0.00    +0.256 C 
ATOM     12  O   UNL     1      -4.922   0.787  24.938  0.00  0.00    -0.269 OA
ATOM     18  N   UNL     1      -1.318   1.345  24.765  0.00  0.00    -0.307 N 
ATOM     28  C   UNL     1      -0.995   2.102  24.705  0.00  0.00    +0.178 A 
ATOM     29  N   UNL     1      -1.617   2.644  24.695  0.00  0.00    -0.229 NA
ENDROOT
BRANCH  11  13
ATOM     13  C   UNL     1      -3.948  -0.259  24.966  0.00  0.00    +0.083 A 
ATOM     14  C   UNL     1      -3.713  -0.667  25.643  0.00  0.00    +0.012 A 
ATOM     15  C   UNL     1      -3.586  -1.455  25.435  0.00  0.00    +0.008 A 
ATOM     16  C   UNL     1      -3.742  -1.534  24.629  0.00  0.00    +0.036 A 
ATOM     17  S   UNL     1      -3.966  -0.796  24.339  0.00  0.00    -0.082 S 
ENDBRANCH  11  13
BRANCH   5   3
ATOM      3  C   UNL     1      -4.503   2.149  24.837  0.00  0.00    +0.336 C 
ATOM      4  O   UNL     1      -4.945   2.159  24.140  0.00  0.00    -0.248 OA
BRANCH   3   2
ATOM      1  C   UNL     1      -5.528   2.852  25.543  0.00  0.00    +0.256 C 
ATOM      2  O   UNL     1      -4.850   2.383  25.548  0.00  0.00    -0.443 OA
ENDBRANCH   3   2
ENDBRANCH   5   3
BRANCH  18  19
ATOM     19  C   UNL     1      -0.894   0.638  24.793  0.00  0.00    +0.134 C 
BRANCH  19  20
ATOM     20  C   UNL     1      -0.308   0.486  24.233  0.00  0.00    +0.001 A 
ATOM     21  C   UNL     1       0.340   0.992  24.165  0.00  0.00    +0.001 A 
ATOM     22  C   UNL     1       0.926   0.840  23.605  0.00  0.00    +0.037 A 
ATOM     23  C   UNL     1       0.864   0.182  23.112  0.00  0.00    +0.139 A 
ATOM     26  C   UNL     1       0.216  -0.325  23.179  0.00  0.00    +0.037 A 
ATOM     27  C   UNL     1      -0.370  -0.172  23.739  0.00  0.00    +0.001 A 
BRANCH  23  24
ATOM     24  O   UNL     1       1.449   0.029  22.551  0.00  0.00    -0.471 OA
ATOM     25  C   UNL     1       2.246   0.106  22.755  0.00  0.00    +0.252 C 
ENDBRANCH  23  24
ENDBRANCH  19  20
ENDBRANCH  18  19
TORSDOF 6
ENDMDL
