REMARK  Name = 
REMARK  8 active torsions:
REMARK  status: ('A' for Active; 'I' for Inactive)
REMARK    1  A    between atoms: N_2  and  C_4
REMARK    2  A    between atoms: C_7  and  C_10
REMARK    3  A    between atoms: N_15  and  C_16
REMARK    4  A    between atoms: C_20  and  N_24
REMARK    5  A    between atoms: C_25  and  C_27
REMARK    6  A    between atoms: C_27  and  S_28
REMARK    7  A    between atoms: S_28  and  C_29
REMARK    8  A    between atoms: C_29  and  C_30
REMARK                            x       y       z     vdW  Elec       q    Type
REMARK                         _______ _______ _______ _____ _____    ______ ____
ROOT
ATOM     16  C   UNL     1      -4.909  -0.091   0.000  0.00  0.00    +0.154 C 
ATOM     17  C   UNL     1      -4.823   0.729   0.000  0.00  0.00    +0.166 C 
ATOM     18  O   UNL     1      -4.016   0.901   0.000  0.00  0.00    -0.350 OA
ATOM     19  C   UNL     1      -3.604   0.186   0.000  0.00  0.00    +0.166 C 
ATOM     20  C   UNL     1      -2.850  -0.149   0.000  0.00  0.00    +0.154 C 
ATOM     21  C   UNL     1      -2.936  -0.970   0.000  0.00  0.00    +0.166 C 
ATOM     22  O   UNL     1      -3.743  -1.141   0.000  0.00  0.00    -0.350 OA
ATOM     23  C   UNL     1      -4.156  -0.427   0.000  0.00  0.00    +0.166 C 
ENDROOT
BRANCH  16  15
ATOM     10  C   UNL     1      -7.767  -0.091   0.000  0.00  0.00    +0.086 A 
ATOM     11  C   UNL     1      -7.767   0.734   0.000  0.00  0.00    +0.040 A 
ATOM     12  C   UNL     1      -7.053   1.146   0.000  0.00  0.00    +0.103 A 
ATOM     13  N   UNL     1      -6.338   0.734   0.000  0.00  0.00    -0.211 NA
ATOM     14  C   UNL     1      -6.338  -0.091   0.000  0.00  0.00    +0.237 A 
ATOM     15  N   UNL     1      -5.624  -0.504   0.000  0.00  0.00    -0.200 NA
ATOM     33  N   UNL     1      -7.053  -0.504   0.000  0.00  0.00    -0.212 NA
BRANCH  10   7
ATOM      4  C   UNL     1      -9.911  -1.329   0.000  0.00  0.00    +0.048 A 
ATOM      5  C   UNL     1      -9.911  -0.504   0.000  0.00  0.00    +0.015 A 
ATOM      6  C   UNL     1      -9.196  -0.091   0.000  0.00  0.00    +0.003 A 
ATOM      7  C   UNL     1      -8.482  -0.504   0.000  0.00  0.00    +0.018 A 
ATOM      8  C   UNL     1      -8.482  -1.329   0.000  0.00  0.00    +0.003 A 
ATOM      9  C   UNL     1      -9.196  -1.741   0.000  0.00  0.00    +0.015 A 
BRANCH   4   2
ATOM      1  C   UNL     1     -10.625  -2.566   0.000  0.00  0.00    +0.112 C 
ATOM      2  N   UNL     1     -10.625  -1.741   0.000  0.00  0.00    -0.304 N 
ATOM      3  C   UNL     1     -11.340  -1.329   0.000  0.00  0.00    +0.112 C 
ENDBRANCH   4   2
ENDBRANCH  10   7
ENDBRANCH  16  15
BRANCH  20  24
ATOM     24  N   UNL     1      -2.136   0.263   0.000  0.00  0.00    -0.201 NA
ATOM     25  C   UNL     1      -1.421  -0.149   0.000  0.00  0.00    +0.252 C 
ATOM     26  O   UNL     1      -1.421  -0.974   0.000  0.00  0.00    -0.272 OA
BRANCH  25  27
ATOM     27  C   UNL     1      -0.707   0.263   0.000  0.00  0.00    +0.145 C 
BRANCH  27  28
ATOM     28  S   UNL     1       0.008  -0.149   0.000  0.00  0.00    -0.119 S 
BRANCH  28  29
ATOM     29  C   UNL     1       0.722   0.263   0.000  0.00  0.00    +0.172 C 
BRANCH  29  30
ATOM     30  C   UNL     1       1.437  -0.149   0.000  0.00  0.00    +0.376 C 
ATOM     31  O   UNL     1       2.151   0.263   0.000  0.00  0.00    -0.245 OA
ATOM     32  O   UNL     1       1.437  -0.974   0.000  0.00  0.00    -0.245 OA
ENDBRANCH  29  30
ENDBRANCH  28  29
ENDBRANCH  27  28
ENDBRANCH  25  27
ENDBRANCH  20  24
TORSDOF 8
