MODEL 1
REMARK VINA RESULT:      -7.6      0.000      0.000
REMARK  Name = 
REMARK  6 active torsions:
REMARK  status: ('A' for Active; 'I' for Inactive)
REMARK    1  A    between atoms: C_2  and  N_4
REMARK    2  A    between atoms: N_7  and  C_8
REMARK    3  A    between atoms: C_8  and  C_9
REMARK    4  A    between atoms: C_13  and  C_14
REMARK    5  A    between atoms: C_14  and  C_15
REMARK    6  A    between atoms: C_30  and  C_31
REMARK                            x       y       z     vdW  Elec       q    Type
REMARK                         _______ _______ _______ _____ _____    ______ ____
ROOT
ATOM      9  C   UNL     1       0.722   1.006  23.715  0.00  0.00    +0.043 C 
ATOM     10  C   UNL     1       0.728   1.815  23.874  0.00  0.00    -0.033 C 
ATOM     11  C   UNL     1       0.032   2.200  24.090  0.00  0.00    -0.048 C 
ATOM     12  C   UNL     1       0.039   3.010  24.249  0.00  0.00    +0.026 C 
ATOM     13  C   UNL     1      -0.673   1.774  24.149  0.00  0.00    +0.027 C 
ATOM     29  C   UNL     1      -0.681   0.965  23.991  0.00  0.00    +0.005 C 
ATOM     30  C   UNL     1       0.017   0.580  23.774  0.00  0.00    +0.006 C 
ENDROOT
BRANCH  30  31
ATOM     31  C   UNL     1       0.009  -0.229  23.616  0.00  0.00    +0.000 C 
ATOM     32  C   UNL     1      -0.004  -0.771  24.239  0.00  0.00    +0.000 C 
ATOM     33  C   UNL     1       0.015  -0.498  22.836  0.00  0.00    +0.000 C 
ENDBRANCH  30  31
BRANCH   9   8
ATOM      8  C   UNL     1       1.418   0.621  23.499  0.00  0.00    +0.121 C 
BRANCH   8   7
ATOM      4  N   UNL     1       3.514   1.104  23.124  0.00  0.00    -0.189 NA
ATOM      5  C   UNL     1       2.803   0.686  23.154  0.00  0.00    +0.339 C 
ATOM      6  O   UNL     1       2.768  -0.087  22.868  0.00  0.00    -0.249 OA
ATOM      7  N   UNL     1       2.129   1.040  23.469  0.00  0.00    -0.187 NA
BRANCH   4   2
ATOM      1  C   UNL     1       4.780   0.469  23.310  0.00  0.00    +0.023 C 
ATOM      2  C   UNL     1       4.188   0.750  22.809  0.00  0.00    +0.097 C 
ATOM      3  C   UNL     1       4.272   0.676  21.991  0.00  0.00    +0.023 C 
ENDBRANCH   4   2
ENDBRANCH   8   7
ENDBRANCH   9   8
BRANCH  13  14
ATOM     14  C   UNL     1      -1.370   2.159  24.366  0.00  0.00    +0.089 C 
BRANCH  14  15
ATOM     15  C   UNL     1      -2.024   2.141  23.863  0.00  0.00    +0.226 C 
ATOM     16  O   UNL     1      -1.916   2.151  23.045  0.00  0.00    -0.275 OA
ATOM     17  N   UNL     1      -2.786   2.112  24.179  0.00  0.00    -0.276 N 
ATOM     18  C   UNL     1      -3.440   2.094  23.676  0.00  0.00    +0.115 C 
ATOM     19  C   UNL     1      -4.201   2.065  23.993  0.00  0.00    +0.114 C 
ATOM     20  N   UNL     1      -4.309   2.055  24.810  0.00  0.00    -0.290 N 
ATOM     21  C   UNL     1      -3.655   2.073  25.312  0.00  0.00    +0.114 C 
ATOM     22  C   UNL     1      -2.894   2.102  24.997  0.00  0.00    +0.115 C 
ATOM     23  C   UNL     1      -5.071   2.026  25.125  0.00  0.00    +0.132 A 
ATOM     24  N   UNL     1      -5.726   2.008  24.624  0.00  0.00    -0.229 NA
ATOM     25  C   UNL     1      -6.487   1.979  24.939  0.00  0.00    +0.100 A 
ATOM     26  C   UNL     1      -6.595   1.969  25.758  0.00  0.00    +0.021 A 
ATOM     27  C   UNL     1      -5.941   1.987  26.259  0.00  0.00    +0.004 A 
ATOM     28  C   UNL     1      -5.179   2.016  25.944  0.00  0.00    +0.034 A 
ENDBRANCH  14  15
ENDBRANCH  13  14
TORSDOF 6
ENDMDL
MODEL 2
REMARK VINA RESULT:      -7.2      1.234      6.938
REMARK  Name = 
REMARK  6 active torsions:
REMARK  status: ('A' for Active; 'I' for Inactive)
REMARK    1  A    between atoms: C_2  and  N_4
REMARK    2  A    between atoms: N_7  and  C_8
REMARK    3  A    between atoms: C_8  and  C_9
REMARK    4  A    between atoms: C_13  and  C_14
REMARK    5  A    between atoms: C_14  and  C_15
REMARK    6  A    between atoms: C_30  and  C_31
REMARK                            x       y       z     vdW  Elec       q    Type
REMARK                         _______ _______ _______ _____ _____    ______ ____
ROOT
ATOM      9  C   UNL     1      -2.817   1.425  24.318  0.00  0.00    +0.043 C 
ATOM     10  C   UNL     1      -2.597   0.906  24.921  0.00  0.00    -0.033 C 
ATOM     11  C   UNL     1      -1.830   0.605  24.947  0.00  0.00    -0.048 C 
ATOM     12  C   UNL     1      -1.610   0.086  25.550  0.00  0.00    +0.026 C 
ATOM     13  C   UNL     1      -1.281   0.823  24.371  0.00  0.00    +0.027 C 
ATOM     29  C   UNL     1      -1.500   1.342  23.768  0.00  0.00    +0.005 C 
ATOM     30  C   UNL     1      -2.268   1.642  23.741  0.00  0.00    +0.006 C 
ENDROOT
BRANCH  30  31
ATOM     31  C   UNL     1      -2.487   2.161  23.138  0.00  0.00    +0.000 C 
ATOM     32  C   UNL     1      -2.828   1.867  22.446  0.00  0.00    +0.000 C 
ATOM     33  C   UNL     1      -2.364   2.972  23.226  0.00  0.00    +0.000 C 
ENDBRANCH  30  31
BRANCH   9   8
ATOM      8  C   UNL     1      -3.584   1.725  24.291  0.00  0.00    +0.121 C 
BRANCH   8   7
ATOM      4  N   UNL     1      -5.472   1.433  25.348  0.00  0.00    -0.189 NA
ATOM      5  C   UNL     1      -4.873   1.788  24.904  0.00  0.00    +0.339 C 
ATOM      6  O   UNL     1      -4.966   2.561  24.631  0.00  0.00    -0.249 OA
ATOM      7  N   UNL     1      -4.183   1.370  24.734  0.00  0.00    -0.187 NA
BRANCH   4   2
ATOM      1  C   UNL     1      -6.772   1.885  24.963  0.00  0.00    +0.023 C 
ATOM      2  C   UNL     1      -6.162   1.850  25.518  0.00  0.00    +0.097 C 
ATOM      3  C   UNL     1      -6.244   2.233  26.244  0.00  0.00    +0.023 C 
ENDBRANCH   4   2
ENDBRANCH   8   7
ENDBRANCH   9   8
BRANCH  13  14
ATOM     14  C   UNL     1      -0.513   0.522  24.398  0.00  0.00    +0.089 C 
BRANCH  14  15
ATOM     15  C   UNL     1      -0.226   0.069  23.771  0.00  0.00    +0.226 C 
ATOM     16  O   UNL     1      -0.713  -0.491  23.410  0.00  0.00    -0.275 OA
ATOM     17  N   UNL     1       0.548   0.176  23.506  0.00  0.00    -0.276 N 
ATOM     18  C   UNL     1       0.835  -0.278  22.879  0.00  0.00    +0.115 C 
ATOM     19  C   UNL     1       1.608  -0.171  22.614  0.00  0.00    +0.114 C 
ATOM     20  N   UNL     1       2.095   0.389  22.975  0.00  0.00    -0.290 N 
ATOM     21  C   UNL     1       1.808   0.842  23.601  0.00  0.00    +0.114 C 
ATOM     22  C   UNL     1       1.035   0.736  23.866  0.00  0.00    +0.115 C 
ATOM     23  C   UNL     1       2.869   0.496  22.709  0.00  0.00    +0.132 A 
ATOM     24  N   UNL     1       3.157   0.043  22.082  0.00  0.00    -0.229 NA
ATOM     25  C   UNL     1       3.930   0.149  21.816  0.00  0.00    +0.100 A 
ATOM     26  C   UNL     1       4.417   0.710  22.178  0.00  0.00    +0.021 A 
ATOM     27  C   UNL     1       4.130   1.163  22.804  0.00  0.00    +0.004 A 
ATOM     28  C   UNL     1       3.356   1.056  23.070  0.00  0.00    +0.034 A 
ENDBRANCH  14  15
ENDBRANCH  13  14
TORSDOF 6
ENDMDL
MODEL 3
REMARK VINA RESULT:      -5.3     17.012     18.189
REMARK  Name = 
REMARK  6 active torsions:
REMARK  status: ('A' for Active; 'I' for Inactive)
REMARK    1  A    between atoms: C_2  and  N_4
REMARK    2  A    between atoms: N_7  and  C_8
REMARK    3  A    between atoms: C_8  and  C_9
REMARK    4  A    between atoms: C_13  and  C_14
REMARK    5  A    between atoms: C_14  and  C_15
REMARK    6  A    between atoms: C_30  and  C_31
REMARK                            x       y       z     vdW  Elec       q    Type
REMARK                         _______ _______ _______ _____ _____    ______ ____
ROOT
ATOM      9  C   UNL     1      -4.469  -9.444  10.249  0.00  0.00    +0.043 C 
ATOM     10  C   UNL     1      -4.354  -9.347   9.438  0.00  0.00    -0.033 C 
ATOM     11  C   UNL     1      -4.997  -9.201   8.944  0.00  0.00    -0.048 C 
ATOM     12  C   UNL     1      -4.881  -9.105   8.132  0.00  0.00    +0.026 C 
ATOM     13  C   UNL     1      -5.757  -9.152   9.260  0.00  0.00    +0.027 C 
ATOM     29  C   UNL     1      -5.874  -9.248  10.071  0.00  0.00    +0.005 C 
ATOM     30  C   UNL     1      -5.230  -9.394  10.566  0.00  0.00    +0.006 C 
ENDROOT
BRANCH  30  31
ATOM     31  C   UNL     1      -5.347  -9.491  11.377  0.00  0.00    +0.000 C 
ATOM     32  C   UNL     1      -5.447  -8.829  11.860  0.00  0.00    +0.000 C 
ATOM     33  C   UNL     1      -5.363 -10.248  11.704  0.00  0.00    +0.000 C 
ENDBRANCH  30  31
BRANCH   9   8
ATOM      8  C   UNL     1      -3.826  -9.590  10.744  0.00  0.00    +0.121 C 
BRANCH   8   7
ATOM      4  N   UNL     1      -1.674  -9.227  10.803  0.00  0.00    -0.189 NA
ATOM      5  C   UNL     1      -2.426  -9.491  11.015  0.00  0.00    +0.339 C 
ATOM      6  O   UNL     1      -2.531  -9.922  11.710  0.00  0.00    -0.249 OA
ATOM      7  N   UNL     1      -3.074  -9.325  10.532  0.00  0.00    -0.187 NA
BRANCH   4   2
ATOM      1  C   UNL     1      -0.996 -10.102  11.706  0.00  0.00    +0.023 C 
ATOM      2  C   UNL     1      -1.027  -9.393  11.286  0.00  0.00    +0.097 C 
ATOM      3  C   UNL     1      -0.409  -8.850  11.348  0.00  0.00    +0.023 C 
ENDBRANCH   4   2
ENDBRANCH   8   7
ENDBRANCH   9   8
BRANCH  13  14
ATOM     14  C   UNL     1      -6.402  -9.006   8.765  0.00  0.00    +0.089 C 
BRANCH  14  15
ATOM     15  C   UNL     1      -7.170  -9.114   9.047  0.00  0.00    +0.226 C 
ATOM     16  O   UNL     1      -7.386  -9.831   9.393  0.00  0.00    -0.275 OA
ATOM     17  N   UNL     1      -7.722  -8.504   8.981  0.00  0.00    -0.276 N 
ATOM     18  C   UNL     1      -8.490  -8.612   9.262  0.00  0.00    +0.115 C 
ATOM     19  C   UNL     1      -9.042  -8.002   9.197  0.00  0.00    +0.114 C 
ATOM     20  N   UNL     1      -8.826  -7.285   8.850  0.00  0.00    -0.290 N 
ATOM     21  C   UNL     1      -8.058  -7.178   8.569  0.00  0.00    +0.114 C 
ATOM     22  C   UNL     1      -7.506  -7.787   8.635  0.00  0.00    +0.115 C 
ATOM     23  C   UNL     1      -9.379  -6.676   8.785  0.00  0.00    +0.132 A 
ATOM     24  N   UNL     1     -10.147  -6.783   9.066  0.00  0.00    -0.229 NA
ATOM     25  C   UNL     1     -10.699  -6.174   9.001  0.00  0.00    +0.100 A 
ATOM     26  C   UNL     1     -10.483  -5.456   8.654  0.00  0.00    +0.021 A 
ATOM     27  C   UNL     1      -9.715  -5.349   8.373  0.00  0.00    +0.004 A 
ATOM     28  C   UNL     1      -9.163  -5.958   8.438  0.00  0.00    +0.034 A 
ENDBRANCH  14  15
ENDBRANCH  13  14
TORSDOF 6
ENDMDL
MODEL 4
REMARK VINA RESULT:      -5.0     15.681     17.753
REMARK  Name = 
REMARK  6 active torsions:
REMARK  status: ('A' for Active; 'I' for Inactive)
REMARK    1  A    between atoms: C_2  and  N_4
REMARK    2  A    between atoms: N_7  and  C_8
REMARK    3  A    between atoms: C_8  and  C_9
REMARK    4  A    between atoms: C_13  and  C_14
REMARK    5  A    between atoms: C_14  and  C_15
REMARK    6  A    between atoms: C_30  and  C_31
REMARK                            x       y       z     vdW  Elec       q    Type
REMARK                         _______ _______ _______ _____ _____    ______ ____
ROOT
ATOM      9  C   UNL     1      -8.790  -9.890  15.298  0.00  0.00    +0.043 C 
ATOM     10  C   UNL     1      -8.002 -10.031  15.498  0.00  0.00    -0.033 C 
ATOM     11  C   UNL     1      -7.414  -9.979  14.923  0.00  0.00    -0.048 C 
ATOM     12  C   UNL     1      -6.626 -10.120  15.124  0.00  0.00    +0.026 C 
ATOM     13  C   UNL     1      -7.613  -9.787  14.146  0.00  0.00    +0.027 C 
ATOM     29  C   UNL     1      -8.400  -9.646  13.944  0.00  0.00    +0.005 C 
ATOM     30  C   UNL     1      -8.989  -9.698  14.520  0.00  0.00    +0.006 C 
ENDROOT
BRANCH  30  31
ATOM     31  C   UNL     1      -9.776  -9.557  14.319  0.00  0.00    +0.000 C 
ATOM     32  C   UNL     1     -10.077  -8.788  14.343  0.00  0.00    +0.000 C 
ATOM     33  C   UNL     1     -10.263 -10.183  14.092  0.00  0.00    +0.000 C 
ENDBRANCH  30  31
BRANCH   9   8
ATOM      8  C   UNL     1      -9.378  -9.942  15.873  0.00  0.00    +0.121 C 
BRANCH   8   7
ATOM      4  N   UNL     1      -9.526  -9.833  18.048  0.00  0.00    -0.189 NA
ATOM      5  C   UNL     1      -9.698 -10.021  17.263  0.00  0.00    +0.339 C 
ATOM      6  O   UNL     1     -10.362 -10.477  17.085  0.00  0.00    -0.249 OA
ATOM      7  N   UNL     1      -9.206  -9.754  16.658  0.00  0.00    -0.187 NA
BRANCH   4   2
ATOM      1  C   UNL     1     -10.707  -9.688  18.839  0.00  0.00    +0.023 C 
ATOM      2  C   UNL     1     -10.017 -10.100  18.654  0.00  0.00    +0.097 C 
ATOM      3  C   UNL     1      -9.819 -10.781  19.076  0.00  0.00    +0.023 C 
ENDBRANCH   4   2
ENDBRANCH   8   7
ENDBRANCH   9   8
BRANCH  13  14
ATOM     14  C   UNL     1      -7.024  -9.735  13.569  0.00  0.00    +0.089 C 
BRANCH  14  15
ATOM     15  C   UNL     1      -7.097 -10.162  12.867  0.00  0.00    +0.226 C 
ATOM     16  O   UNL     1      -7.641 -10.780  12.814  0.00  0.00    -0.275 OA
ATOM     17  N   UNL     1      -6.625  -9.970  12.217  0.00  0.00    -0.276 N 
ATOM     18  C   UNL     1      -6.697 -10.396  11.515  0.00  0.00    +0.115 C 
ATOM     19  C   UNL     1      -6.226 -10.204  10.866  0.00  0.00    +0.114 C 
ATOM     20  N   UNL     1      -5.682  -9.586  10.920  0.00  0.00    -0.290 N 
ATOM     21  C   UNL     1      -5.610  -9.160  11.622  0.00  0.00    +0.114 C 
ATOM     22  C   UNL     1      -6.081  -9.351  12.271  0.00  0.00    +0.115 C 
ATOM     23  C   UNL     1      -5.211  -9.394  10.270  0.00  0.00    +0.132 A 
ATOM     24  N   UNL     1      -5.282  -9.820   9.567  0.00  0.00    -0.229 NA
ATOM     25  C   UNL     1      -4.811  -9.628   8.918  0.00  0.00    +0.100 A 
ATOM     26  C   UNL     1      -4.267  -9.010   8.972  0.00  0.00    +0.021 A 
ATOM     27  C   UNL     1      -4.195  -8.584   9.674  0.00  0.00    +0.004 A 
ATOM     28  C   UNL     1      -4.666  -8.775  10.324  0.00  0.00    +0.034 A 
ENDBRANCH  14  15
ENDBRANCH  13  14
TORSDOF 6
ENDMDL
MODEL 5
REMARK VINA RESULT:      -4.9     15.371     17.265
REMARK  Name = 
REMARK  6 active torsions:
REMARK  status: ('A' for Active; 'I' for Inactive)
REMARK    1  A    between atoms: C_2  and  N_4
REMARK    2  A    between atoms: N_7  and  C_8
REMARK    3  A    between atoms: C_8  and  C_9
REMARK    4  A    between atoms: C_13  and  C_14
REMARK    5  A    between atoms: C_14  and  C_15
REMARK    6  A    between atoms: C_30  and  C_31
REMARK                            x       y       z     vdW  Elec       q    Type
REMARK                         _______ _______ _______ _____ _____    ______ ____
ROOT
ATOM      9  C   UNL     1      -6.972 -10.367  15.808  0.00  0.00    +0.043 C 
ATOM     10  C   UNL     1      -6.164 -10.490  15.692  0.00  0.00    -0.033 C 
ATOM     11  C   UNL     1      -5.855 -10.507  14.928  0.00  0.00    -0.048 C 
ATOM     12  C   UNL     1      -5.047 -10.629  14.812  0.00  0.00    +0.026 C 
ATOM     13  C   UNL     1      -6.353 -10.402  14.279  0.00  0.00    +0.027 C 
ATOM     29  C   UNL     1      -7.160 -10.280  14.393  0.00  0.00    +0.005 C 
ATOM     30  C   UNL     1      -7.470 -10.263  15.158  0.00  0.00    +0.006 C 
ENDROOT
BRANCH  30  31
ATOM     31  C   UNL     1      -8.278 -10.140  15.273  0.00  0.00    +0.000 C 
ATOM     32  C   UNL     1      -8.565  -9.377  15.402  0.00  0.00    +0.000 C 
ATOM     33  C   UNL     1      -8.798 -10.780  15.259  0.00  0.00    +0.000 C 
ENDBRANCH  30  31
BRANCH   9   8
ATOM      8  C   UNL     1      -7.282 -10.350  16.571  0.00  0.00    +0.121 C 
BRANCH   8   7
ATOM      4  N   UNL     1      -6.611 -10.762  18.608  0.00  0.00    -0.189 NA
ATOM      5  C   UNL     1      -7.049 -10.461  17.977  0.00  0.00    +0.339 C 
ATOM      6  O   UNL     1      -7.696  -9.969  18.122  0.00  0.00    -0.249 OA
ATOM      7  N   UNL     1      -6.843 -10.651  17.202  0.00  0.00    -0.187 NA
BRANCH   4   2
ATOM      1  C   UNL     1      -6.256 -10.246  19.892  0.00  0.00    +0.023 C 
ATOM      2  C   UNL     1      -6.817 -10.571  19.383  0.00  0.00    +0.097 C 
ATOM      3  C   UNL     1      -7.586 -10.706  19.649  0.00  0.00    +0.023 C 
ENDBRANCH   4   2
ENDBRANCH   8   7
ENDBRANCH   9   8
BRANCH  13  14
ATOM     14  C   UNL     1      -6.043 -10.419  13.513  0.00  0.00    +0.089 C 
BRANCH  14  15
ATOM     15  C   UNL     1      -6.036  -9.733  13.056  0.00  0.00    +0.226 C 
ATOM     16  O   UNL     1      -6.140  -8.997  13.415  0.00  0.00    -0.275 OA
ATOM     17  N   UNL     1      -5.925  -9.782  12.240  0.00  0.00    -0.276 N 
ATOM     18  C   UNL     1      -5.919  -9.096  11.783  0.00  0.00    +0.115 C 
ATOM     19  C   UNL     1      -5.808  -9.146  10.967  0.00  0.00    +0.114 C 
ATOM     20  N   UNL     1      -5.704  -9.882  10.608  0.00  0.00    -0.290 N 
ATOM     21  C   UNL     1      -5.711 -10.567  11.066  0.00  0.00    +0.114 C 
ATOM     22  C   UNL     1      -5.822 -10.518  11.881  0.00  0.00    +0.115 C 
ATOM     23  C   UNL     1      -5.593  -9.930   9.792  0.00  0.00    +0.132 A 
ATOM     24  N   UNL     1      -5.586  -9.244   9.334  0.00  0.00    -0.229 NA
ATOM     25  C   UNL     1      -5.476  -9.293   8.518  0.00  0.00    +0.100 A 
ATOM     26  C   UNL     1      -5.372 -10.030   8.159  0.00  0.00    +0.021 A 
ATOM     27  C   UNL     1      -5.379 -10.716   8.617  0.00  0.00    +0.004 A 
ATOM     28  C   UNL     1      -5.490 -10.667   9.433  0.00  0.00    +0.034 A 
ENDBRANCH  14  15
ENDBRANCH  13  14
TORSDOF 6
ENDMDL
MODEL 6
REMARK VINA RESULT:      -4.5     15.473     16.594
REMARK  Name = 
REMARK  6 active torsions:
REMARK  status: ('A' for Active; 'I' for Inactive)
REMARK    1  A    between atoms: C_2  and  N_4
REMARK    2  A    between atoms: N_7  and  C_8
REMARK    3  A    between atoms: C_8  and  C_9
REMARK    4  A    between atoms: C_13  and  C_14
REMARK    5  A    between atoms: C_14  and  C_15
REMARK    6  A    between atoms: C_30  and  C_31
REMARK                            x       y       z     vdW  Elec       q    Type
REMARK                         _______ _______ _______ _____ _____    ______ ____
ROOT
ATOM      9  C   UNL     1      -6.729  -9.949  12.427  0.00  0.00    +0.043 C 
ATOM     10  C   UNL     1      -6.213  -9.917  13.070  0.00  0.00    -0.033 C 
ATOM     11  C   UNL     1      -6.507  -9.954  13.839  0.00  0.00    -0.048 C 
ATOM     12  C   UNL     1      -5.990  -9.921  14.481  0.00  0.00    +0.026 C 
ATOM     13  C   UNL     1      -7.319 -10.023  13.966  0.00  0.00    +0.027 C 
ATOM     29  C   UNL     1      -7.837 -10.055  13.325  0.00  0.00    +0.005 C 
ATOM     30  C   UNL     1      -7.542 -10.019  12.555  0.00  0.00    +0.006 C 
ENDROOT
BRANCH  30  31
ATOM     31  C   UNL     1      -8.059 -10.051  11.913  0.00  0.00    +0.000 C 
ATOM     32  C   UNL     1      -8.310  -9.353  11.550  0.00  0.00    +0.000 C 
ATOM     33  C   UNL     1      -8.327 -10.780  11.635  0.00  0.00    +0.000 C 
ENDBRANCH  30  31
BRANCH   9   8
ATOM      8  C   UNL     1      -6.435  -9.913  11.658  0.00  0.00    +0.121 C 
BRANCH   8   7
ATOM      4  N   UNL     1      -4.534  -9.579  10.637  0.00  0.00    -0.189 NA
ATOM      5  C   UNL     1      -5.326  -9.770  10.768  0.00  0.00    +0.339 C 
ATOM      6  O   UNL     1      -5.801 -10.010  10.138  0.00  0.00    -0.249 OA
ATOM      7  N   UNL     1      -5.643  -9.721  11.527  0.00  0.00    -0.187 NA
BRANCH   4   2
ATOM      1  C   UNL     1      -3.932 -10.348   9.595  0.00  0.00    +0.023 C 
ATOM      2  C   UNL     1      -4.217  -9.627   9.878  0.00  0.00    +0.097 C 
ATOM      3  C   UNL     1      -4.186  -8.956   9.400  0.00  0.00    +0.023 C 
ENDBRANCH   4   2
ENDBRANCH   8   7
ENDBRANCH   9   8
BRANCH  13  14
ATOM     14  C   UNL     1      -7.614 -10.060  14.737  0.00  0.00    +0.089 C 
BRANCH  14  15
ATOM     15  C   UNL     1      -8.156  -9.495  14.998  0.00  0.00    +0.226 C 
ATOM     16  O   UNL     1      -8.301  -8.821  14.544  0.00  0.00    -0.275 OA
ATOM     17  N   UNL     1      -8.552  -9.603  15.714  0.00  0.00    -0.276 N 
ATOM     18  C   UNL     1      -9.093  -9.038  15.975  0.00  0.00    +0.115 C 
ATOM     19  C   UNL     1      -9.489  -9.147  16.690  0.00  0.00    +0.114 C 
ATOM     20  N   UNL     1      -9.344  -9.821  17.144  0.00  0.00    -0.290 N 
ATOM     21  C   UNL     1      -8.803 -10.385  16.882  0.00  0.00    +0.114 C 
ATOM     22  C   UNL     1      -8.407 -10.277  16.167  0.00  0.00    +0.115 C 
ATOM     23  C   UNL     1      -9.741  -9.929  17.859  0.00  0.00    +0.132 A 
ATOM     24  N   UNL     1     -10.282  -9.364  18.121  0.00  0.00    -0.229 NA
ATOM     25  C   UNL     1     -10.678  -9.472  18.836  0.00  0.00    +0.100 A 
ATOM     26  C   UNL     1     -10.533 -10.146  19.291  0.00  0.00    +0.021 A 
ATOM     27  C   UNL     1      -9.992 -10.711  19.029  0.00  0.00    +0.004 A 
ATOM     28  C   UNL     1      -9.596 -10.603  18.314  0.00  0.00    +0.034 A 
ENDBRANCH  14  15
ENDBRANCH  13  14
TORSDOF 6
ENDMDL
MODEL 7
REMARK VINA RESULT:      -4.3     14.626     15.578
REMARK  Name = 
REMARK  6 active torsions:
REMARK  status: ('A' for Active; 'I' for Inactive)
REMARK    1  A    between atoms: C_2  and  N_4
REMARK    2  A    between atoms: N_7  and  C_8
REMARK    3  A    between atoms: C_8  and  C_9
REMARK    4  A    between atoms: C_13  and  C_14
REMARK    5  A    between atoms: C_14  and  C_15
REMARK    6  A    between atoms: C_30  and  C_31
REMARK                            x       y       z     vdW  Elec       q    Type
REMARK                         _______ _______ _______ _____ _____    ______ ____
ROOT
ATOM      9  C   UNL     1      -4.456 -10.443  13.770  0.00  0.00    +0.043 C 
ATOM     10  C   UNL     1      -4.077 -10.571  14.492  0.00  0.00    -0.033 C 
ATOM     11  C   UNL     1      -4.521 -10.651  15.183  0.00  0.00    -0.048 C 
ATOM     12  C   UNL     1      -4.142 -10.779  15.905  0.00  0.00    +0.026 C 
ATOM     13  C   UNL     1      -5.344 -10.603  15.152  0.00  0.00    +0.027 C 
ATOM     29  C   UNL     1      -5.724 -10.475  14.432  0.00  0.00    +0.005 C 
ATOM     30  C   UNL     1      -5.279 -10.395  13.740  0.00  0.00    +0.006 C 
ENDROOT
BRANCH  30  31
ATOM     31  C   UNL     1      -5.659 -10.267  13.019  0.00  0.00    +0.000 C 
ATOM     32  C   UNL     1      -6.168  -9.623  12.931  0.00  0.00    +0.000 C 
ATOM     33  C   UNL     1      -5.531 -10.781  12.387  0.00  0.00    +0.000 C 
ENDBRANCH  30  31
BRANCH   9   8
ATOM      8  C   UNL     1      -4.013 -10.363  13.080  0.00  0.00    +0.121 C 
BRANCH   8   7
ATOM      4  N   UNL     1      -1.975  -9.837  12.502  0.00  0.00    -0.189 NA
ATOM      5  C   UNL     1      -2.741 -10.142  12.469  0.00  0.00    +0.339 C 
ATOM      6  O   UNL     1      -2.999 -10.532  11.789  0.00  0.00    -0.249 OA
ATOM      7  N   UNL     1      -3.247 -10.057  13.113  0.00  0.00    -0.187 NA
BRANCH   4   2
ATOM      1  C   UNL     1      -1.500  -9.383  11.233  0.00  0.00    +0.023 C 
ATOM      2  C   UNL     1      -1.468  -9.921  11.857  0.00  0.00    +0.097 C 
ATOM      3  C   UNL     1      -0.928 -10.545  11.836  0.00  0.00    +0.023 C 
ENDBRANCH   4   2
ENDBRANCH   8   7
ENDBRANCH   9   8
BRANCH  13  14
ATOM     14  C   UNL     1      -5.788 -10.683  15.844  0.00  0.00    +0.089 C 
BRANCH  14  15
ATOM     15  C   UNL     1      -6.089 -10.013  16.219  0.00  0.00    +0.226 C 
ATOM     16  O   UNL     1      -5.623  -9.337  16.295  0.00  0.00    -0.275 OA
ATOM     17  N   UNL     1      -6.859 -10.020  16.519  0.00  0.00    -0.276 N 
ATOM     18  C   UNL     1      -7.160  -9.351  16.895  0.00  0.00    +0.115 C 
ATOM     19  C   UNL     1      -7.929  -9.358  17.194  0.00  0.00    +0.114 C 
ATOM     20  N   UNL     1      -8.395 -10.034  17.119  0.00  0.00    -0.290 N 
ATOM     21  C   UNL     1      -8.093 -10.703  16.743  0.00  0.00    +0.114 C 
ATOM     22  C   UNL     1      -7.325 -10.697  16.444  0.00  0.00    +0.115 C 
ATOM     23  C   UNL     1      -9.164 -10.041  17.419  0.00  0.00    +0.132 A 
ATOM     24  N   UNL     1      -9.466  -9.371  17.795  0.00  0.00    -0.229 NA
ATOM     25  C   UNL     1     -10.234  -9.378  18.094  0.00  0.00    +0.100 A 
ATOM     26  C   UNL     1     -10.701 -10.055  18.019  0.00  0.00    +0.021 A 
ATOM     27  C   UNL     1     -10.399 -10.724  17.643  0.00  0.00    +0.004 A 
ATOM     28  C   UNL     1      -9.630 -10.718  17.343  0.00  0.00    +0.034 A 
ENDBRANCH  14  15
ENDBRANCH  13  14
TORSDOF 6
ENDMDL
MODEL 8
REMARK VINA RESULT:      -4.0     15.028     17.393
REMARK  Name = 
REMARK  6 active torsions:
REMARK  status: ('A' for Active; 'I' for Inactive)
REMARK    1  A    between atoms: C_2  and  N_4
REMARK    2  A    between atoms: N_7  and  C_8
REMARK    3  A    between atoms: C_8  and  C_9
REMARK    4  A    between atoms: C_13  and  C_14
REMARK    5  A    between atoms: C_14  and  C_15
REMARK    6  A    between atoms: C_30  and  C_31
REMARK                            x       y       z     vdW  Elec       q    Type
REMARK                         _______ _______ _______ _____ _____    ______ ____
ROOT
ATOM      9  C   UNL     1      -8.342  -9.766  14.883  0.00  0.00    +0.043 C 
ATOM     10  C   UNL     1      -7.624  -9.757  15.291  0.00  0.00    -0.033 C 
ATOM     11  C   UNL     1      -6.928  -9.973  14.907  0.00  0.00    -0.048 C 
ATOM     12  C   UNL     1      -6.211  -9.963  15.315  0.00  0.00    +0.026 C 
ATOM     13  C   UNL     1      -6.948 -10.200  14.114  0.00  0.00    +0.027 C 
ATOM     29  C   UNL     1      -7.664 -10.210  13.705  0.00  0.00    +0.005 C 
ATOM     30  C   UNL     1      -8.361  -9.993  14.090  0.00  0.00    +0.006 C 
ENDROOT
BRANCH  30  31
ATOM     31  C   UNL     1      -9.078 -10.003  13.681  0.00  0.00    +0.000 C 
ATOM     32  C   UNL     1      -9.583 -10.652  13.750  0.00  0.00    +0.000 C 
ATOM     33  C   UNL     1      -9.289  -9.364  13.203  0.00  0.00    +0.000 C 
ENDBRANCH  30  31
BRANCH   9   8
ATOM      8  C   UNL     1      -9.038  -9.550  15.267  0.00  0.00    +0.121 C 
BRANCH   8   7
ATOM      4  N   UNL     1      -9.672  -8.400  17.011  0.00  0.00    -0.189 NA
ATOM      5  C   UNL     1      -9.704  -8.852  16.322  0.00  0.00    +0.339 C 
ATOM      6  O   UNL     1     -10.434  -9.060  15.999  0.00  0.00    -0.249 OA
ATOM      7  N   UNL     1      -9.007  -9.097  15.956  0.00  0.00    -0.187 NA
BRANCH   4   2
ATOM      1  C   UNL     1     -10.717  -8.625  17.959  0.00  0.00    +0.023 C 
ATOM      2  C   UNL     1     -10.369  -8.155  17.377  0.00  0.00    +0.097 C 
ATOM      3  C   UNL     1     -10.719  -7.440  17.161  0.00  0.00    +0.023 C 
ENDBRANCH   4   2
ENDBRANCH   8   7
ENDBRANCH   9   8
BRANCH  13  14
ATOM     14  C   UNL     1      -6.250 -10.416  13.728  0.00  0.00    +0.089 C 
BRANCH  14  15
ATOM     15  C   UNL     1      -6.056 -10.073  13.004  0.00  0.00    +0.226 C 
ATOM     16  O   UNL     1      -6.641  -9.713  12.547  0.00  0.00    -0.275 OA
ATOM     17  N   UNL     1      -5.275 -10.090  12.736  0.00  0.00    -0.276 N 
ATOM     18  C   UNL     1      -5.081  -9.747  12.011  0.00  0.00    +0.115 C 
ATOM     19  C   UNL     1      -4.301  -9.765  11.744  0.00  0.00    +0.114 C 
ATOM     20  N   UNL     1      -3.716 -10.125  12.200  0.00  0.00    -0.290 N 
ATOM     21  C   UNL     1      -3.911 -10.467  12.924  0.00  0.00    +0.114 C 
ATOM     22  C   UNL     1      -4.690 -10.451  13.192  0.00  0.00    +0.115 C 
ATOM     23  C   UNL     1      -2.936 -10.141  11.932  0.00  0.00    +0.132 A 
ATOM     24  N   UNL     1      -2.740  -9.798  11.207  0.00  0.00    -0.229 NA
ATOM     25  C   UNL     1      -1.961  -9.815  10.939  0.00  0.00    +0.100 A 
ATOM     26  C   UNL     1      -1.375 -10.176  11.396  0.00  0.00    +0.021 A 
ATOM     27  C   UNL     1      -1.570 -10.519  12.120  0.00  0.00    +0.004 A 
ATOM     28  C   UNL     1      -2.350 -10.502  12.389  0.00  0.00    +0.034 A 
ENDBRANCH  14  15
ENDBRANCH  13  14
TORSDOF 6
ENDMDL
MODEL 9
REMARK VINA RESULT:      -3.9     15.854     17.187
REMARK  Name = 
REMARK  6 active torsions:
REMARK  status: ('A' for Active; 'I' for Inactive)
REMARK    1  A    between atoms: C_2  and  N_4
REMARK    2  A    between atoms: N_7  and  C_8
REMARK    3  A    between atoms: C_8  and  C_9
REMARK    4  A    between atoms: C_13  and  C_14
REMARK    5  A    between atoms: C_14  and  C_15
REMARK    6  A    between atoms: C_30  and  C_31
REMARK                            x       y       z     vdW  Elec       q    Type
REMARK                         _______ _______ _______ _____ _____    ______ ____
ROOT
ATOM      9  C   UNL     1      -5.428 -10.296  14.129  0.00  0.00    +0.043 C 
ATOM     10  C   UNL     1      -4.983 -10.364  13.437  0.00  0.00    -0.033 C 
ATOM     11  C   UNL     1      -5.329 -10.207  12.706  0.00  0.00    -0.048 C 
ATOM     12  C   UNL     1      -4.883 -10.275  12.015  0.00  0.00    +0.026 C 
ATOM     13  C   UNL     1      -6.121  -9.980  12.665  0.00  0.00    +0.027 C 
ATOM     29  C   UNL     1      -6.567  -9.911  13.355  0.00  0.00    +0.005 C 
ATOM     30  C   UNL     1      -6.220 -10.069  14.088  0.00  0.00    +0.006 C 
ENDROOT
BRANCH  30  31
ATOM     31  C   UNL     1      -6.666 -10.000  14.778  0.00  0.00    +0.000 C 
ATOM     32  C   UNL     1      -6.733  -9.268  15.154  0.00  0.00    +0.000 C 
ATOM     33  C   UNL     1      -7.046 -10.662  15.093  0.00  0.00    +0.000 C 
ENDBRANCH  30  31
BRANCH   9   8
ATOM      8  C   UNL     1      -5.082 -10.453  14.860  0.00  0.00    +0.121 C 
BRANCH   8   7
ATOM      4  N   UNL     1      -3.063 -10.779  15.626  0.00  0.00    -0.189 NA
ATOM      5  C   UNL     1      -3.853 -10.543  15.584  0.00  0.00    +0.339 C 
ATOM      6  O   UNL     1      -4.203 -10.162  16.226  0.00  0.00    -0.249 OA
ATOM      7  N   UNL     1      -4.292 -10.689  14.902  0.00  0.00    -0.187 NA
BRANCH   4   2
ATOM      1  C   UNL     1      -2.969 -10.736  17.051  0.00  0.00    +0.023 C 
ATOM      2  C   UNL     1      -2.624 -10.634  16.308  0.00  0.00    +0.097 C 
ATOM      3  C   UNL     1      -1.840 -10.386  16.248  0.00  0.00    +0.023 C 
ENDBRANCH   4   2
ENDBRANCH   8   7
ENDBRANCH   9   8
BRANCH  13  14
ATOM     14  C   UNL     1      -6.468  -9.823  11.933  0.00  0.00    +0.089 C 
BRANCH  14  15
ATOM     15  C   UNL     1      -7.251 -10.040  11.793  0.00  0.00    +0.226 C 
ATOM     16  O   UNL     1      -7.585 -10.671  12.207  0.00  0.00    -0.275 OA
ATOM     17  N   UNL     1      -7.701  -9.626  11.238  0.00  0.00    -0.276 N 
ATOM     18  C   UNL     1      -8.484  -9.844  11.098  0.00  0.00    +0.115 C 
ATOM     19  C   UNL     1      -8.933  -9.430  10.543  0.00  0.00    +0.114 C 
ATOM     20  N   UNL     1      -8.599  -8.799  10.129  0.00  0.00    -0.290 N 
ATOM     21  C   UNL     1      -7.816  -8.582  10.269  0.00  0.00    +0.114 C 
ATOM     22  C   UNL     1      -7.367  -8.996  10.823  0.00  0.00    +0.115 C 
ATOM     23  C   UNL     1      -9.050  -8.386   9.574  0.00  0.00    +0.132 A 
ATOM     24  N   UNL     1      -9.833  -8.603   9.433  0.00  0.00    -0.229 NA
ATOM     25  C   UNL     1     -10.283  -8.190   8.879  0.00  0.00    +0.100 A 
ATOM     26  C   UNL     1      -9.948  -7.558   8.465  0.00  0.00    +0.021 A 
ATOM     27  C   UNL     1      -9.165  -7.341   8.605  0.00  0.00    +0.004 A 
ATOM     28  C   UNL     1      -8.715  -7.755   9.160  0.00  0.00    +0.034 A 
ENDBRANCH  14  15
ENDBRANCH  13  14
TORSDOF 6
ENDMDL
MODEL 10
REMARK VINA RESULT:      -3.8     14.512     15.757
REMARK  Name = 
REMARK  6 active torsions:
REMARK  status: ('A' for Active; 'I' for Inactive)
REMARK    1  A    between atoms: C_2  and  N_4
REMARK    2  A    between atoms: N_7  and  C_8
REMARK    3  A    between atoms: C_8  and  C_9
REMARK    4  A    between atoms: C_13  and  C_14
REMARK    5  A    between atoms: C_14  and  C_15
REMARK    6  A    between atoms: C_30  and  C_31
REMARK                            x       y       z     vdW  Elec       q    Type
REMARK                         _______ _______ _______ _____ _____    ______ ____
ROOT
ATOM      9  C   UNL     1      -2.243 -10.074  12.059  0.00  0.00    +0.043 C 
ATOM     10  C   UNL     1      -1.962 -10.162  12.830  0.00  0.00    -0.033 C 
ATOM     11  C   UNL     1      -2.477 -10.384  13.434  0.00  0.00    -0.048 C 
ATOM     12  C   UNL     1      -2.196 -10.472  14.205  0.00  0.00    +0.026 C 
ATOM     13  C   UNL     1      -3.274 -10.518  13.268  0.00  0.00    +0.027 C 
ATOM     29  C   UNL     1      -3.556 -10.431  12.498  0.00  0.00    +0.005 C 
ATOM     30  C   UNL     1      -3.040 -10.209  11.893  0.00  0.00    +0.006 C 
ENDROOT
BRANCH  30  31
ATOM     31  C   UNL     1      -3.322 -10.121  11.123  0.00  0.00    +0.000 C 
ATOM     32  C   UNL     1      -3.389 -10.781  10.631  0.00  0.00    +0.000 C 
ATOM     33  C   UNL     1      -3.536  -9.375  10.844  0.00  0.00    +0.000 C 
ENDBRANCH  30  31
BRANCH   9   8
ATOM      8  C   UNL     1      -1.728  -9.853  11.455  0.00  0.00    +0.121 C 
BRANCH   8   7
ATOM      4  N   UNL     1       0.374  -9.265  11.412  0.00  0.00    -0.189 NA
ATOM      5  C   UNL     1      -0.441  -9.255  11.285  0.00  0.00    +0.339 C 
ATOM      6  O   UNL     1      -0.784  -8.637  10.861  0.00  0.00    -0.249 OA
ATOM      7  N   UNL     1      -0.913  -9.863  11.582  0.00  0.00    -0.187 NA
BRANCH   4   2
ATOM      1  C   UNL     1       1.262  -8.764  10.411  0.00  0.00    +0.023 C 
ATOM      2  C   UNL     1       0.846  -8.658  11.116  0.00  0.00    +0.097 C 
ATOM      3  C   UNL     1       0.903  -7.943  11.523  0.00  0.00    +0.023 C 
ENDBRANCH   4   2
ENDBRANCH   8   7
ENDBRANCH   9   8
BRANCH  13  14
ATOM     14  C   UNL     1      -3.790 -10.740  13.874  0.00  0.00    +0.089 C 
BRANCH  14  15
ATOM     15  C   UNL     1      -4.533 -10.385  13.932  0.00  0.00    +0.226 C 
ATOM     16  O   UNL     1      -4.890 -10.061  13.263  0.00  0.00    -0.275 OA
ATOM     17  N   UNL     1      -4.918 -10.355  14.662  0.00  0.00    -0.276 N 
ATOM     18  C   UNL     1      -5.660 -10.000  14.721  0.00  0.00    +0.115 C 
ATOM     19  C   UNL     1      -6.045  -9.970  15.450  0.00  0.00    +0.114 C 
ATOM     20  N   UNL     1      -5.688 -10.294  16.119  0.00  0.00    -0.290 N 
ATOM     21  C   UNL     1      -4.946 -10.648  16.059  0.00  0.00    +0.114 C 
ATOM     22  C   UNL     1      -4.561 -10.679  15.331  0.00  0.00    +0.115 C 
ATOM     23  C   UNL     1      -6.074 -10.263  16.848  0.00  0.00    +0.132 A 
ATOM     24  N   UNL     1      -6.817  -9.908  16.908  0.00  0.00    -0.229 NA
ATOM     25  C   UNL     1      -7.202  -9.877  17.636  0.00  0.00    +0.100 A 
ATOM     26  C   UNL     1      -6.844 -10.202  18.306  0.00  0.00    +0.021 A 
ATOM     27  C   UNL     1      -6.102 -10.556  18.247  0.00  0.00    +0.004 A 
ATOM     28  C   UNL     1      -5.716 -10.587  17.518  0.00  0.00    +0.034 A 
ENDBRANCH  14  15
ENDBRANCH  13  14
TORSDOF 6
ENDMDL
