MODEL 1
REMARK VINA RESULT:      -9.1      0.000      0.000
REMARK  Name = 
REMARK  4 active torsions:
REMARK  status: ('A' for Active; 'I' for Inactive)
REMARK    1  A    between atoms: S_2  and  N_5
REMARK    2  A    between atoms: N_5  and  C_6
REMARK    3  A    between atoms: C_9  and  C_12
REMARK    4  A    between atoms: CA_18  and  C_19
REMARK                            x       y       z     vdW  Elec       q    Type
REMARK                         _______ _______ _______ _____ _____    ______ ____
ROOT
ATOM      6  C   UNL     1      -4.235   1.837  24.456  0.00  0.00    +0.091 A 
ATOM      7  C   UNL     1      -4.683   1.355  24.953  0.00  0.00    +0.018 A 
ATOM      8  C   UNL     1      -4.574   0.538  24.943  0.00  0.00    -0.001 A 
ATOM      9  C   UNL     1      -4.016   0.201  24.437  0.00  0.00    +0.006 A 
ATOM     10  C   UNL     1      -3.568   0.684  23.939  0.00  0.00    -0.001 A 
ATOM     11  C   UNL     1      -3.677   1.501  23.948  0.00  0.00    +0.018 A 
ENDROOT
BRANCH   9  12
ATOM     12  C   UNL     1      -3.907  -0.615  24.427  0.00  0.00    +0.160 C 
ATOM     13  O   UNL     1      -4.357  -1.086  23.921  0.00  0.00    -0.341 OA
ATOM     14  C   UNL     1      -4.248  -1.904  23.912  0.00  0.00    +0.229 C 
ATOM     15  C   UNL     1      -3.688  -2.251  24.408  0.00  0.00    +0.272 C 
ATOM     16  O   UNL     1      -3.579  -3.069  24.399  0.00  0.00    -0.271 OA
ATOM     17  N   UNL     1      -3.237  -1.780  24.915  0.00  0.00    -0.199 NA
ATOM     18  CA  UNL     1      -3.347  -0.963  24.924  0.00  0.00    +0.159 C 
BRANCH  18  19
ATOM     19  C   UNL     1      -2.896  -0.492  25.431  0.00  0.00    +0.206 C 
ATOM     20  O   UNL     1      -2.320  -0.835  25.909  0.00  0.00    -0.218 OA
ENDBRANCH  18  19
ENDBRANCH   9  12
BRANCH   6   5
ATOM      5  N   UNL     1      -4.345   2.655  24.465  0.00  0.00    -0.101 NA
BRANCH   5   2
ATOM      1  C   UNL     1      -3.538   3.582  25.567  0.00  0.00    +0.202 C 
ATOM      2  S   UNL     1      -3.941   3.119  25.016  0.00  0.00    +0.075 S 
ATOM      3  O   UNL     1      -4.573   3.044  25.542  0.00  0.00    -0.153 OA
ATOM      4  O   UNL     1      -3.310   3.193  24.490  0.00  0.00    -0.153 OA
ENDBRANCH   5   2
ENDBRANCH   6   5
TORSDOF 4
ENDMDL
MODEL 2
REMARK VINA RESULT:      -8.9      1.614      4.097
REMARK  Name = 
REMARK  4 active torsions:
REMARK  status: ('A' for Active; 'I' for Inactive)
REMARK    1  A    between atoms: S_2  and  N_5
REMARK    2  A    between atoms: N_5  and  C_6
REMARK    3  A    between atoms: C_9  and  C_12
REMARK    4  A    between atoms: CA_18  and  C_19
REMARK                            x       y       z     vdW  Elec       q    Type
REMARK                         _______ _______ _______ _____ _____    ______ ____
ROOT
ATOM      6  C   UNL     1      -3.704  -1.471  24.959  0.00  0.00    +0.091 A 
ATOM      7  C   UNL     1      -4.096  -1.173  24.298  0.00  0.00    +0.018 A 
ATOM      8  C   UNL     1      -4.348  -0.388  24.288  0.00  0.00    -0.001 A 
ATOM      9  C   UNL     1      -4.208   0.100  24.938  0.00  0.00    +0.006 A 
ATOM     10  C   UNL     1      -3.816  -0.199  25.600  0.00  0.00    -0.001 A 
ATOM     11  C   UNL     1      -3.563  -0.984  25.611  0.00  0.00    +0.018 A 
ENDROOT
BRANCH   9  12
ATOM     12  C   UNL     1      -4.460   0.884  24.928  0.00  0.00    +0.160 C 
ATOM     13  O   UNL     1      -5.198   1.085  25.237  0.00  0.00    -0.341 OA
ATOM     14  C   UNL     1      -5.450   1.871  25.227  0.00  0.00    +0.229 C 
ATOM     15  C   UNL     1      -4.965   2.455  24.907  0.00  0.00    +0.272 C 
ATOM     16  O   UNL     1      -5.217   3.242  24.896  0.00  0.00    -0.271 OA
ATOM     17  N   UNL     1      -4.226   2.255  24.597  0.00  0.00    -0.199 NA
ATOM     18  CA  UNL     1      -3.974   1.470  24.607  0.00  0.00    +0.159 C 
BRANCH  18  19
ATOM     19  C   UNL     1      -3.236   1.269  24.297  0.00  0.00    +0.206 C 
ATOM     20  O   UNL     1      -2.751   1.853  23.976  0.00  0.00    -0.218 OA
ENDBRANCH  18  19
ENDBRANCH   9  12
BRANCH   6   5
ATOM      5  N   UNL     1      -3.451  -2.257  24.970  0.00  0.00    -0.101 NA
BRANCH   5   2
ATOM      1  C   UNL     1      -2.029  -2.676  24.245  0.00  0.00    +0.202 C 
ATOM      2  S   UNL     1      -2.740  -2.467  24.607  0.00  0.00    +0.075 S 
ATOM      3  O   UNL     1      -2.324  -2.197  25.267  0.00  0.00    -0.153 OA
ATOM      4  O   UNL     1      -3.156  -2.736  23.947  0.00  0.00    -0.153 OA
ENDBRANCH   5   2
ENDBRANCH   6   5
TORSDOF 4
ENDMDL
