MODEL 1
REMARK VINA RESULT:      -9.4      0.000      0.000
REMARK  Name = 
REMARK  7 active torsions:
REMARK  status: ('A' for Active; 'I' for Inactive)
REMARK    1  A    between atoms: C_4  and  C_6
REMARK    2  A    between atoms: C_6  and  N_7
REMARK    3  A    between atoms: C_8  and  C_9
REMARK    4  A    between atoms: C_11  and  C_16
REMARK    5  A    between atoms: C_19  and  N_20
REMARK    6  A    between atoms: N_20  and  S_21
REMARK    7  A    between atoms: S_21  and  C_24
REMARK                            x       y       z     vdW  Elec       q    Type
REMARK                         _______ _______ _______ _____ _____    ______ ____
ROOT
ATOM     16  C   UNL     1      -3.963   1.087  24.583  0.00  0.00    +0.006 A 
ATOM     17  C   UNL     1      -3.961   1.635  23.966  0.00  0.00    -0.001 A 
ATOM     18  C   UNL     1      -3.921   2.442  24.132  0.00  0.00    +0.018 A 
ATOM     19  C   UNL     1      -3.884   2.701  24.915  0.00  0.00    +0.091 A 
ATOM     31  C   UNL     1      -3.886   2.153  25.532  0.00  0.00    +0.018 A 
ATOM     32  C   UNL     1      -3.926   1.346  25.365  0.00  0.00    -0.001 A 
ENDROOT
BRANCH  16  11
ATOM      7  N   UNL     1      -3.351  -0.973  24.202  0.00  0.00    -0.265 N 
ATOM      8  C   UNL     1      -3.311  -0.167  24.368  0.00  0.00    +0.140 C 
ATOM     11  C   UNL     1      -4.003   0.279  24.416  0.00  0.00    +0.159 C 
ATOM     12  O   UNL     1      -4.736  -0.082  24.299  0.00  0.00    -0.341 OA
ATOM     13  C   UNL     1      -4.776  -0.889  24.133  0.00  0.00    +0.227 C 
ATOM     14  C   UNL     1      -4.083  -1.335  24.084  0.00  0.00    +0.256 C 
ATOM     15  O   UNL     1      -4.123  -2.142  23.918  0.00  0.00    -0.272 OA
BRANCH   8   9
ATOM      9  C   UNL     1      -2.578   0.195  24.485  0.00  0.00    +0.205 C 
ATOM     10  O   UNL     1      -2.086   0.349  23.842  0.00  0.00    -0.218 OA
ENDBRANCH   8   9
BRANCH   7   6
ATOM      6  C   UNL     1      -2.658  -1.419  24.153  0.00  0.00    +0.179 C 
BRANCH   6   4
ATOM      1  C   UNL     1      -1.574  -2.914  25.317  0.00  0.00    +0.115 C 
ATOM      2  N   UNL     1      -1.783  -2.406  24.701  0.00  0.00    -0.275 N 
ATOM      3  C   UNL     1      -1.322  -2.377  24.017  0.00  0.00    +0.115 C 
ATOM      4  C   UNL     1      -2.450  -1.928  24.769  0.00  0.00    +0.246 C 
ATOM      5  O   UNL     1      -2.911  -1.956  25.453  0.00  0.00    -0.273 OA
ENDBRANCH   6   4
ENDBRANCH   7   6
ENDBRANCH  16  11
BRANCH  19  20
ATOM     20  N   UNL     1      -3.844   3.508  25.081  0.00  0.00    -0.097 NA
BRANCH  20  21
ATOM     21  S   UNL     1      -3.116   3.897  25.071  0.00  0.00    +0.093 S 
ATOM     22  O   UNL     1      -3.213   4.057  24.268  0.00  0.00    -0.148 OA
ATOM     23  O   UNL     1      -3.019   3.736  25.875  0.00  0.00    -0.148 OA
BRANCH  21  24
ATOM     24  C   UNL     1      -2.388   4.285  25.061  0.00  0.00    +0.127 A 
ATOM     25  C   UNL     1      -2.360   5.108  25.114  0.00  0.00    +0.023 A 
ATOM     26  C   UNL     1      -1.632   5.496  25.104  0.00  0.00    +0.031 A 
ATOM     27  C   UNL     1      -0.933   5.062  25.040  0.00  0.00    +0.140 A 
ATOM     28  F   UNL     1      -0.206   5.450  25.030  0.00  0.00    -0.204 F 
ATOM     29  C   UNL     1      -0.963   4.239  24.987  0.00  0.00    +0.031 A 
ATOM     30  C   UNL     1      -1.690   3.851  24.997  0.00  0.00    +0.023 A 
ENDBRANCH  21  24
ENDBRANCH  20  21
ENDBRANCH  19  20
TORSDOF 7
ENDMDL
MODEL 2
REMARK VINA RESULT:      -9.3      2.563      5.862
REMARK  Name = 
REMARK  7 active torsions:
REMARK  status: ('A' for Active; 'I' for Inactive)
REMARK    1  A    between atoms: C_4  and  C_6
REMARK    2  A    between atoms: C_6  and  N_7
REMARK    3  A    between atoms: C_8  and  C_9
REMARK    4  A    between atoms: C_11  and  C_16
REMARK    5  A    between atoms: C_19  and  N_20
REMARK    6  A    between atoms: N_20  and  S_21
REMARK    7  A    between atoms: S_21  and  C_24
REMARK                            x       y       z     vdW  Elec       q    Type
REMARK                         _______ _______ _______ _____ _____    ______ ____
ROOT
ATOM     16  C   UNL     1      -1.049   1.507  25.039  0.00  0.00    +0.006 A 
ATOM     17  C   UNL     1      -1.150   1.057  25.723  0.00  0.00    -0.001 A 
ATOM     18  C   UNL     1      -1.027   0.241  25.702  0.00  0.00    +0.018 A 
ATOM     19  C   UNL     1      -0.802  -0.124  24.997  0.00  0.00    +0.091 A 
ATOM     31  C   UNL     1      -0.700   0.326  24.313  0.00  0.00    +0.018 A 
ATOM     32  C   UNL     1      -0.824   1.141  24.334  0.00  0.00    -0.001 A 
ENDROOT
BRANCH  16  11
ATOM      7  N   UNL     1      -2.040   3.447  24.908  0.00  0.00    -0.265 N 
ATOM      8  C   UNL     1      -1.917   2.632  24.887  0.00  0.00    +0.140 C 
ATOM     11  C   UNL     1      -1.172   2.323  25.060  0.00  0.00    +0.159 C 
ATOM     12  O   UNL     1      -0.550   2.828  25.255  0.00  0.00    -0.341 OA
ATOM     13  C   UNL     1      -0.673   3.644  25.276  0.00  0.00    +0.227 C 
ATOM     14  C   UNL     1      -1.418   3.954  25.102  0.00  0.00    +0.256 C 
ATOM     15  O   UNL     1      -1.541   4.769  25.124  0.00  0.00    -0.272 OA
BRANCH   8   9
ATOM      9  C   UNL     1      -2.538   2.125  24.693  0.00  0.00    +0.205 C 
ATOM     10  O   UNL     1      -2.770   2.039  23.906  0.00  0.00    -0.218 OA
ENDBRANCH   8   9
BRANCH   7   6
ATOM      6  C   UNL     1      -2.785   3.756  24.735  0.00  0.00    +0.179 C 
BRANCH   6   4
ATOM      1  C   UNL     1      -4.620   4.295  25.786  0.00  0.00    +0.115 C 
ATOM      2  N   UNL     1      -4.096   4.114  25.176  0.00  0.00    -0.275 N 
ATOM      3  C   UNL     1      -4.359   4.112  24.393  0.00  0.00    +0.115 C 
ATOM      4  C   UNL     1      -3.309   3.937  25.346  0.00  0.00    +0.246 C 
ATOM      5  O   UNL     1      -3.046   3.939  26.128  0.00  0.00    -0.273 OA
ENDBRANCH   6   4
ENDBRANCH   7   6
ENDBRANCH  16  11
BRANCH  19  20
ATOM     20  N   UNL     1      -0.679  -0.940  24.976  0.00  0.00    -0.097 NA
BRANCH  20  21
ATOM     21  S   UNL     1      -1.316  -1.451  24.863  0.00  0.00    +0.093 S 
ATOM     22  O   UNL     1      -1.433  -1.486  25.679  0.00  0.00    -0.148 OA
ATOM     23  O   UNL     1      -1.199  -1.416  24.047  0.00  0.00    -0.148 OA
BRANCH  21  24
ATOM     24  C   UNL     1      -1.954  -1.962  24.750  0.00  0.00    +0.127 A 
ATOM     25  C   UNL     1      -1.868  -2.628  24.269  0.00  0.00    +0.023 A 
ATOM     26  C   UNL     1      -2.505  -3.139  24.156  0.00  0.00    +0.031 A 
ATOM     27  C   UNL     1      -3.228  -2.985  24.523  0.00  0.00    +0.140 A 
ATOM     28  F   UNL     1      -3.865  -3.496  24.411  0.00  0.00    -0.204 F 
ATOM     29  C   UNL     1      -3.313  -2.320  25.004  0.00  0.00    +0.031 A 
ATOM     30  C   UNL     1      -2.675  -1.809  25.117  0.00  0.00    +0.023 A 
ENDBRANCH  21  24
ENDBRANCH  20  21
ENDBRANCH  19  20
TORSDOF 7
ENDMDL
MODEL 3
REMARK VINA RESULT:      -9.1      2.407      3.478
REMARK  Name = 
REMARK  7 active torsions:
REMARK  status: ('A' for Active; 'I' for Inactive)
REMARK    1  A    between atoms: C_4  and  C_6
REMARK    2  A    between atoms: C_6  and  N_7
REMARK    3  A    between atoms: C_8  and  C_9
REMARK    4  A    between atoms: C_11  and  C_16
REMARK    5  A    between atoms: C_19  and  N_20
REMARK    6  A    between atoms: N_20  and  S_21
REMARK    7  A    between atoms: S_21  and  C_24
REMARK                            x       y       z     vdW  Elec       q    Type
REMARK                         _______ _______ _______ _____ _____    ______ ____
ROOT
ATOM     16  C   UNL     1      -2.762  -0.349  24.759  0.00  0.00    +0.006 A 
ATOM     17  C   UNL     1      -3.130  -0.186  25.479  0.00  0.00    -0.001 A 
ATOM     18  C   UNL     1      -3.891   0.135  25.490  0.00  0.00    +0.018 A 
ATOM     19  C   UNL     1      -4.282   0.292  24.781  0.00  0.00    +0.091 A 
ATOM     31  C   UNL     1      -3.913   0.129  24.060  0.00  0.00    +0.018 A 
ATOM     32  C   UNL     1      -3.153  -0.191  24.050  0.00  0.00    -0.001 A 
ENDROOT
BRANCH  16  11
ATOM      7  N   UNL     1      -0.605  -0.533  24.480  0.00  0.00    -0.265 N 
ATOM      8  C   UNL     1      -1.364  -0.213  24.490  0.00  0.00    +0.140 C 
ATOM     11  C   UNL     1      -2.001  -0.669  24.749  0.00  0.00    +0.159 C 
ATOM     12  O   UNL     1      -1.878  -1.447  24.996  0.00  0.00    -0.341 OA
ATOM     13  C   UNL     1      -1.117  -1.767  24.986  0.00  0.00    +0.227 C 
ATOM     14  C   UNL     1      -0.481  -1.311  24.727  0.00  0.00    +0.256 C 
ATOM     15  O   UNL     1       0.279  -1.631  24.717  0.00  0.00    -0.272 OA
BRANCH   8   9
ATOM      9  C   UNL     1      -1.488   0.564  24.243  0.00  0.00    +0.205 C 
ATOM     10  O   UNL     1      -1.264   1.193  24.727  0.00  0.00    -0.218 OA
ENDBRANCH   8   9
BRANCH   7   6
ATOM      6  C   UNL     1       0.032  -0.077  24.221  0.00  0.00    +0.179 C 
BRANCH   6   4
ATOM      1  C   UNL     1       1.405   0.031  22.528  0.00  0.00    +0.115 C 
ATOM      2  N   UNL     1       1.043   0.198  23.250  0.00  0.00    -0.275 N 
ATOM      3  C   UNL     1       1.331   0.810  23.723  0.00  0.00    +0.115 C 
ATOM      4  C   UNL     1       0.394  -0.245  23.499  0.00  0.00    +0.246 C 
ATOM      5  O   UNL     1       0.107  -0.857  23.026  0.00  0.00    -0.273 OA
ENDBRANCH   6   4
ENDBRANCH   7   6
ENDBRANCH  16  11
BRANCH  19  20
ATOM     20  N   UNL     1      -5.042   0.613  24.791  0.00  0.00    -0.097 NA
BRANCH  20  21
ATOM     21  S   UNL     1      -5.151   1.412  24.964  0.00  0.00    +0.093 S 
ATOM     22  O   UNL     1      -4.957   1.607  24.186  0.00  0.00    -0.148 OA
ATOM     23  O   UNL     1      -5.345   1.218  25.742  0.00  0.00    -0.148 OA
BRANCH  21  24
ATOM     24  C   UNL     1      -5.260   2.211  25.137  0.00  0.00    +0.127 A 
ATOM     25  C   UNL     1      -5.855   2.442  25.660  0.00  0.00    +0.023 A 
ATOM     26  C   UNL     1      -5.964   3.242  25.832  0.00  0.00    +0.031 A 
ATOM     27  C   UNL     1      -5.478   3.810  25.482  0.00  0.00    +0.140 A 
ATOM     28  F   UNL     1      -5.587   4.608  25.655  0.00  0.00    -0.204 F 
ATOM     29  C   UNL     1      -4.884   3.578  24.959  0.00  0.00    +0.031 A 
ATOM     30  C   UNL     1      -4.774   2.778  24.787  0.00  0.00    +0.023 A 
ENDBRANCH  21  24
ENDBRANCH  20  21
ENDBRANCH  19  20
TORSDOF 7
ENDMDL
MODEL 4
REMARK VINA RESULT:      -9.0      1.822      2.662
REMARK  Name = 
REMARK  7 active torsions:
REMARK  status: ('A' for Active; 'I' for Inactive)
REMARK    1  A    between atoms: C_4  and  C_6
REMARK    2  A    between atoms: C_6  and  N_7
REMARK    3  A    between atoms: C_8  and  C_9
REMARK    4  A    between atoms: C_11  and  C_16
REMARK    5  A    between atoms: C_19  and  N_20
REMARK    6  A    between atoms: N_20  and  S_21
REMARK    7  A    between atoms: S_21  and  C_24
REMARK                            x       y       z     vdW  Elec       q    Type
REMARK                         _______ _______ _______ _____ _____    ______ ____
ROOT
ATOM     16  C   UNL     1      -0.681   0.298  24.961  0.00  0.00    +0.006 A 
ATOM     17  C   UNL     1      -0.311   0.793  24.415  0.00  0.00    -0.001 A 
ATOM     18  C   UNL     1      -0.075   1.552  24.641  0.00  0.00    +0.018 A 
ATOM     19  C   UNL     1      -0.211   1.813  25.412  0.00  0.00    +0.091 A 
ATOM     31  C   UNL     1      -0.582   1.317  25.958  0.00  0.00    +0.018 A 
ATOM     32  C   UNL     1      -0.817   0.559  25.731  0.00  0.00    -0.001 A 
ENDROOT
BRANCH  16  11
ATOM      7  N   UNL     1      -1.944  -1.372  24.342  0.00  0.00    -0.265 N 
ATOM      8  C   UNL     1      -1.710  -0.614  24.568  0.00  0.00    +0.140 C 
ATOM     11  C   UNL     1      -0.917  -0.461  24.735  0.00  0.00    +0.159 C 
ATOM     12  O   UNL     1      -0.358  -1.065  24.677  0.00  0.00    -0.341 OA
ATOM     13  C   UNL     1      -0.593  -1.824  24.451  0.00  0.00    +0.227 C 
ATOM     14  C   UNL     1      -1.387  -1.977  24.284  0.00  0.00    +0.256 C 
ATOM     15  O   UNL     1      -1.621  -2.734  24.058  0.00  0.00    -0.272 OA
BRANCH   8   9
ATOM      9  C   UNL     1      -2.268  -0.009  24.627  0.00  0.00    +0.205 C 
ATOM     10  O   UNL     1      -2.610   0.305  23.945  0.00  0.00    -0.218 OA
ENDBRANCH   8   9
BRANCH   7   6
ATOM      6  C   UNL     1      -2.738  -1.525  24.175  0.00  0.00    +0.179 C 
BRANCH   6   4
ATOM      1  C   UNL     1      -4.282  -2.938  24.793  0.00  0.00    +0.115 C 
ATOM      2  N   UNL     1      -3.864  -2.387  24.343  0.00  0.00    -0.275 N 
ATOM      3  C   UNL     1      -4.156  -2.148  23.609  0.00  0.00    +0.115 C 
ATOM      4  C   UNL     1      -3.156  -2.076  24.626  0.00  0.00    +0.246 C 
ATOM      5  O   UNL     1      -2.864  -2.314  25.360  0.00  0.00    -0.273 OA
ENDBRANCH   6   4
ENDBRANCH   7   6
ENDBRANCH  16  11
BRANCH  19  20
ATOM     20  N   UNL     1       0.024   2.571  25.638  0.00  0.00    -0.097 NA
BRANCH  20  21
ATOM     21  S   UNL     1      -0.481   3.213  25.520  0.00  0.00    +0.093 S 
ATOM     22  O   UNL     1      -0.800   3.100  26.273  0.00  0.00    -0.148 OA
ATOM     23  O   UNL     1      -0.162   3.326  24.768  0.00  0.00    -0.148 OA
BRANCH  21  24
ATOM     24  C   UNL     1      -0.986   3.854  25.402  0.00  0.00    +0.127 A 
ATOM     25  C   UNL     1      -0.708   4.534  25.026  0.00  0.00    +0.023 A 
ATOM     26  C   UNL     1      -1.213   5.175  24.908  0.00  0.00    +0.031 A 
ATOM     27  C   UNL     1      -1.996   5.137  25.167  0.00  0.00    +0.140 A 
ATOM     28  F   UNL     1      -2.501   5.778  25.049  0.00  0.00    -0.204 F 
ATOM     29  C   UNL     1      -2.273   4.457  25.543  0.00  0.00    +0.031 A 
ATOM     30  C   UNL     1      -1.768   3.816  25.661  0.00  0.00    +0.023 A 
ENDBRANCH  21  24
ENDBRANCH  20  21
ENDBRANCH  19  20
TORSDOF 7
ENDMDL
MODEL 5
REMARK VINA RESULT:      -9.0      2.202      5.489
REMARK  Name = 
REMARK  7 active torsions:
REMARK  status: ('A' for Active; 'I' for Inactive)
REMARK    1  A    between atoms: C_4  and  C_6
REMARK    2  A    between atoms: C_6  and  N_7
REMARK    3  A    between atoms: C_8  and  C_9
REMARK    4  A    between atoms: C_11  and  C_16
REMARK    5  A    between atoms: C_19  and  N_20
REMARK    6  A    between atoms: N_20  and  S_21
REMARK    7  A    between atoms: S_21  and  C_24
REMARK                            x       y       z     vdW  Elec       q    Type
REMARK                         _______ _______ _______ _____ _____    ______ ____
ROOT
ATOM     16  C   UNL     1      -3.980   1.771  24.965  0.00  0.00    +0.006 A 
ATOM     17  C   UNL     1      -4.285   1.209  25.486  0.00  0.00    -0.001 A 
ATOM     18  C   UNL     1      -4.483   0.456  25.211  0.00  0.00    +0.018 A 
ATOM     19  C   UNL     1      -4.376   0.266  24.416  0.00  0.00    +0.091 A 
ATOM     31  C   UNL     1      -4.070   0.829  23.894  0.00  0.00    +0.018 A 
ATOM     32  C   UNL     1      -3.873   1.581  24.170  0.00  0.00    -0.001 A 
ENDROOT
BRANCH  16  11
ATOM      7  N   UNL     1      -2.795   3.509  25.546  0.00  0.00    -0.265 N 
ATOM      8  C   UNL     1      -2.992   2.757  25.271  0.00  0.00    +0.140 C 
ATOM     11  C   UNL     1      -3.782   2.524  25.240  0.00  0.00    +0.159 C 
ATOM     12  O   UNL     1      -4.376   3.042  25.484  0.00  0.00    -0.341 OA
ATOM     13  C   UNL     1      -4.178   3.795  25.760  0.00  0.00    +0.227 C 
ATOM     14  C   UNL     1      -3.388   4.029  25.791  0.00  0.00    +0.256 C 
ATOM     15  O   UNL     1      -3.190   4.780  26.065  0.00  0.00    -0.272 OA
BRANCH   8   9
ATOM      9  C   UNL     1      -2.399   2.238  25.027  0.00  0.00    +0.205 C 
ATOM     10  O   UNL     1      -1.913   1.874  25.585  0.00  0.00    -0.218 OA
ENDBRANCH   8   9
BRANCH   7   6
ATOM      6  C   UNL     1      -2.004   3.743  25.577  0.00  0.00    +0.179 C 
BRANCH   6   4
ATOM      1  C   UNL     1      -0.647   5.104  24.544  0.00  0.00    +0.115 C 
ATOM      2  N   UNL     1      -0.925   4.520  25.055  0.00  0.00    -0.275 N 
ATOM      3  C   UNL     1      -0.399   4.126  25.556  0.00  0.00    +0.115 C 
ATOM      4  C   UNL     1      -1.726   4.328  25.065  0.00  0.00    +0.246 C 
ATOM      5  O   UNL     1      -2.251   4.721  24.565  0.00  0.00    -0.273 OA
ENDBRANCH   6   4
ENDBRANCH   7   6
ENDBRANCH  16  11
BRANCH  19  20
ATOM     20  N   UNL     1      -4.573  -0.486  24.140  0.00  0.00    -0.097 NA
BRANCH  20  21
ATOM     21  S   UNL     1      -4.035  -1.107  24.213  0.00  0.00    +0.093 S 
ATOM     22  O   UNL     1      -3.821  -1.015  23.422  0.00  0.00    -0.148 OA
ATOM     23  O   UNL     1      -4.249  -1.199  25.005  0.00  0.00    -0.148 OA
BRANCH  21  24
ATOM     24  C   UNL     1      -3.497  -1.728  24.286  0.00  0.00    +0.127 A 
ATOM     25  C   UNL     1      -3.768  -2.507  24.316  0.00  0.00    +0.023 A 
ATOM     26  C   UNL     1      -3.230  -3.128  24.389  0.00  0.00    +0.031 A 
ATOM     27  C   UNL     1      -2.421  -2.970  24.433  0.00  0.00    +0.140 A 
ATOM     28  F   UNL     1      -1.884  -3.591  24.506  0.00  0.00    -0.204 F 
ATOM     29  C   UNL     1      -2.151  -2.191  24.403  0.00  0.00    +0.031 A 
ATOM     30  C   UNL     1      -2.689  -1.570  24.330  0.00  0.00    +0.023 A 
ENDBRANCH  21  24
ENDBRANCH  20  21
ENDBRANCH  19  20
TORSDOF 7
ENDMDL
MODEL 6
REMARK VINA RESULT:      -8.4      2.087      3.084
REMARK  Name = 
REMARK  7 active torsions:
REMARK  status: ('A' for Active; 'I' for Inactive)
REMARK    1  A    between atoms: C_4  and  C_6
REMARK    2  A    between atoms: C_6  and  N_7
REMARK    3  A    between atoms: C_8  and  C_9
REMARK    4  A    between atoms: C_11  and  C_16
REMARK    5  A    between atoms: C_19  and  N_20
REMARK    6  A    between atoms: N_20  and  S_21
REMARK    7  A    between atoms: S_21  and  C_24
REMARK                            x       y       z     vdW  Elec       q    Type
REMARK                         _______ _______ _______ _____ _____    ______ ____
ROOT
ATOM     16  C   UNL     1      -1.198   1.887  24.495  0.00  0.00    +0.006 A 
ATOM     17  C   UNL     1      -1.589   2.338  23.926  0.00  0.00    -0.001 A 
ATOM     18  C   UNL     1      -2.025   3.001  24.153  0.00  0.00    +0.018 A 
ATOM     19  C   UNL     1      -2.070   3.212  24.949  0.00  0.00    +0.091 A 
ATOM     31  C   UNL     1      -1.679   2.760  25.519  0.00  0.00    +0.018 A 
ATOM     32  C   UNL     1      -1.243   2.098  25.291  0.00  0.00    -0.001 A 
ENDROOT
BRANCH  16  11
ATOM      7  N   UNL     1      -0.670  -0.188  24.069  0.00  0.00    -0.265 N 
ATOM      8  C   UNL     1      -1.105   0.474  24.296  0.00  0.00    +0.140 C 
ATOM     11  C   UNL     1      -0.762   1.224  24.268  0.00  0.00    +0.159 C 
ATOM     12  O   UNL     1       0.018   1.311  24.013  0.00  0.00    -0.341 OA
ATOM     13  C   UNL     1       0.454   0.648  23.785  0.00  0.00    +0.227 C 
ATOM     14  C   UNL     1       0.110  -0.101  23.813  0.00  0.00    +0.256 C 
ATOM     15  O   UNL     1       0.546  -0.763  23.586  0.00  0.00    -0.272 OA
BRANCH   8   9
ATOM      9  C   UNL     1      -1.885   0.388  24.551  0.00  0.00    +0.205 C 
ATOM     10  O   UNL     1      -2.486   0.251  24.004  0.00  0.00    -0.218 OA
ENDBRANCH   8   9
BRANCH   7   6
ATOM      6  C   UNL     1      -1.013  -0.937  24.097  0.00  0.00    +0.179 C 
BRANCH   6   4
ATOM      1  C   UNL     1      -1.008  -2.708  25.373  0.00  0.00    +0.115 C 
ATOM      2  N   UNL     1      -1.185  -2.196  24.751  0.00  0.00    -0.275 N 
ATOM      3  C   UNL     1      -1.711  -2.431  24.160  0.00  0.00    +0.115 C 
ATOM      4  C   UNL     1      -0.836  -1.450  24.719  0.00  0.00    +0.246 C 
ATOM      5  O   UNL     1      -0.310  -1.214  25.310  0.00  0.00    -0.273 OA
ENDBRANCH   6   4
ENDBRANCH   7   6
ENDBRANCH  16  11
BRANCH  19  20
ATOM     20  N   UNL     1      -2.506   3.874  25.177  0.00  0.00    -0.097 NA
BRANCH  20  21
ATOM     21  S   UNL     1      -3.320   3.812  25.296  0.00  0.00    +0.093 S 
ATOM     22  O   UNL     1      -3.195   3.736  26.108  0.00  0.00    -0.148 OA
ATOM     23  O   UNL     1      -3.445   3.889  24.484  0.00  0.00    -0.148 OA
BRANCH  21  24
ATOM     24  C   UNL     1      -4.134   3.750  25.416  0.00  0.00    +0.127 A 
ATOM     25  C   UNL     1      -4.624   4.394  25.255  0.00  0.00    +0.023 A 
ATOM     26  C   UNL     1      -5.438   4.332  25.375  0.00  0.00    +0.031 A 
ATOM     27  C   UNL     1      -5.762   3.626  25.654  0.00  0.00    +0.140 A 
ATOM     28  F   UNL     1      -6.575   3.564  25.773  0.00  0.00    -0.204 F 
ATOM     29  C   UNL     1      -5.271   2.983  25.814  0.00  0.00    +0.031 A 
ATOM     30  C   UNL     1      -4.457   3.045  25.695  0.00  0.00    +0.023 A 
ENDBRANCH  21  24
ENDBRANCH  20  21
ENDBRANCH  19  20
TORSDOF 7
ENDMDL
