MODEL 1
REMARK VINA RESULT:     -12.0      0.000      0.000
REMARK  Name = 
REMARK  7 active torsions:
REMARK  status: ('A' for Active; 'I' for Inactive)
REMARK    1  A    between atoms: C_2  and  C_3
REMARK    2  A    between atoms: C_8  and  C_9
REMARK    3  A    between atoms: C_9  and  C_10
REMARK    4  A    between atoms: N_12  and  C_13
REMARK    5  A    between atoms: C_13  and  C_14
REMARK    6  A    between atoms: C_17  and  O_18
REMARK    7  A    between atoms: C_22  and  C_24
REMARK                            x       y       z     vdW  Elec       q    Type
REMARK                         _______ _______ _______ _____ _____    ______ ____
ROOT
ATOM      3  C   UNL     1      -4.035   3.190  24.941  0.00  0.00    +0.020 C 
ATOM      4  C   UNL     1      -3.368   3.641  25.117  0.00  0.00    +0.094 C 
ATOM      5  N   UNL     1      -2.620   3.293  25.110  0.00  0.00    -0.276 N 
ATOM      6  C   UNL     1      -2.540   2.493  24.927  0.00  0.00    +0.094 C 
ATOM      7  C   UNL     1      -3.207   2.040  24.750  0.00  0.00    +0.022 C 
ATOM      8  C   UNL     1      -3.955   2.389  24.757  0.00  0.00    +0.012 C 
ATOM     22  C   UNL     1      -1.954   3.744  25.287  0.00  0.00    +0.249 C 
ATOM     23  O   UNL     1      -2.034   4.545  25.471  0.00  0.00    -0.270 OA
ENDROOT
BRANCH  22  24
ATOM     24  C   UNL     1      -1.205   3.396  25.280  0.00  0.00    +0.057 A 
ATOM     25  C   UNL     1      -0.887   3.089  25.978  0.00  0.00    +0.035 A 
ATOM     26  C   UNL     1      -0.139   2.741  25.971  0.00  0.00    +0.138 A 
ATOM     27 CL   UNL     1       0.180   2.434  26.668  0.00  0.00    -0.061 Cl
ATOM     28  N   UNL     1       0.291   2.699  25.267  0.00  0.00    -0.232 NA
ATOM     29  C   UNL     1      -0.028   3.005  24.571  0.00  0.00    +0.100 A 
ATOM     30  C   UNL     1      -0.776   3.354  24.578  0.00  0.00    +0.025 A 
ENDBRANCH  22  24
BRANCH   3   2
ATOM      1  C   UNL     1      -4.890   4.279  25.296  0.00  0.00    +0.000 C 
ATOM      2  C   UNL     1      -4.782   3.538  24.947  0.00  0.00    +0.002 C 
ENDBRANCH   3   2
BRANCH   8   9
ATOM      9  C   UNL     1      -4.622   1.938  24.580  0.00  0.00    +0.087 C 
BRANCH   9  10
ATOM     10  C   UNL     1      -4.757   1.227  24.979  0.00  0.00    +0.242 C 
ATOM     11  O   UNL     1      -5.174   1.226  25.691  0.00  0.00    -0.273 OA
ATOM     12  N   UNL     1      -4.474   0.519  24.665  0.00  0.00    -0.201 NA
BRANCH  12  13
ATOM     13  C   UNL     1      -4.608  -0.192  25.063  0.00  0.00    +0.141 C 
BRANCH  13  14
ATOM     14  C   UNL     1      -4.177  -0.865  24.862  0.00  0.00    -0.000 A 
ATOM     15  C   UNL     1      -3.615  -1.167  25.387  0.00  0.00    +0.001 A 
ATOM     16  C   UNL     1      -3.183  -1.840  25.185  0.00  0.00    +0.037 A 
ATOM     17  C   UNL     1      -3.312  -2.211  24.461  0.00  0.00    +0.139 A 
ATOM     20  C   UNL     1      -3.873  -1.910  23.937  0.00  0.00    +0.037 A 
ATOM     21  C   UNL     1      -4.306  -1.236  24.138  0.00  0.00    +0.001 A 
BRANCH  17  18
ATOM     18  O   UNL     1      -2.880  -2.885  24.260  0.00  0.00    -0.471 OA
ATOM     19  C   UNL     1      -2.056  -2.875  24.301  0.00  0.00    +0.252 C 
ENDBRANCH  17  18
ENDBRANCH  13  14
ENDBRANCH  12  13
ENDBRANCH   9  10
ENDBRANCH   8   9
TORSDOF 7
ENDMDL
MODEL 2
REMARK VINA RESULT:     -11.3      2.545      4.413
REMARK  Name = 
REMARK  7 active torsions:
REMARK  status: ('A' for Active; 'I' for Inactive)
REMARK    1  A    between atoms: C_2  and  C_3
REMARK    2  A    between atoms: C_8  and  C_9
REMARK    3  A    between atoms: C_9  and  C_10
REMARK    4  A    between atoms: N_12  and  C_13
REMARK    5  A    between atoms: C_13  and  C_14
REMARK    6  A    between atoms: C_17  and  O_18
REMARK    7  A    between atoms: C_22  and  C_24
REMARK                            x       y       z     vdW  Elec       q    Type
REMARK                         _______ _______ _______ _____ _____    ______ ____
ROOT
ATOM      3  C   UNL     1      -3.944  -0.513  24.757  0.00  0.00    +0.020 C 
ATOM      4  C   UNL     1      -4.571   0.019  24.696  0.00  0.00    +0.094 C 
ATOM      5  N   UNL     1      -4.454   0.817  24.868  0.00  0.00    -0.276 N 
ATOM      6  C   UNL     1      -3.709   1.083  25.101  0.00  0.00    +0.094 C 
ATOM      7  C   UNL     1      -3.081   0.552  25.163  0.00  0.00    +0.022 C 
ATOM      8  C   UNL     1      -3.198  -0.246  24.991  0.00  0.00    +0.012 C 
ATOM     22  C   UNL     1      -5.081   1.349  24.806  0.00  0.00    +0.249 C 
ATOM     23  O   UNL     1      -5.826   1.083  24.572  0.00  0.00    -0.270 OA
ENDROOT
BRANCH  22  24
ATOM     24  C   UNL     1      -4.963   2.148  24.978  0.00  0.00    +0.057 A 
ATOM     25  C   UNL     1      -4.579   2.635  24.433  0.00  0.00    +0.035 A 
ATOM     26  C   UNL     1      -4.462   3.433  24.605  0.00  0.00    +0.138 A 
ATOM     27 CL   UNL     1      -4.078   3.921  24.061  0.00  0.00    -0.061 Cl
ATOM     28  N   UNL     1      -4.728   3.745  25.322  0.00  0.00    -0.232 NA
ATOM     29  C   UNL     1      -5.112   3.257  25.866  0.00  0.00    +0.100 A 
ATOM     30  C   UNL     1      -5.230   2.459  25.694  0.00  0.00    +0.025 A 
ENDBRANCH  22  24
BRANCH   3   2
ATOM      1  C   UNL     1      -4.457  -1.530  23.895  0.00  0.00    +0.000 C 
ATOM      2  C   UNL     1      -4.061  -1.310  24.586  0.00  0.00    +0.002 C 
ENDBRANCH   3   2
BRANCH   8   9
ATOM      9  C   UNL     1      -2.571  -0.779  25.053  0.00  0.00    +0.087 C 
BRANCH   9  10
ATOM     10  C   UNL     1      -1.810  -0.502  25.212  0.00  0.00    +0.242 C 
ATOM     11  O   UNL     1      -1.597  -0.298  25.983  0.00  0.00    -0.273 OA
ATOM     12  N   UNL     1      -1.262  -0.430  24.600  0.00  0.00    -0.201 NA
BRANCH  12  13
ATOM     13  C   UNL     1      -0.500  -0.153  24.759  0.00  0.00    +0.141 C 
BRANCH  13  14
ATOM     14  C   UNL     1       0.047  -0.079  24.146  0.00  0.00    -0.000 A 
ATOM     15  C   UNL     1       0.404   0.651  23.999  0.00  0.00    +0.001 A 
ATOM     16  C   UNL     1       0.952   0.725  23.386  0.00  0.00    +0.037 A 
ATOM     17  C   UNL     1       1.142   0.072  22.922  0.00  0.00    +0.139 A 
ATOM     20  C   UNL     1       0.785  -0.657  23.068  0.00  0.00    +0.037 A 
ATOM     21  C   UNL     1       0.237  -0.732  23.682  0.00  0.00    +0.001 A 
BRANCH  17  18
ATOM     18  O   UNL     1       1.690   0.146  22.309  0.00  0.00    -0.471 OA
ATOM     19  C   UNL     1       2.498   0.164  22.477  0.00  0.00    +0.252 C 
ENDBRANCH  17  18
ENDBRANCH  13  14
ENDBRANCH  12  13
ENDBRANCH   9  10
ENDBRANCH   8   9
TORSDOF 7
ENDMDL
MODEL 3
REMARK VINA RESULT:     -11.2      2.174      4.780
REMARK  Name = 
REMARK  7 active torsions:
REMARK  status: ('A' for Active; 'I' for Inactive)
REMARK    1  A    between atoms: C_2  and  C_3
REMARK    2  A    between atoms: C_8  and  C_9
REMARK    3  A    between atoms: C_9  and  C_10
REMARK    4  A    between atoms: N_12  and  C_13
REMARK    5  A    between atoms: C_13  and  C_14
REMARK    6  A    between atoms: C_17  and  O_18
REMARK    7  A    between atoms: C_22  and  C_24
REMARK                            x       y       z     vdW  Elec       q    Type
REMARK                         _______ _______ _______ _____ _____    ______ ____
ROOT
ATOM      3  C   UNL     1      -0.864   1.303  24.810  0.00  0.00    +0.020 C 
ATOM      4  C   UNL     1      -0.761   0.557  25.147  0.00  0.00    +0.094 C 
ATOM      5  N   UNL     1      -1.221  -0.079  24.892  0.00  0.00    -0.276 N 
ATOM      6  C   UNL     1      -1.783   0.031  24.299  0.00  0.00    +0.094 C 
ATOM      7  C   UNL     1      -1.887   0.776  23.961  0.00  0.00    +0.022 C 
ATOM      8  C   UNL     1      -1.428   1.412  24.216  0.00  0.00    +0.012 C 
ATOM     22  C   UNL     1      -1.117  -0.823  25.230  0.00  0.00    +0.249 C 
ATOM     23  O   UNL     1      -0.555  -0.933  25.824  0.00  0.00    -0.270 OA
ENDROOT
BRANCH  22  24
ATOM     24  C   UNL     1      -1.577  -1.460  24.975  0.00  0.00    +0.057 A 
ATOM     25  C   UNL     1      -2.332  -1.575  25.288  0.00  0.00    +0.035 A 
ATOM     26  C   UNL     1      -2.791  -2.211  25.033  0.00  0.00    +0.138 A 
ATOM     27 CL   UNL     1      -3.547  -2.327  25.346  0.00  0.00    -0.061 Cl
ATOM     28  N   UNL     1      -2.496  -2.732  24.465  0.00  0.00    -0.232 NA
ATOM     29  C   UNL     1      -1.741  -2.616  24.153  0.00  0.00    +0.100 A 
ATOM     30  C   UNL     1      -1.282  -1.980  24.408  0.00  0.00    +0.025 A 
ENDBRANCH  22  24
BRANCH   3   2
ATOM      1  C   UNL     1      -0.131   1.964  25.843  0.00  0.00    +0.000 C 
ATOM      2  C   UNL     1      -0.406   1.938  25.064  0.00  0.00    +0.002 C 
ENDBRANCH   3   2
BRANCH   8   9
ATOM      9  C   UNL     1      -1.530   2.157  23.878  0.00  0.00    +0.087 C 
BRANCH   9  10
ATOM     10  C   UNL     1      -2.278   2.393  23.618  0.00  0.00    +0.242 C 
ATOM     11  O   UNL     1      -2.480   2.318  22.821  0.00  0.00    -0.273 OA
ATOM     12  N   UNL     1      -2.822   2.702  24.155  0.00  0.00    -0.201 NA
BRANCH  12  13
ATOM     13  C   UNL     1      -3.570   2.937  23.895  0.00  0.00    +0.141 C 
BRANCH  13  14
ATOM     14  C   UNL     1      -4.200   2.969  24.427  0.00  0.00    -0.000 A 
ATOM     15  C   UNL     1      -4.785   2.386  24.408  0.00  0.00    +0.001 A 
ATOM     16  C   UNL     1      -5.414   2.418  24.940  0.00  0.00    +0.037 A 
ATOM     17  C   UNL     1      -5.460   3.031  25.489  0.00  0.00    +0.139 A 
ATOM     20  C   UNL     1      -4.876   3.613  25.508  0.00  0.00    +0.037 A 
ATOM     21  C   UNL     1      -4.245   3.581  24.976  0.00  0.00    +0.001 A 
BRANCH  17  18
ATOM     18  O   UNL     1      -6.090   3.062  26.021  0.00  0.00    -0.471 OA
ATOM     19  C   UNL     1      -6.320   2.383  26.429  0.00  0.00    +0.252 C 
ENDBRANCH  17  18
ENDBRANCH  13  14
ENDBRANCH  12  13
ENDBRANCH   9  10
ENDBRANCH   8   9
TORSDOF 7
ENDMDL
MODEL 4
REMARK VINA RESULT:     -11.1      1.918      3.308
REMARK  Name = 
REMARK  7 active torsions:
REMARK  status: ('A' for Active; 'I' for Inactive)
REMARK    1  A    between atoms: C_2  and  C_3
REMARK    2  A    between atoms: C_8  and  C_9
REMARK    3  A    between atoms: C_9  and  C_10
REMARK    4  A    between atoms: N_12  and  C_13
REMARK    5  A    between atoms: C_13  and  C_14
REMARK    6  A    between atoms: C_17  and  O_18
REMARK    7  A    between atoms: C_22  and  C_24
REMARK                            x       y       z     vdW  Elec       q    Type
REMARK                         _______ _______ _______ _____ _____    ______ ____
ROOT
ATOM      3  C   UNL     1      -1.499   2.573  24.434  0.00  0.00    +0.020 C 
ATOM      4  C   UNL     1      -2.129   3.102  24.371  0.00  0.00    +0.094 C 
ATOM      5  N   UNL     1      -2.851   2.929  24.731  0.00  0.00    -0.276 N 
ATOM      6  C   UNL     1      -2.943   2.228  25.155  0.00  0.00    +0.094 C 
ATOM      7  C   UNL     1      -2.313   1.698  25.219  0.00  0.00    +0.022 C 
ATOM      8  C   UNL     1      -1.591   1.871  24.859  0.00  0.00    +0.012 C 
ATOM     22  C   UNL     1      -3.480   3.458  24.667  0.00  0.00    +0.249 C 
ATOM     23  O   UNL     1      -3.389   4.160  24.243  0.00  0.00    -0.270 OA
ENDROOT
BRANCH  22  24
ATOM     24  C   UNL     1      -4.203   3.285  25.028  0.00  0.00    +0.057 A 
ATOM     25  C   UNL     1      -4.721   2.749  24.676  0.00  0.00    +0.035 A 
ATOM     26  C   UNL     1      -5.443   2.576  25.036  0.00  0.00    +0.138 A 
ATOM     27 CL   UNL     1      -5.963   2.039  24.684  0.00  0.00    -0.061 Cl
ATOM     28  N   UNL     1      -5.646   2.940  25.749  0.00  0.00    -0.232 NA
ATOM     29  C   UNL     1      -5.127   3.476  26.100  0.00  0.00    +0.100 A 
ATOM     30  C   UNL     1      -4.405   3.649  25.740  0.00  0.00    +0.025 A 
ENDBRANCH  22  24
BRANCH   3   2
ATOM      1  C   UNL     1      -0.465   3.508  24.122  0.00  0.00    +0.000 C 
ATOM      2  C   UNL     1      -0.778   2.745  24.075  0.00  0.00    +0.002 C 
ENDBRANCH   3   2
BRANCH   8   9
ATOM      9  C   UNL     1      -0.961   1.342  24.922  0.00  0.00    +0.087 C 
BRANCH   9  10
ATOM     10  C   UNL     1      -1.047   0.650  25.363  0.00  0.00    +0.242 C 
ATOM     11  O   UNL     1      -0.851   0.644  26.165  0.00  0.00    -0.273 OA
ATOM     12  N   UNL     1      -1.329  -0.036  25.002  0.00  0.00    -0.201 NA
BRANCH  12  13
ATOM     13  C   UNL     1      -1.415  -0.729  25.443  0.00  0.00    +0.141 C 
BRANCH  13  14
ATOM     14  C   UNL     1      -1.913  -1.329  25.174  0.00  0.00    -0.000 A 
ATOM     15  C   UNL     1      -2.692  -1.371  25.447  0.00  0.00    +0.001 A 
ATOM     16  C   UNL     1      -3.190  -1.971  25.179  0.00  0.00    +0.037 A 
ATOM     17  C   UNL     1      -2.912  -2.527  24.639  0.00  0.00    +0.139 A 
ATOM     20  C   UNL     1      -2.135  -2.485  24.366  0.00  0.00    +0.037 A 
ATOM     21  C   UNL     1      -1.635  -1.885  24.634  0.00  0.00    +0.001 A 
BRANCH  17  18
ATOM     18  O   UNL     1      -3.412  -3.127  24.370  0.00  0.00    -0.471 OA
ATOM     19  C   UNL     1      -4.088  -2.938  23.938  0.00  0.00    +0.252 C 
ENDBRANCH  17  18
ENDBRANCH  13  14
ENDBRANCH  12  13
ENDBRANCH   9  10
ENDBRANCH   8   9
TORSDOF 7
ENDMDL
MODEL 5
REMARK VINA RESULT:     -11.1      2.120      4.544
REMARK  Name = 
REMARK  7 active torsions:
REMARK  status: ('A' for Active; 'I' for Inactive)
REMARK    1  A    between atoms: C_2  and  C_3
REMARK    2  A    between atoms: C_8  and  C_9
REMARK    3  A    between atoms: C_9  and  C_10
REMARK    4  A    between atoms: N_12  and  C_13
REMARK    5  A    between atoms: C_13  and  C_14
REMARK    6  A    between atoms: C_17  and  O_18
REMARK    7  A    between atoms: C_22  and  C_24
REMARK                            x       y       z     vdW  Elec       q    Type
REMARK                         _______ _______ _______ _____ _____    ______ ____
ROOT
ATOM      3  C   UNL     1      -2.802  -1.374  25.273  0.00  0.00    +0.020 C 
ATOM      4  C   UNL     1      -1.980  -1.435  25.233  0.00  0.00    +0.094 C 
ATOM      5  N   UNL     1      -1.542  -0.859  24.836  0.00  0.00    -0.276 N 
ATOM      6  C   UNL     1      -1.926  -0.223  24.479  0.00  0.00    +0.094 C 
ATOM      7  C   UNL     1      -2.748  -0.161  24.517  0.00  0.00    +0.022 C 
ATOM      8  C   UNL     1      -3.186  -0.737  24.914  0.00  0.00    +0.012 C 
ATOM     22  C   UNL     1      -0.721  -0.921  24.798  0.00  0.00    +0.249 C 
ATOM     23  O   UNL     1      -0.337  -1.557  25.156  0.00  0.00    -0.270 OA
ENDROOT
BRANCH  22  24
ATOM     24  C   UNL     1      -0.282  -0.345  24.400  0.00  0.00    +0.057 A 
ATOM     25  C   UNL     1       0.094  -0.530  23.690  0.00  0.00    +0.035 A 
ATOM     26  C   UNL     1       0.532   0.045  23.293  0.00  0.00    +0.138 A 
ATOM     27 CL   UNL     1       0.908  -0.140  22.582  0.00  0.00    -0.061 Cl
ATOM     28  N   UNL     1       0.594   0.806  23.606  0.00  0.00    -0.232 NA
ATOM     29  C   UNL     1       0.218   0.991  24.317  0.00  0.00    +0.100 A 
ATOM     30  C   UNL     1      -0.221   0.415  24.714  0.00  0.00    +0.025 A 
ENDBRANCH  22  24
BRANCH   3   2
ATOM      1  C   UNL     1      -3.187  -2.740  25.439  0.00  0.00    +0.000 C 
ATOM      2  C   UNL     1      -3.240  -1.949  25.669  0.00  0.00    +0.002 C 
ENDBRANCH   3   2
BRANCH   8   9
ATOM      9  C   UNL     1      -4.007  -0.676  24.954  0.00  0.00    +0.087 C 
BRANCH   9  10
ATOM     10  C   UNL     1      -4.397  -0.075  24.542  0.00  0.00    +0.242 C 
ATOM     11  O   UNL     1      -4.507  -0.138  23.727  0.00  0.00    -0.273 OA
ATOM     12  N   UNL     1      -4.675   0.587  24.947  0.00  0.00    -0.201 NA
BRANCH  12  13
ATOM     13  C   UNL     1      -5.064   1.188  24.535  0.00  0.00    +0.141 C 
BRANCH  13  14
ATOM     14  C   UNL     1      -5.191   1.919  24.896  0.00  0.00    -0.000 A 
ATOM     15  C   UNL     1      -5.761   1.991  25.490  0.00  0.00    +0.001 A 
ATOM     16  C   UNL     1      -5.888   2.722  25.851  0.00  0.00    +0.037 A 
ATOM     17  C   UNL     1      -5.448   3.379  25.620  0.00  0.00    +0.139 A 
ATOM     20  C   UNL     1      -4.879   3.307  25.027  0.00  0.00    +0.037 A 
ATOM     21  C   UNL     1      -4.751   2.576  24.665  0.00  0.00    +0.001 A 
BRANCH  17  18
ATOM     18  O   UNL     1      -5.576   4.110  25.981  0.00  0.00    -0.471 OA
ATOM     19  C   UNL     1      -5.950   4.716  25.565  0.00  0.00    +0.252 C 
ENDBRANCH  17  18
ENDBRANCH  13  14
ENDBRANCH  12  13
ENDBRANCH   9  10
ENDBRANCH   8   9
TORSDOF 7
ENDMDL
MODEL 6
REMARK VINA RESULT:     -11.0      2.616      4.305
REMARK  Name = 
REMARK  7 active torsions:
REMARK  status: ('A' for Active; 'I' for Inactive)
REMARK    1  A    between atoms: C_2  and  C_3
REMARK    2  A    between atoms: C_8  and  C_9
REMARK    3  A    between atoms: C_9  and  C_10
REMARK    4  A    between atoms: N_12  and  C_13
REMARK    5  A    between atoms: C_13  and  C_14
REMARK    6  A    between atoms: C_17  and  O_18
REMARK    7  A    between atoms: C_22  and  C_24
REMARK                            x       y       z     vdW  Elec       q    Type
REMARK                         _______ _______ _______ _____ _____    ______ ____
ROOT
ATOM      3  C   UNL     1      -1.884   3.907  25.150  0.00  0.00    +0.020 C 
ATOM      4  C   UNL     1      -2.682   4.078  25.027  0.00  0.00    +0.094 C 
ATOM      5  N   UNL     1      -3.246   3.478  25.081  0.00  0.00    -0.276 N 
ATOM      6  C   UNL     1      -3.012   2.708  25.258  0.00  0.00    +0.094 C 
ATOM      7  C   UNL     1      -2.215   2.536  25.381  0.00  0.00    +0.022 C 
ATOM      8  C   UNL     1      -1.651   3.135  25.327  0.00  0.00    +0.012 C 
ATOM     22  C   UNL     1      -4.043   3.650  24.957  0.00  0.00    +0.249 C 
ATOM     23  O   UNL     1      -4.277   4.421  24.780  0.00  0.00    -0.270 OA
ENDROOT
BRANCH  22  24
ATOM     24  C   UNL     1      -4.607   3.050  25.011  0.00  0.00    +0.057 A 
ATOM     25  C   UNL     1      -5.060   2.970  25.697  0.00  0.00    +0.035 A 
ATOM     26  C   UNL     1      -5.624   2.370  25.751  0.00  0.00    +0.138 A 
ATOM     27 CL   UNL     1      -6.077   2.290  26.436  0.00  0.00    -0.061 Cl
ATOM     28  N   UNL     1      -5.735   1.850  25.119  0.00  0.00    -0.232 NA
ATOM     29  C   UNL     1      -5.283   1.931  24.434  0.00  0.00    +0.100 A 
ATOM     30  C   UNL     1      -4.719   2.531  24.380  0.00  0.00    +0.025 A 
ENDBRANCH  22  24
BRANCH   3   2
ATOM      1  C   UNL     1      -1.553   5.297  25.144  0.00  0.00    +0.000 C 
ATOM      2  C   UNL     1      -1.321   4.506  25.096  0.00  0.00    +0.002 C 
ENDBRANCH   3   2
BRANCH   8   9
ATOM      9  C   UNL     1      -0.853   2.965  25.451  0.00  0.00    +0.087 C 
BRANCH   9  10
ATOM     10  C   UNL     1      -0.595   2.180  25.453  0.00  0.00    +0.242 C 
ATOM     11  O   UNL     1      -0.702   1.712  26.124  0.00  0.00    -0.273 OA
ATOM     12  N   UNL     1      -0.231   1.865  24.783  0.00  0.00    -0.201 NA
BRANCH  12  13
ATOM     13  C   UNL     1       0.027   1.081  24.785  0.00  0.00    +0.141 C 
BRANCH  13  14
ATOM     14  C   UNL     1       0.434   0.780  24.134  0.00  0.00    -0.000 A 
ATOM     15  C   UNL     1       1.133   1.140  23.882  0.00  0.00    +0.001 A 
ATOM     16  C   UNL     1       1.540   0.839  23.231  0.00  0.00    +0.037 A 
ATOM     17  C   UNL     1       1.250   0.179  22.832  0.00  0.00    +0.139 A 
ATOM     20  C   UNL     1       0.552  -0.181  23.083  0.00  0.00    +0.037 A 
ATOM     21  C   UNL     1       0.144   0.120  23.735  0.00  0.00    +0.001 A 
BRANCH  17  18
ATOM     18  O   UNL     1       1.658  -0.122  22.180  0.00  0.00    -0.471 OA
ATOM     19  C   UNL     1       2.483  -0.102  22.165  0.00  0.00    +0.252 C 
ENDBRANCH  17  18
ENDBRANCH  13  14
ENDBRANCH  12  13
ENDBRANCH   9  10
ENDBRANCH   8   9
TORSDOF 7
ENDMDL
MODEL 7
REMARK VINA RESULT:     -10.9      1.778      4.849
REMARK  Name = 
REMARK  7 active torsions:
REMARK  status: ('A' for Active; 'I' for Inactive)
REMARK    1  A    between atoms: C_2  and  C_3
REMARK    2  A    between atoms: C_8  and  C_9
REMARK    3  A    between atoms: C_9  and  C_10
REMARK    4  A    between atoms: N_12  and  C_13
REMARK    5  A    between atoms: C_13  and  C_14
REMARK    6  A    between atoms: C_17  and  O_18
REMARK    7  A    between atoms: C_22  and  C_24
REMARK                            x       y       z     vdW  Elec       q    Type
REMARK                         _______ _______ _______ _____ _____    ______ ____
ROOT
ATOM      3  C   UNL     1      -4.288   1.517  24.389  0.00  0.00    +0.020 C 
ATOM      4  C   UNL     1      -4.526   0.799  24.718  0.00  0.00    +0.094 C 
ATOM      5  N   UNL     1      -4.159   0.097  24.488  0.00  0.00    -0.276 N 
ATOM      6  C   UNL     1      -3.553   0.113  23.930  0.00  0.00    +0.094 C 
ATOM      7  C   UNL     1      -3.313   0.831  23.600  0.00  0.00    +0.022 C 
ATOM      8  C   UNL     1      -3.681   1.533  23.830  0.00  0.00    +0.012 C 
ATOM     22  C   UNL     1      -4.398  -0.620  24.817  0.00  0.00    +0.249 C 
ATOM     23  O   UNL     1      -5.005  -0.636  25.377  0.00  0.00    -0.270 OA
ENDROOT
BRANCH  22  24
ATOM     24  C   UNL     1      -4.031  -1.323  24.587  0.00  0.00    +0.057 A 
ATOM     25  C   UNL     1      -3.348  -1.577  24.976  0.00  0.00    +0.035 A 
ATOM     26  C   UNL     1      -2.981  -2.279  24.746  0.00  0.00    +0.138 A 
ATOM     27 CL   UNL     1      -2.299  -2.534  25.134  0.00  0.00    -0.061 Cl
ATOM     28  N   UNL     1      -3.296  -2.727  24.128  0.00  0.00    -0.232 NA
ATOM     29  C   UNL     1      -3.978  -2.471  23.740  0.00  0.00    +0.100 A 
ATOM     30  C   UNL     1      -4.345  -1.769  23.970  0.00  0.00    +0.025 A 
ENDBRANCH  22  24
BRANCH   3   2
ATOM      1  C   UNL     1      -5.394   2.197  24.985  0.00  0.00    +0.000 C 
ATOM      2  C   UNL     1      -4.655   2.219  24.619  0.00  0.00    +0.002 C 
ENDBRANCH   3   2
BRANCH   8   9
ATOM      9  C   UNL     1      -3.442   2.250  23.501  0.00  0.00    +0.087 C 
BRANCH   9  10
ATOM     10  C   UNL     1      -2.639   2.404  23.385  0.00  0.00    +0.242 C 
ATOM     11  O   UNL     1      -2.302   2.298  22.640  0.00  0.00    -0.273 OA
ATOM     12  N   UNL     1      -2.175   2.663  24.016  0.00  0.00    -0.201 NA
BRANCH  12  13
ATOM     13  C   UNL     1      -1.372   2.817  23.900  0.00  0.00    +0.141 C 
BRANCH  13  14
ATOM     14  C   UNL     1      -0.853   2.800  24.541  0.00  0.00    -0.000 A 
ATOM     15  C   UNL     1      -0.892   3.389  25.118  0.00  0.00    +0.001 A 
ATOM     16  C   UNL     1      -0.373   3.373  25.759  0.00  0.00    +0.037 A 
ATOM     17  C   UNL     1       0.184   2.769  25.824  0.00  0.00    +0.139 A 
ATOM     20  C   UNL     1       0.223   2.180  25.248  0.00  0.00    +0.037 A 
ATOM     21  C   UNL     1      -0.296   2.196  24.606  0.00  0.00    +0.001 A 
BRANCH  17  18
ATOM     18  O   UNL     1       0.703   2.752  26.466  0.00  0.00    -0.471 OA
ATOM     19  C   UNL     1       0.472   2.399  27.175  0.00  0.00    +0.252 C 
ENDBRANCH  17  18
ENDBRANCH  13  14
ENDBRANCH  12  13
ENDBRANCH   9  10
ENDBRANCH   8   9
TORSDOF 7
ENDMDL
MODEL 8
REMARK VINA RESULT:      -8.4     15.589     18.769
REMARK  Name = 
REMARK  7 active torsions:
REMARK  status: ('A' for Active; 'I' for Inactive)
REMARK    1  A    between atoms: C_2  and  C_3
REMARK    2  A    between atoms: C_8  and  C_9
REMARK    3  A    between atoms: C_9  and  C_10
REMARK    4  A    between atoms: N_12  and  C_13
REMARK    5  A    between atoms: C_13  and  C_14
REMARK    6  A    between atoms: C_17  and  O_18
REMARK    7  A    between atoms: C_22  and  C_24
REMARK                            x       y       z     vdW  Elec       q    Type
REMARK                         _______ _______ _______ _____ _____    ______ ____
ROOT
ATOM      3  C   UNL     1      12.354   8.353  18.176  0.00  0.00    +0.020 C 
ATOM      4  C   UNL     1      11.652   8.473  18.593  0.00  0.00    +0.094 C 
ATOM      5  N   UNL     1      11.634   8.367  19.411  0.00  0.00    -0.276 N 
ATOM      6  C   UNL     1      12.318   8.141  19.812  0.00  0.00    +0.094 C 
ATOM      7  C   UNL     1      13.021   8.020  19.396  0.00  0.00    +0.022 C 
ATOM      8  C   UNL     1      13.038   8.127  18.578  0.00  0.00    +0.012 C 
ATOM     22  C   UNL     1      10.933   8.487  19.827  0.00  0.00    +0.249 C 
ATOM     23  O   UNL     1      10.248   8.713  19.426  0.00  0.00    -0.270 OA
ENDROOT
BRANCH  22  24
ATOM     24  C   UNL     1      10.915   8.380  20.646  0.00  0.00    +0.057 A 
ATOM     25  C   UNL     1      10.687   7.653  20.962  0.00  0.00    +0.035 A 
ATOM     26  C   UNL     1      10.669   7.547  21.780  0.00  0.00    +0.138 A 
ATOM     27 CL   UNL     1      10.441   6.819  22.097  0.00  0.00    -0.061 Cl
ATOM     28  N   UNL     1      10.880   8.167  22.282  0.00  0.00    -0.232 NA
ATOM     29  C   UNL     1      11.108   8.894  21.965  0.00  0.00    +0.100 A 
ATOM     30  C   UNL     1      11.126   9.000  21.147  0.00  0.00    +0.025 A 
ENDBRANCH  22  24
BRANCH   3   2
ATOM      1  C   UNL     1      11.693   8.712  16.961  0.00  0.00    +0.000 C 
ATOM      2  C   UNL     1      12.371   8.460  17.359  0.00  0.00    +0.002 C 
ENDBRANCH   3   2
BRANCH   8   9
ATOM      9  C   UNL     1      13.740   8.007  18.161  0.00  0.00    +0.087 C 
BRANCH   9  10
ATOM     10  C   UNL     1      14.455   8.279  18.471  0.00  0.00    +0.242 C 
ATOM     11  O   UNL     1      14.668   9.071  18.384  0.00  0.00    -0.273 OA
ATOM     12  N   UNL     1      14.957   7.757  18.867  0.00  0.00    -0.201 NA
BRANCH  12  13
ATOM     13  C   UNL     1      15.672   8.029  19.178  0.00  0.00    +0.141 C 
BRANCH  13  14
ATOM     14  C   UNL     1      16.105   7.552  19.692  0.00  0.00    -0.000 A 
ATOM     15  C   UNL     1      16.311   7.834  20.441  0.00  0.00    +0.001 A 
ATOM     16  C   UNL     1      16.745   7.356  20.955  0.00  0.00    +0.037 A 
ATOM     17  C   UNL     1      16.972   6.599  20.723  0.00  0.00    +0.139 A 
ATOM     20  C   UNL     1      16.766   6.317  19.976  0.00  0.00    +0.037 A 
ATOM     21  C   UNL     1      16.332   6.794  19.460  0.00  0.00    +0.001 A 
BRANCH  17  18
ATOM     18  O   UNL     1      17.405   6.122  21.239  0.00  0.00    -0.471 OA
ATOM     19  C   UNL     1      17.403   6.281  22.049  0.00  0.00    +0.252 C 
ENDBRANCH  17  18
ENDBRANCH  13  14
ENDBRANCH  12  13
ENDBRANCH   9  10
ENDBRANCH   8   9
TORSDOF 7
ENDMDL
MODEL 9
REMARK VINA RESULT:      -8.2     14.606     16.854
REMARK  Name = 
REMARK  7 active torsions:
REMARK  status: ('A' for Active; 'I' for Inactive)
REMARK    1  A    between atoms: C_2  and  C_3
REMARK    2  A    between atoms: C_8  and  C_9
REMARK    3  A    between atoms: C_9  and  C_10
REMARK    4  A    between atoms: N_12  and  C_13
REMARK    5  A    between atoms: C_13  and  C_14
REMARK    6  A    between atoms: C_17  and  O_18
REMARK    7  A    between atoms: C_22  and  C_24
REMARK                            x       y       z     vdW  Elec       q    Type
REMARK                         _______ _______ _______ _____ _____    ______ ____
ROOT
ATOM      3  C   UNL     1      -2.660 -10.468  13.572  0.00  0.00    +0.020 C 
ATOM      4  C   UNL     1      -2.367 -10.303  12.819  0.00  0.00    +0.094 C 
ATOM      5  N   UNL     1      -2.879 -10.275  12.172  0.00  0.00    -0.276 N 
ATOM      6  C   UNL     1      -3.685 -10.412  12.279  0.00  0.00    +0.094 C 
ATOM      7  C   UNL     1      -3.980 -10.577  13.032  0.00  0.00    +0.022 C 
ATOM      8  C   UNL     1      -3.468 -10.605  13.678  0.00  0.00    +0.012 C 
ATOM     22  C   UNL     1      -2.584 -10.110  11.420  0.00  0.00    +0.249 C 
ATOM     23  O   UNL     1      -1.778  -9.973  11.313  0.00  0.00    -0.270 OA
ENDROOT
BRANCH  22  24
ATOM     24  C   UNL     1      -3.097 -10.082  10.773  0.00  0.00    +0.057 A 
ATOM     25  C   UNL     1      -3.321  -9.354  10.457  0.00  0.00    +0.035 A 
ATOM     26  C   UNL     1      -3.833  -9.326   9.811  0.00  0.00    +0.138 A 
ATOM     27 CL   UNL     1      -4.059  -8.597   9.493  0.00  0.00    -0.061 Cl
ATOM     28  N   UNL     1      -4.121 -10.026   9.481  0.00  0.00    -0.232 NA
ATOM     29  C   UNL     1      -3.896 -10.753   9.798  0.00  0.00    +0.100 A 
ATOM     30  C   UNL     1      -3.384 -10.781  10.444  0.00  0.00    +0.025 A 
ENDBRANCH  22  24
BRANCH   3   2
ATOM      1  C   UNL     1      -1.399 -10.156  14.164  0.00  0.00    +0.000 C 
ATOM      2  C   UNL     1      -2.149 -10.496  14.217  0.00  0.00    +0.002 C 
ENDBRANCH   3   2
BRANCH   8   9
ATOM      9  C   UNL     1      -3.761 -10.770  14.431  0.00  0.00    +0.087 C 
BRANCH   9  10
ATOM     10  C   UNL     1      -4.534 -10.556  14.628  0.00  0.00    +0.242 C 
ATOM     11  O   UNL     1      -5.095 -10.442  14.034  0.00  0.00    -0.273 OA
ATOM     12  N   UNL     1      -4.744 -10.456  15.419  0.00  0.00    -0.201 NA
BRANCH  12  13
ATOM     13  C   UNL     1      -5.517 -10.241  15.616  0.00  0.00    +0.141 C 
BRANCH  13  14
ATOM     14  C   UNL     1      -5.755 -10.240  16.406  0.00  0.00    -0.000 A 
ATOM     15  C   UNL     1      -5.220 -10.452  16.998  0.00  0.00    +0.001 A 
ATOM     16  C   UNL     1      -5.459 -10.451  17.788  0.00  0.00    +0.037 A 
ATOM     17  C   UNL     1      -6.230 -10.238  17.986  0.00  0.00    +0.139 A 
ATOM     20  C   UNL     1      -6.764 -10.026  17.395  0.00  0.00    +0.037 A 
ATOM     21  C   UNL     1      -6.526 -10.027  16.604  0.00  0.00    +0.001 A 
BRANCH  17  18
ATOM     18  O   UNL     1      -6.468 -10.237  18.777  0.00  0.00    -0.471 OA
ATOM     19  C   UNL     1      -7.166 -10.616  18.998  0.00  0.00    +0.252 C 
ENDBRANCH  17  18
ENDBRANCH  13  14
ENDBRANCH  12  13
ENDBRANCH   9  10
ENDBRANCH   8   9
TORSDOF 7
ENDMDL
