REMARK  Name = 
REMARK  5 active torsions:
REMARK  status: ('A' for Active; 'I' for Inactive)
REMARK    1  A    between atoms: O_2  and  C_3
REMARK    2  A    between atoms: C_6  and  C_11
REMARK    3  A    between atoms: C_8  and  O_9
REMARK    4  A    between atoms: C_16  and  C_18
REMARK    5  A    between atoms: C_21  and  C_23
REMARK                            x       y       z     vdW  Elec       q    Type
REMARK                         _______ _______ _______ _____ _____    ______ ____
ROOT
ATOM     11  C   UNL     1       2.024  -2.216   0.000  0.00  0.00    +0.249 C 
ATOM     12  O   UNL     1       1.310  -1.803   0.000  0.00  0.00    -0.270 OA
ATOM     13  N   UNL     1       2.024  -3.041   0.000  0.00  0.00    -0.276 N 
ATOM     14  C   UNL     1       2.692  -3.525   0.000  0.00  0.00    +0.094 C 
ATOM     15  C   UNL     1       2.437  -4.310   0.000  0.00  0.00    +0.033 C 
ATOM     16  C   UNL     1       1.612  -4.310   0.000  0.00  0.00    +0.100 C 
ATOM     17  C   UNL     1       1.357  -3.525   0.000  0.00  0.00    +0.103 C 
ENDROOT
BRANCH  11   6
ATOM      3  C   UNL     1       4.168  -0.978   0.000  0.00  0.00    +0.172 A 
ATOM      4  C   UNL     1       4.168  -1.803   0.000  0.00  0.00    +0.040 A 
ATOM      5  C   UNL     1       3.453  -2.216   0.000  0.00  0.00    +0.008 A 
ATOM      6  C   UNL     1       2.739  -1.803   0.000  0.00  0.00    +0.057 A 
ATOM      7  C   UNL     1       2.739  -0.978   0.000  0.00  0.00    +0.045 A 
ATOM      8  C   UNL     1       3.453  -0.566   0.000  0.00  0.00    +0.173 A 
BRANCH   3   2
ATOM      1  C   UNL     1       4.882   0.260   0.000  0.00  0.00    +0.253 C 
ATOM      2  O   UNL     1       4.882  -0.566   0.000  0.00  0.00    -0.468 OA
ENDBRANCH   3   2
BRANCH   8   9
ATOM      9  O   UNL     1       3.453   0.260   0.000  0.00  0.00    -0.468 OA
ATOM     10  C   UNL     1       4.168   0.672   0.000  0.00  0.00    +0.253 C 
ENDBRANCH   8   9
ENDBRANCH  11   6
BRANCH  16  18
ATOM     18  C   UNL     1       1.127  -4.977   0.000  0.00  0.00    +0.228 A 
ATOM     19  N   UNL     1       1.382  -5.762   0.000  0.00  0.00    -0.111 NA
ATOM     20  N   UNL     1       0.715  -6.247   0.000  0.00  0.00    -0.107 NA
ATOM     21  C   UNL     1       0.047  -5.762   0.000  0.00  0.00    +0.251 A 
ATOM     22  O   UNL     1       0.302  -4.977   0.000  0.00  0.00    -0.419 OA
BRANCH  21  23
ATOM     23  C   UNL     1      -0.738  -6.017   0.000  0.00  0.00    +0.074 A 
ATOM     24  C   UNL     1      -0.909  -6.824   0.000  0.00  0.00    +0.104 A 
ATOM     25  N   UNL     1      -1.694  -7.079   0.000  0.00  0.00    -0.242 NA
ATOM     26  C   UNL     1      -2.307  -6.527   0.000  0.00  0.00    +0.099 A 
ATOM     27  C   UNL     1      -2.135  -5.720   0.000  0.00  0.00    +0.021 A 
ATOM     28  C   UNL     1      -1.351  -5.465   0.000  0.00  0.00    +0.008 A 
ENDBRANCH  21  23
ENDBRANCH  16  18
TORSDOF 5
