MODEL 1
REMARK VINA RESULT:     -10.0      0.000      0.000
REMARK  Name = 
REMARK  6 active torsions:
REMARK  status: ('A' for Active; 'I' for Inactive)
REMARK    1  A    between atoms: C_5  and  N_8
REMARK    2  A    between atoms: N_8  and  C_9
REMARK    3  A    between atoms: C_12  and  C_13
REMARK    4  A    between atoms: C_13  and  N_14
REMARK    5  A    between atoms: C_15  and  C_17
REMARK    6  A    between atoms: C_17  and  C_18
REMARK                            x       y       z     vdW  Elec       q    Type
REMARK                         _______ _______ _______ _____ _____    ______ ____
ROOT
ATOM      9  C   UNL     1      -3.942   0.493  24.475  0.00  0.00    +0.135 C 
ATOM     10  C   UNL     1      -3.210   0.467  24.096  0.00  0.00    +0.162 C 
ATOM     11  O   UNL     1      -2.885   1.225  24.115  0.00  0.00    -0.350 OA
ATOM     12  C   UNL     1      -3.418   1.720  24.506  0.00  0.00    +0.169 C 
ATOM     22  C   UNL     1      -4.071   1.267  24.728  0.00  0.00    +0.199 C 
ATOM     23  O   UNL     1      -4.736   1.541  25.133  0.00  0.00    -0.219 OA
ENDROOT
BRANCH   9   8
ATOM      8  N   UNL     1      -4.456  -0.144  24.581  0.00  0.00    -0.216 NA
BRANCH   8   5
ATOM      1  C   UNL     1      -3.273  -3.224  24.635  0.00  0.00    +0.090 C 
ATOM      2  N   UNL     1      -3.568  -2.454  24.623  0.00  0.00    -0.271 NA
ATOM      3  C   UNL     1      -3.488  -1.970  25.286  0.00  0.00    +0.074 C 
ATOM      4  C   UNL     1      -3.784  -1.200  25.272  0.00  0.00    +0.035 C 
ATOM      5  C   UNL     1      -4.160  -0.914  24.596  0.00  0.00    +0.076 C 
ATOM      6  C   UNL     1      -4.240  -1.398  23.932  0.00  0.00    +0.035 C 
ATOM      7  C   UNL     1      -3.944  -2.168  23.945  0.00  0.00    +0.074 C 
ENDBRANCH   8   5
ENDBRANCH   9   8
BRANCH  12  13
ATOM     13  C   UNL     1      -3.315   2.526  24.649  0.00  0.00    +0.147 C 
BRANCH  13  14
ATOM     14  N   UNL     1      -2.644   2.792  25.048  0.00  0.00    -0.203 NA
ATOM     15  C   UNL     1      -2.453   3.595  25.045  0.00  0.00    +0.241 C 
ATOM     16  O   UNL     1      -2.933   4.131  24.641  0.00  0.00    -0.273 OA
BRANCH  15  17
ATOM     17  C   UNL     1      -1.782   3.861  25.443  0.00  0.00    +0.087 C 
BRANCH  17  18
ATOM     18  C   UNL     1      -1.373   4.522  25.167  0.00  0.00    +0.009 C 
ATOM     19  C   UNL     1      -0.964   5.183  24.890  0.00  0.00    +0.000 C 
ATOM     20  C   UNL     1      -0.778   4.031  24.874  0.00  0.00    +0.000 C 
ATOM     21  C   UNL     1      -1.968   5.013  25.459  0.00  0.00    +0.000 C 
ENDBRANCH  17  18
ENDBRANCH  15  17
ENDBRANCH  13  14
ENDBRANCH  12  13
TORSDOF 6
ENDMDL
MODEL 2
REMARK VINA RESULT:      -9.5      1.437      5.702
REMARK  Name = 
REMARK  6 active torsions:
REMARK  status: ('A' for Active; 'I' for Inactive)
REMARK    1  A    between atoms: C_5  and  N_8
REMARK    2  A    between atoms: N_8  and  C_9
REMARK    3  A    between atoms: C_12  and  C_13
REMARK    4  A    between atoms: C_13  and  N_14
REMARK    5  A    between atoms: C_15  and  C_17
REMARK    6  A    between atoms: C_17  and  C_18
REMARK                            x       y       z     vdW  Elec       q    Type
REMARK                         _______ _______ _______ _____ _____    ______ ____
ROOT
ATOM      9  C   UNL     1      -1.564   1.938  25.360  0.00  0.00    +0.135 C 
ATOM     10  C   UNL     1      -2.246   2.072  24.915  0.00  0.00    +0.162 C 
ATOM     11  O   UNL     1      -2.522   1.342  24.646  0.00  0.00    -0.350 OA
ATOM     12  C   UNL     1      -2.011   0.758  24.924  0.00  0.00    +0.169 C 
ATOM     22  C   UNL     1      -1.418   1.126  25.365  0.00  0.00    +0.199 C 
ATOM     23  O   UNL     1      -0.791   0.748  25.746  0.00  0.00    -0.219 OA
ENDROOT
BRANCH   9   8
ATOM      8  N   UNL     1      -1.108   2.515  25.733  0.00  0.00    -0.216 NA
BRANCH   8   5
ATOM      1  C   UNL     1      -1.516   5.696  24.955  0.00  0.00    +0.090 C 
ATOM      2  N   UNL     1      -1.413   4.901  25.149  0.00  0.00    -0.271 NA
ATOM      3  C   UNL     1      -0.789   4.473  24.822  0.00  0.00    +0.074 C 
ATOM      4  C   UNL     1      -0.687   3.678  25.017  0.00  0.00    +0.035 C 
ATOM      5  C   UNL     1      -1.209   3.310  25.538  0.00  0.00    +0.076 C 
ATOM      6  C   UNL     1      -1.834   3.738  25.866  0.00  0.00    +0.035 C 
ATOM      7  C   UNL     1      -1.936   4.533  25.672  0.00  0.00    +0.074 C 
ENDBRANCH   8   5
ENDBRANCH   9   8
BRANCH  12  13
ATOM     13  C   UNL     1      -2.079  -0.053  24.786  0.00  0.00    +0.147 C 
BRANCH  13  14
ATOM     14  N   UNL     1      -2.803  -0.432  24.899  0.00  0.00    -0.203 NA
ATOM     15  C   UNL     1      -2.890  -1.226  24.695  0.00  0.00    +0.241 C 
ATOM     16  O   UNL     1      -2.251  -1.642  24.379  0.00  0.00    -0.273 OA
BRANCH  15  17
ATOM     17  C   UNL     1      -3.614  -1.605  24.808  0.00  0.00    +0.087 C 
BRANCH  17  18
ATOM     18  C   UNL     1      -3.794  -2.287  24.380  0.00  0.00    +0.009 C 
ATOM     19  C   UNL     1      -3.974  -2.968  23.952  0.00  0.00    +0.000 C 
ATOM     20  C   UNL     1      -4.190  -1.830  23.820  0.00  0.00    +0.000 C 
ATOM     21  C   UNL     1      -3.397  -2.744  24.940  0.00  0.00    +0.000 C 
ENDBRANCH  17  18
ENDBRANCH  15  17
ENDBRANCH  13  14
ENDBRANCH  12  13
TORSDOF 6
ENDMDL
MODEL 3
REMARK VINA RESULT:      -9.1      1.037      5.362
REMARK  Name = 
REMARK  6 active torsions:
REMARK  status: ('A' for Active; 'I' for Inactive)
REMARK    1  A    between atoms: C_5  and  N_8
REMARK    2  A    between atoms: N_8  and  C_9
REMARK    3  A    between atoms: C_12  and  C_13
REMARK    4  A    between atoms: C_13  and  N_14
REMARK    5  A    between atoms: C_15  and  C_17
REMARK    6  A    between atoms: C_17  and  C_18
REMARK                            x       y       z     vdW  Elec       q    Type
REMARK                         _______ _______ _______ _____ _____    ______ ____
ROOT
ATOM      9  C   UNL     1      -3.879   2.361  24.626  0.00  0.00    +0.135 C 
ATOM     10  C   UNL     1      -3.407   2.199  23.968  0.00  0.00    +0.162 C 
ATOM     11  O   UNL     1      -3.491   1.398  23.785  0.00  0.00    -0.350 OA
ATOM     12  C   UNL     1      -4.015   1.066  24.330  0.00  0.00    +0.169 C 
ATOM     22  C   UNL     1      -4.255   1.661  24.849  0.00  0.00    +0.199 C 
ATOM     23  O   UNL     1      -4.778   1.572  25.481  0.00  0.00    -0.219 OA
ENDROOT
BRANCH   9   8
ATOM      8  N   UNL     1      -3.961   3.094  24.995  0.00  0.00    -0.216 NA
BRANCH   8   5
ATOM      1  C   UNL     1      -1.362   5.112  25.244  0.00  0.00    +0.090 C 
ATOM      2  N   UNL     1      -2.011   4.607  25.182  0.00  0.00    -0.271 NA
ATOM      3  C   UNL     1      -2.158   4.049  25.771  0.00  0.00    +0.074 C 
ATOM      4  C   UNL     1      -2.808   3.544  25.708  0.00  0.00    +0.035 C 
ATOM      5  C   UNL     1      -3.311   3.598  25.057  0.00  0.00    +0.076 C 
ATOM      6  C   UNL     1      -3.165   4.157  24.468  0.00  0.00    +0.035 C 
ATOM      7  C   UNL     1      -2.515   4.662  24.530  0.00  0.00    +0.074 C 
ENDBRANCH   8   5
ENDBRANCH   9   8
BRANCH  12  13
ATOM     13  C   UNL     1      -4.257   0.278  24.351  0.00  0.00    +0.147 C 
BRANCH  13  14
ATOM     14  N   UNL     1      -3.708  -0.326  24.228  0.00  0.00    -0.203 NA
ATOM     15  C   UNL     1      -3.961  -1.110  24.179  0.00  0.00    +0.241 C 
ATOM     16  O   UNL     1      -4.763  -1.290  24.253  0.00  0.00    -0.273 OA
BRANCH  15  17
ATOM     17  C   UNL     1      -3.413  -1.713  24.055  0.00  0.00    +0.087 C 
BRANCH  17  18
ATOM     18  C   UNL     1      -3.508  -2.441  24.433  0.00  0.00    +0.009 C 
ATOM     19  C   UNL     1      -3.604  -3.168  24.809  0.00  0.00    +0.000 C 
ATOM     20  C   UNL     1      -4.010  -2.689  23.827  0.00  0.00    +0.000 C 
ATOM     21  C   UNL     1      -3.006  -2.194  25.038  0.00  0.00    +0.000 C 
ENDBRANCH  17  18
ENDBRANCH  15  17
ENDBRANCH  13  14
ENDBRANCH  12  13
TORSDOF 6
ENDMDL
MODEL 4
REMARK VINA RESULT:      -8.7      1.786      2.100
REMARK  Name = 
REMARK  6 active torsions:
REMARK  status: ('A' for Active; 'I' for Inactive)
REMARK    1  A    between atoms: C_5  and  N_8
REMARK    2  A    between atoms: N_8  and  C_9
REMARK    3  A    between atoms: C_12  and  C_13
REMARK    4  A    between atoms: C_13  and  N_14
REMARK    5  A    between atoms: C_15  and  C_17
REMARK    6  A    between atoms: C_17  and  C_18
REMARK                            x       y       z     vdW  Elec       q    Type
REMARK                         _______ _______ _______ _____ _____    ______ ____
ROOT
ATOM      9  C   UNL     1      -1.275  -0.295  25.090  0.00  0.00    +0.135 C 
ATOM     10  C   UNL     1      -1.357  -0.077  24.298  0.00  0.00    +0.162 C 
ATOM     11  O   UNL     1      -1.195   0.730  24.237  0.00  0.00    -0.350 OA
ATOM     12  C   UNL     1      -1.012   1.010  24.991  0.00  0.00    +0.169 C 
ATOM     22  C   UNL     1      -1.062   0.377  25.518  0.00  0.00    +0.199 C 
ATOM     23  O   UNL     1      -0.923   0.410  26.331  0.00  0.00    -0.219 OA
ENDROOT
BRANCH   9   8
ATOM      8  N   UNL     1      -1.387  -1.052  25.398  0.00  0.00    -0.216 NA
BRANCH   8   5
ATOM      1  C   UNL     1      -3.846  -2.944  24.275  0.00  0.00    +0.090 C 
ATOM      2  N   UNL     1      -3.232  -2.470  24.556  0.00  0.00    -0.271 NA
ATOM      3  C   UNL     1      -3.387  -1.876  25.106  0.00  0.00    +0.074 C 
ATOM      4  C   UNL     1      -2.772  -1.403  25.387  0.00  0.00    +0.035 C 
ATOM      5  C   UNL     1      -2.002  -1.525  25.118  0.00  0.00    +0.076 C 
ATOM      6  C   UNL     1      -1.847  -2.119  24.567  0.00  0.00    +0.035 C 
ATOM      7  C   UNL     1      -2.461  -2.593  24.286  0.00  0.00    +0.074 C 
ENDBRANCH   8   5
ENDBRANCH   9   8
BRANCH  12  13
ATOM     13  C   UNL     1      -0.815   1.787  25.185  0.00  0.00    +0.147 C 
BRANCH  13  14
ATOM     14  N   UNL     1      -1.174   2.416  24.789  0.00  0.00    -0.203 NA
ATOM     15  C   UNL     1      -1.025   3.192  25.026  0.00  0.00    +0.241 C 
ATOM     16  O   UNL     1      -0.516   3.340  25.659  0.00  0.00    -0.273 OA
BRANCH  15  17
ATOM     17  C   UNL     1      -1.385   3.820  24.631  0.00  0.00    +0.087 C 
BRANCH  17  18
ATOM     18  C   UNL     1      -1.373   4.576  24.961  0.00  0.00    +0.009 C 
ATOM     19  C   UNL     1      -1.361   5.332  25.291  0.00  0.00    +0.000 C 
ATOM     20  C   UNL     1      -2.094   4.426  25.331  0.00  0.00    +0.000 C 
ATOM     21  C   UNL     1      -0.651   4.727  24.591  0.00  0.00    +0.000 C 
ENDBRANCH  17  18
ENDBRANCH  15  17
ENDBRANCH  13  14
ENDBRANCH  12  13
TORSDOF 6
ENDMDL
