REMARK  Name = 
REMARK  4 active torsions:
REMARK  status: ('A' for Active; 'I' for Inactive)
REMARK    1  A    between atoms: C_8  and  C_10
REMARK    2  A    between atoms: C_10  and  C_11
REMARK    3  A    between atoms: C_16  and  C_18
REMARK    4  A    between atoms: C_29  and  C_31
REMARK                            x       y       z     vdW  Elec       q    Type
REMARK                         _______ _______ _______ _____ _____    ______ ____
ROOT
ATOM     11  C   UNL     1       2.143   1.238   0.000  0.00  0.00    +0.050 C 
ATOM     12  C   UNL     1       2.858   0.825   0.000  0.00  0.00    +0.063 A 
ATOM     13  C   UNL     1       2.858   0.000   0.000  0.00  0.00    +0.023 A 
ATOM     14  C   UNL     1       2.143  -0.412   0.000  0.00  0.00    +0.034 C 
ATOM     15  C   UNL     1       1.429   0.000   0.000  0.00  0.00    +0.010 C 
ATOM     16  C   UNL     1       0.715  -0.412   0.000  0.00  0.00    +0.059 C 
ATOM     17  C   UNL     1       1.245  -1.044   0.000  0.00  0.00    +0.005 C 
ATOM     20  C   UNL     1       0.000   0.000   0.000  0.00  0.00    +0.154 C 
ATOM     21  O   UNL     1      -0.715  -0.412   0.000  0.00  0.00    -0.223 OA
ATOM     22  C   UNL     1       0.000   0.825   0.000  0.00  0.00    +0.033 C 
ATOM     23  C   UNL     1       0.715   1.238   0.000  0.00  0.00    +0.003 C 
ATOM     24  C   UNL     1       1.429   0.825   0.000  0.00  0.00    +0.006 C 
ATOM     25  C   UNL     1       1.429   1.650   0.000  0.00  0.00    +0.000 C 
ATOM     26  S   UNL     1       3.643  -0.255   0.000  0.00  0.00    -0.054 S 
ATOM     27  C   UNL     1       4.127   0.412   0.000  0.00  0.00    +0.185 A 
ATOM     28  N   UNL     1       4.952   0.412   0.000  0.00  0.00    -0.154 NA
ATOM     29  C   UNL     1       5.365  -0.302   0.000  0.00  0.00    +0.246 C 
ATOM     30  O   UNL     1       4.952  -1.016   0.000  0.00  0.00    -0.273 OA
ATOM     35  N   UNL     1       3.643   1.080   0.000  0.00  0.00    -0.227 NA
ENDROOT
BRANCH  29  31
ATOM     31  C   UNL     1       6.190  -0.302   0.000  0.00  0.00    +0.071 C 
ATOM     32  C   UNL     1       7.015  -0.302   0.000  0.00  0.00    +0.009 C 
ATOM     33  C   UNL     1       6.190  -1.127   0.000  0.00  0.00    +0.009 C 
ATOM     34  C   UNL     1       6.190   0.523   0.000  0.00  0.00    +0.009 C 
ENDBRANCH  29  31
BRANCH  16  18
ATOM     18  C   UNL     1       0.184  -1.044   0.000  0.00  0.00    +0.184 C 
ATOM     19  O   UNL     1      -0.628  -0.901   0.000  0.00  0.00    -0.220 OA
ENDBRANCH  16  18
BRANCH  11  10
ATOM     10  C   UNL     1       2.143   2.062   0.000  0.00  0.00    +0.091 C 
BRANCH  10   8
ATOM      1  C   UNL     1       1.429   5.775   0.000  0.00  0.00    +0.000 C 
ATOM      2  C   UNL     1       1.429   4.950   0.000  0.00  0.00    +0.003 C 
ATOM      3  C   UNL     1       2.143   4.537   0.000  0.00  0.00    +0.022 C 
ATOM      4  C   UNL     1       2.143   3.712   0.000  0.00  0.00    +0.093 C 
ATOM      5  N   UNL     1       1.429   3.300   0.000  0.00  0.00    -0.280 N 
ATOM      6  C   UNL     1       0.715   3.712   0.000  0.00  0.00    +0.093 C 
ATOM      7  C   UNL     1       0.715   4.537   0.000  0.00  0.00    +0.022 C 
ATOM      8  C   UNL     1       1.429   2.475   0.000  0.00  0.00    +0.226 C 
ATOM      9  O   UNL     1       0.715   2.062   0.000  0.00  0.00    -0.275 OA
ENDBRANCH  10   8
ENDBRANCH  11  10
TORSDOF 4
