MODEL 1
REMARK VINA RESULT:     -12.8      0.000      0.000
REMARK  Name = 
REMARK  6 active torsions:
REMARK  status: ('A' for Active; 'I' for Inactive)
REMARK    1  A    between atoms: C_5  and  C_8
REMARK    2  A    between atoms: C_10  and  C_11
REMARK    3  A    between atoms: C_11  and  C_12
REMARK    4  A    between atoms: C_12  and  N_16
REMARK    5  A    between atoms: N_16  and  C_17
REMARK    6  A    between atoms: C_17  and  C_18
REMARK                            x       y       z     vdW  Elec       q    Type
REMARK                         _______ _______ _______ _____ _____    ______ ____
ROOT
ATOM     12  C   UNL     1      -4.207   2.621  24.996  0.00  0.00    +0.120 C 
ATOM     13  C   UNL     1      -4.334   3.244  25.521  0.00  0.00    +0.161 C 
ATOM     14  O   UNL     1      -5.139   3.232  25.341  0.00  0.00    -0.351 OA
ATOM     15  C   UNL     1      -5.012   2.609  24.815  0.00  0.00    +0.161 C 
ENDROOT
BRANCH  12  11
ATOM     11  C   UNL     1      -4.080   1.998  24.470  0.00  0.00    +0.070 C 
BRANCH  11  10
ATOM      8  C   UNL     1      -4.230  -0.109  24.781  0.00  0.00    +0.177 A 
ATOM      9  C   UNL     1      -3.899   0.541  24.396  0.00  0.00    +0.058 A 
ATOM     10  C   UNL     1      -4.248   1.224  24.699  0.00  0.00    +0.102 A 
ATOM     27  N   UNL     1      -4.797   0.996  25.272  0.00  0.00    -0.081 NA
ATOM     28  O   UNL     1      -4.785   0.173  25.323  0.00  0.00    -0.354 OA
BRANCH   8   5
ATOM      1  F   UNL     1      -3.470  -3.275  24.250  0.00  0.00    -0.204 F 
ATOM      2  C   UNL     1      -3.660  -2.484  24.382  0.00  0.00    +0.140 A 
ATOM      3  C   UNL     1      -4.141  -2.079  23.848  0.00  0.00    +0.030 A 
ATOM      4  C   UNL     1      -4.331  -1.288  23.980  0.00  0.00    +0.005 A 
ATOM      5  C   UNL     1      -4.040  -0.900  24.648  0.00  0.00    +0.037 A 
ATOM      6  C   UNL     1      -3.559  -1.305  25.183  0.00  0.00    +0.005 A 
ATOM      7  C   UNL     1      -3.370  -2.096  25.051  0.00  0.00    +0.030 A 
ENDBRANCH   8   5
ENDBRANCH  11  10
ENDBRANCH  12  11
BRANCH  12  16
ATOM     16  N   UNL     1      -3.402   2.633  25.176  0.00  0.00    -0.211 NA
BRANCH  16  17
ATOM     17  C   UNL     1      -2.987   3.344  25.159  0.00  0.00    +0.118 C 
BRANCH  17  18
ATOM     18  C   UNL     1      -2.170   3.348  25.281  0.00  0.00    +0.032 A 
ATOM     19  C   UNL     1      -1.738   4.040  25.156  0.00  0.00    +0.174 A 
ATOM     20  O   UNL     1      -1.963   4.797  24.914  0.00  0.00    -0.435 OA
ATOM     21  C   UNL     1      -1.287   5.268  24.887  0.00  0.00    +0.429 C 
ATOM     22  O   UNL     1      -0.643   4.803  25.111  0.00  0.00    -0.435 OA
ATOM     23  C   UNL     1      -0.922   4.044  25.278  0.00  0.00    +0.176 A 
ATOM     24  C   UNL     1      -0.538   3.356  25.525  0.00  0.00    +0.040 A 
ATOM     25  C   UNL     1      -0.971   2.665  25.649  0.00  0.00    +0.003 A 
ATOM     26  C   UNL     1      -1.787   2.661  25.528  0.00  0.00    +0.000 A 
ENDBRANCH  17  18
ENDBRANCH  16  17
ENDBRANCH  12  16
TORSDOF 6
ENDMDL
MODEL 2
REMARK VINA RESULT:     -12.7      2.052      5.202
REMARK  Name = 
REMARK  6 active torsions:
REMARK  status: ('A' for Active; 'I' for Inactive)
REMARK    1  A    between atoms: C_5  and  C_8
REMARK    2  A    between atoms: C_10  and  C_11
REMARK    3  A    between atoms: C_11  and  C_12
REMARK    4  A    between atoms: C_12  and  N_16
REMARK    5  A    between atoms: N_16  and  C_17
REMARK    6  A    between atoms: C_17  and  C_18
REMARK                            x       y       z     vdW  Elec       q    Type
REMARK                         _______ _______ _______ _____ _____    ______ ____
ROOT
ATOM     12  C   UNL     1      -4.798   1.504  24.859  0.00  0.00    +0.120 C 
ATOM     13  C   UNL     1      -5.450   1.155  25.225  0.00  0.00    +0.161 C 
ATOM     14  O   UNL     1      -5.914   1.805  25.016  0.00  0.00    -0.351 OA
ATOM     15  C   UNL     1      -5.262   2.153  24.650  0.00  0.00    +0.161 C 
ENDROOT
BRANCH  12  11
ATOM     11  C   UNL     1      -4.146   1.852  24.493  0.00  0.00    +0.070 C 
BRANCH  11  10
ATOM      8  C   UNL     1      -2.840   3.411  25.143  0.00  0.00    +0.177 A 
ATOM      9  C   UNL     1      -3.048   2.824  24.602  0.00  0.00    +0.058 A 
ATOM     10  C   UNL     1      -3.743   2.467  24.866  0.00  0.00    +0.102 A 
ATOM     27  N   UNL     1      -3.965   2.834  25.571  0.00  0.00    -0.081 NA
ATOM     28  O   UNL     1      -3.407   3.417  25.742  0.00  0.00    -0.354 OA
BRANCH   8   5
ATOM      1  F   UNL     1      -0.204   5.386  24.943  0.00  0.00    -0.204 F 
ATOM      2  C   UNL     1      -0.862   4.892  24.993  0.00  0.00    +0.140 A 
ATOM      3  C   UNL     1      -0.771   4.074  24.936  0.00  0.00    +0.030 A 
ATOM      4  C   UNL     1      -1.429   3.580  24.986  0.00  0.00    +0.005 A 
ATOM      5  C   UNL     1      -2.181   3.904  25.093  0.00  0.00    +0.037 A 
ATOM      6  C   UNL     1      -2.273   4.723  25.150  0.00  0.00    +0.005 A 
ATOM      7  C   UNL     1      -1.614   5.216  25.100  0.00  0.00    +0.030 A 
ENDBRANCH   8   5
ENDBRANCH  11  10
ENDBRANCH  12  11
BRANCH  12  16
ATOM     16  N   UNL     1      -4.334   0.854  25.067  0.00  0.00    -0.211 NA
BRANCH  16  17
ATOM     17  C   UNL     1      -4.497   0.112  24.747  0.00  0.00    +0.118 C 
BRANCH  17  18
ATOM     18  C   UNL     1      -4.056  -0.545  24.983  0.00  0.00    +0.032 A 
ATOM     19  C   UNL     1      -4.061  -1.231  24.524  0.00  0.00    +0.174 A 
ATOM     20  O   UNL     1      -4.444  -1.421  23.819  0.00  0.00    -0.435 OA
ATOM     21  C   UNL     1      -4.240  -2.195  23.618  0.00  0.00    +0.429 C 
ATOM     22  O   UNL     1      -3.730  -2.483  24.199  0.00  0.00    -0.435 OA
ATOM     23  C   UNL     1      -3.619  -1.887  24.759  0.00  0.00    +0.176 A 
ATOM     24  C   UNL     1      -3.173  -1.858  25.454  0.00  0.00    +0.040 A 
ATOM     25  C   UNL     1      -3.169  -1.171  25.911  0.00  0.00    +0.003 A 
ATOM     26  C   UNL     1      -3.610  -0.515  25.676  0.00  0.00    +0.000 A 
ENDBRANCH  17  18
ENDBRANCH  16  17
ENDBRANCH  12  16
TORSDOF 6
ENDMDL
MODEL 3
REMARK VINA RESULT:     -11.6      2.868      5.883
REMARK  Name = 
REMARK  6 active torsions:
REMARK  status: ('A' for Active; 'I' for Inactive)
REMARK    1  A    between atoms: C_5  and  C_8
REMARK    2  A    between atoms: C_10  and  C_11
REMARK    3  A    between atoms: C_11  and  C_12
REMARK    4  A    between atoms: C_12  and  N_16
REMARK    5  A    between atoms: N_16  and  C_17
REMARK    6  A    between atoms: C_17  and  C_18
REMARK                            x       y       z     vdW  Elec       q    Type
REMARK                         _______ _______ _______ _____ _____    ______ ____
ROOT
ATOM     12  C   UNL     1      -0.587   0.001  24.156  0.00  0.00    +0.120 C 
ATOM     13  C   UNL     1      -0.199  -0.705  24.335  0.00  0.00    +0.161 C 
ATOM     14  O   UNL     1       0.427  -0.486  23.846  0.00  0.00    -0.351 OA
ATOM     15  C   UNL     1       0.039   0.220  23.666  0.00  0.00    +0.161 C 
ENDROOT
BRANCH  12  11
ATOM     11  C   UNL     1      -0.975   0.707  23.977  0.00  0.00    +0.070 C 
BRANCH  11  10
ATOM      8  C   UNL     1      -0.770   2.663  24.809  0.00  0.00    +0.177 A 
ATOM      9  C   UNL     1      -1.181   2.114  24.349  0.00  0.00    +0.058 A 
ATOM     10  C   UNL     1      -0.762   1.404  24.363  0.00  0.00    +0.102 A 
ATOM     27  N   UNL     1      -0.092   1.513  24.832  0.00  0.00    -0.081 NA
ATOM     28  O   UNL     1      -0.097   2.291  25.108  0.00  0.00    -0.354 OA
BRANCH   8   5
ATOM      1  F   UNL     1      -1.663   5.792  25.355  0.00  0.00    -0.204 F 
ATOM      2  C   UNL     1      -1.441   5.009  25.219  0.00  0.00    +0.140 A 
ATOM      3  C   UNL     1      -1.883   4.392  25.539  0.00  0.00    +0.030 A 
ATOM      4  C   UNL     1      -1.660   3.610  25.403  0.00  0.00    +0.005 A 
ATOM      5  C   UNL     1      -0.993   3.444  24.945  0.00  0.00    +0.037 A 
ATOM      6  C   UNL     1      -0.550   4.063  24.625  0.00  0.00    +0.005 A 
ATOM      7  C   UNL     1      -0.774   4.844  24.761  0.00  0.00    +0.030 A 
ENDBRANCH   8   5
ENDBRANCH  11  10
ENDBRANCH  12  11
BRANCH  12  16
ATOM     16  N   UNL     1      -1.213  -0.219  24.646  0.00  0.00    -0.211 NA
BRANCH  16  17
ATOM     17  C   UNL     1      -1.555  -0.965  24.569  0.00  0.00    +0.118 C 
BRANCH  17  18
ATOM     18  C   UNL     1      -2.230  -1.157  25.004  0.00  0.00    +0.032 A 
ATOM     19  C   UNL     1      -2.729  -1.762  24.745  0.00  0.00    +0.174 A 
ATOM     20  O   UNL     1      -2.698  -2.261  24.088  0.00  0.00    -0.435 OA
ATOM     21  C   UNL     1      -3.353  -2.761  24.116  0.00  0.00    +0.429 C 
ATOM     22  O   UNL     1      -3.790  -2.571  24.791  0.00  0.00    -0.435 OA
ATOM     23  C   UNL     1      -3.404  -1.953  25.179  0.00  0.00    +0.176 A 
ATOM     24  C   UNL     1      -3.580  -1.541  25.872  0.00  0.00    +0.040 A 
ATOM     25  C   UNL     1      -3.081  -0.937  26.130  0.00  0.00    +0.003 A 
ATOM     26  C   UNL     1      -2.406  -0.745  25.696  0.00  0.00    +0.000 A 
ENDBRANCH  17  18
ENDBRANCH  16  17
ENDBRANCH  12  16
TORSDOF 6
ENDMDL
MODEL 4
REMARK VINA RESULT:     -11.4      1.745      2.831
REMARK  Name = 
REMARK  6 active torsions:
REMARK  status: ('A' for Active; 'I' for Inactive)
REMARK    1  A    between atoms: C_5  and  C_8
REMARK    2  A    between atoms: C_10  and  C_11
REMARK    3  A    between atoms: C_11  and  C_12
REMARK    4  A    between atoms: C_12  and  N_16
REMARK    5  A    between atoms: N_16  and  C_17
REMARK    6  A    between atoms: C_17  and  C_18
REMARK                            x       y       z     vdW  Elec       q    Type
REMARK                         _______ _______ _______ _____ _____    ______ ____
ROOT
ATOM     12  C   UNL     1      -0.941   1.526  24.768  0.00  0.00    +0.120 C 
ATOM     13  C   UNL     1      -0.614   2.096  24.270  0.00  0.00    +0.161 C 
ATOM     14  O   UNL     1       0.139   1.791  24.417  0.00  0.00    -0.351 OA
ATOM     15  C   UNL     1      -0.188   1.221  24.914  0.00  0.00    +0.161 C 
ENDROOT
BRANCH  12  11
ATOM     11  C   UNL     1      -1.269   0.955  25.266  0.00  0.00    +0.070 C 
BRANCH  11  10
ATOM      8  C   UNL     1      -2.060  -0.927  24.642  0.00  0.00    +0.177 A 
ATOM      9  C   UNL     1      -2.158  -0.180  24.978  0.00  0.00    +0.058 A 
ATOM     10  C   UNL     1      -1.424   0.197  24.980  0.00  0.00    +0.102 A 
ATOM     27  N   UNL     1      -0.872  -0.317  24.645  0.00  0.00    -0.081 NA
ATOM     28  O   UNL     1      -1.265  -1.011  24.436  0.00  0.00    -0.354 OA
BRANCH   8   5
ATOM      1  F   UNL     1      -4.431  -3.179  24.199  0.00  0.00    -0.204 F 
ATOM      2  C   UNL     1      -3.838  -2.616  24.310  0.00  0.00    +0.140 A 
ATOM      3  C   UNL     1      -3.102  -2.844  24.604  0.00  0.00    +0.030 A 
ATOM      4  C   UNL     1      -2.509  -2.282  24.715  0.00  0.00    +0.005 A 
ATOM      5  C   UNL     1      -2.652  -1.490  24.531  0.00  0.00    +0.037 A 
ATOM      6  C   UNL     1      -3.389  -1.262  24.236  0.00  0.00    +0.005 A 
ATOM      7  C   UNL     1      -3.981  -1.824  24.126  0.00  0.00    +0.030 A 
ENDBRANCH   8   5
ENDBRANCH  11  10
ENDBRANCH  12  11
BRANCH  12  16
ATOM     16  N   UNL     1      -1.694   1.830  24.622  0.00  0.00    -0.211 NA
BRANCH  16  17
ATOM     17  C   UNL     1      -1.851   2.626  24.767  0.00  0.00    +0.118 C 
BRANCH  17  18
ATOM     18  C   UNL     1      -2.616   2.921  24.666  0.00  0.00    +0.032 A 
ATOM     19  C   UNL     1      -2.949   3.410  25.240  0.00  0.00    +0.174 A 
ATOM     20  O   UNL     1      -2.659   3.696  25.958  0.00  0.00    -0.435 OA
ATOM     21  C   UNL     1      -3.243   4.167  26.301  0.00  0.00    +0.429 C 
ATOM     22  O   UNL     1      -3.895   4.172  25.794  0.00  0.00    -0.435 OA
ATOM     23  C   UNL     1      -3.713   3.705  25.139  0.00  0.00    +0.176 A 
ATOM     24  C   UNL     1      -4.145   3.509  24.463  0.00  0.00    +0.040 A 
ATOM     25  C   UNL     1      -3.811   3.019  23.889  0.00  0.00    +0.003 A 
ATOM     26  C   UNL     1      -3.047   2.725  23.990  0.00  0.00    +0.000 A 
ENDBRANCH  17  18
ENDBRANCH  16  17
ENDBRANCH  12  16
TORSDOF 6
ENDMDL
