MODEL 1
REMARK VINA RESULT:     -11.8      0.000      0.000
REMARK  Name = 
REMARK  2 active torsions:
REMARK  status: ('A' for Active; 'I' for Inactive)
REMARK    1  A    between atoms: C_7  and  C_8
REMARK    2  A    between atoms: C_10  and  C_13
REMARK                            x       y       z     vdW  Elec       q    Type
REMARK                         _______ _______ _______ _____ _____    ______ ____
ROOT
ATOM      8  C   UNL     1      -4.117   1.653  24.632  0.00  0.00    +0.251 A 
ATOM      9  N   UNL     1      -4.164   0.892  24.949  0.00  0.00    -0.190 NA
ATOM     10  C   UNL     1      -3.832   0.369  24.405  0.00  0.00    +0.203 A 
ATOM     11  N   UNL     1      -3.580   0.806  23.752  0.00  0.00    -0.056 NA
ATOM     12  O   UNL     1      -3.756   1.598  23.892  0.00  0.00    -0.336 OA
ENDROOT
BRANCH  10  13
ATOM     13  C   UNL     1      -3.763  -0.448  24.497  0.00  0.00    +0.041 A 
ATOM     14  C   UNL     1      -4.129  -0.956  23.960  0.00  0.00    +0.032 A 
ATOM     15  C   UNL     1      -4.061  -1.773  24.053  0.00  0.00    +0.136 A 
ATOM     16  F   UNL     1      -4.427  -2.282  23.516  0.00  0.00    -0.205 F 
ATOM     17  C   UNL     1      -3.626  -2.082  24.682  0.00  0.00    +0.006 A 
ATOM     18  C   UNL     1      -3.558  -2.899  24.775  0.00  0.00    +0.033 C 
ATOM     19  C   UNL     1      -3.260  -1.574  25.219  0.00  0.00    -0.002 A 
ATOM     20  C   UNL     1      -3.329  -0.757  25.127  0.00  0.00    +0.003 A 
ENDBRANCH  10  13
BRANCH   8   7
ATOM      1  C   UNL     1      -3.096   3.030  25.158  0.00  0.00    +0.090 C 
ATOM      2  N   UNL     1      -3.916   2.978  25.234  0.00  0.00    -0.263 NA
ATOM      3  C   UNL     1      -4.409   3.550  25.565  0.00  0.00    +0.106 C 
ATOM      4  C   UNL     1      -5.184   3.270  25.527  0.00  0.00    +0.170 C 
ATOM      5  O   UNL     1      -5.856   3.666  25.797  0.00  0.00    -0.222 OA
ATOM      6  C   UNL     1      -5.170   2.525  25.173  0.00  0.00    +0.060 C 
ATOM      7  C   UNL     1      -4.385   2.345  24.992  0.00  0.00    +0.140 C 
ENDBRANCH   8   7
TORSDOF 2
ENDMDL
