MODEL 1
REMARK VINA RESULT:     -10.0      0.000      0.000
REMARK  Name = 
REMARK  6 active torsions:
REMARK  status: ('A' for Active; 'I' for Inactive)
REMARK    1  A    between atoms: N_4  and  C_24
REMARK    2  A    between atoms: C_7  and  C_8
REMARK    3  A    between atoms: C_10  and  N_11
REMARK    4  A    between atoms: C_12  and  C_14
REMARK    5  A    between atoms: C_14  and  O_15
REMARK    6  A    between atoms: O_15  and  C_16
REMARK                            x       y       z     vdW  Elec       q    Type
REMARK                         _______ _______ _______ _____ _____    ______ ____
ROOT
ATOM      8  C   UNL     1      -1.477   1.156  23.835  0.00  0.00    +0.048 C 
ATOM      9  C   UNL     1      -0.729   1.499  23.796  0.00  0.00    +0.035 C 
ATOM     10  C   UNL     1      -0.169   0.903  23.894  0.00  0.00    +0.118 C 
ATOM     22  C   UNL     1      -0.571   0.189  23.993  0.00  0.00    -0.009 C 
ATOM     23  C   UNL     1      -1.379   0.346  23.957  0.00  0.00    -0.025 C 
ENDROOT
BRANCH   8   7
ATOM      1  C   UNL     1      -2.246   1.688  22.301  0.00  0.00    +0.054 C 
ATOM      2  C   UNL     1      -2.552   1.796  23.061  0.00  0.00    +0.077 A 
ATOM      3  N   UNL     1      -3.264   2.167  23.247  0.00  0.00    -0.170 NA
ATOM      4  N   UNL     1      -3.351   2.152  24.068  0.00  0.00    -0.234 N 
ATOM      5  C   UNL     1      -2.693   1.772  24.387  0.00  0.00    +0.058 A 
ATOM      6  C   UNL     1      -2.553   1.635  25.190  0.00  0.00    +0.052 C 
ATOM      7  C   UNL     1      -2.198   1.551  23.764  0.00  0.00    +0.010 A 
BRANCH   4  24
ATOM     24  C   UNL     1      -3.986   2.463  24.494  0.00  0.00    +0.083 A 
ATOM     25  C   UNL     1      -4.677   2.022  24.583  0.00  0.00    +0.030 A 
ATOM     26  C   UNL     1      -5.312   2.333  25.010  0.00  0.00    +0.055 A 
ATOM     27 CL   UNL     1      -6.004   1.893  25.100  0.00  0.00    -0.083 Cl
ATOM     28  C   UNL     1      -5.255   3.084  25.346  0.00  0.00    -0.011 A 
ATOM     29  C   UNL     1      -5.890   3.395  25.772  0.00  0.00    +0.032 C 
ATOM     30  C   UNL     1      -4.563   3.525  25.256  0.00  0.00    -0.002 A 
ATOM     31  C   UNL     1      -3.928   3.214  24.830  0.00  0.00    +0.019 A 
ENDBRANCH   4  24
ENDBRANCH   8   7
BRANCH  10  11
ATOM     11  N   UNL     1       0.650   1.001  23.893  0.00  0.00    -0.200 NA
ATOM     12  C   UNL     1       1.113   0.610  23.332  0.00  0.00    +0.286 C 
ATOM     13  O   UNL     1       0.756   0.121  22.772  0.00  0.00    -0.269 OA
BRANCH  12  14
ATOM     14  C   UNL     1       1.932   0.709  23.332  0.00  0.00    +0.291 C 
BRANCH  14  15
ATOM     15  O   UNL     1       2.404   0.235  22.849  0.00  0.00    -0.466 OA
BRANCH  15  16
ATOM     16  C   UNL     1       3.225   0.259  22.924  0.00  0.00    +0.139 A 
ATOM     17  C   UNL     1       3.629  -0.382  23.250  0.00  0.00    +0.037 A 
ATOM     18  C   UNL     1       4.450  -0.358  23.325  0.00  0.00    +0.003 A 
ATOM     19  C   UNL     1       4.868   0.308  23.074  0.00  0.00    +0.000 A 
ATOM     20  C   UNL     1       4.464   0.949  22.748  0.00  0.00    +0.003 A 
ATOM     21  C   UNL     1       3.643   0.925  22.673  0.00  0.00    +0.037 A 
ENDBRANCH  15  16
ENDBRANCH  14  15
ENDBRANCH  12  14
ENDBRANCH  10  11
TORSDOF 6
ENDMDL
MODEL 2
REMARK VINA RESULT:      -8.9      3.943      5.341
REMARK  Name = 
REMARK  6 active torsions:
REMARK  status: ('A' for Active; 'I' for Inactive)
REMARK    1  A    between atoms: N_4  and  C_24
REMARK    2  A    between atoms: C_7  and  C_8
REMARK    3  A    between atoms: C_10  and  N_11
REMARK    4  A    between atoms: C_12  and  C_14
REMARK    5  A    between atoms: C_14  and  O_15
REMARK    6  A    between atoms: O_15  and  C_16
REMARK                            x       y       z     vdW  Elec       q    Type
REMARK                         _______ _______ _______ _____ _____    ______ ____
ROOT
ATOM      8  C   UNL     1      -4.591   1.774  24.696  0.00  0.00    +0.048 C 
ATOM      9  C   UNL     1      -3.921   2.243  24.804  0.00  0.00    +0.035 C 
ATOM     10  C   UNL     1      -4.105   3.010  24.565  0.00  0.00    +0.118 C 
ATOM     22  C   UNL     1      -4.890   3.016  24.310  0.00  0.00    -0.009 C 
ATOM     23  C   UNL     1      -5.190   2.253  24.390  0.00  0.00    -0.025 C 
ENDROOT
BRANCH   8   7
ATOM      1  C   UNL     1      -5.740   1.020  25.852  0.00  0.00    +0.054 C 
ATOM      2  C   UNL     1      -5.180   0.621  25.394  0.00  0.00    +0.077 A 
ATOM      3  N   UNL     1      -5.051  -0.193  25.388  0.00  0.00    -0.170 NA
ATOM      4  N   UNL     1      -4.443  -0.350  24.852  0.00  0.00    -0.234 N 
ATOM      5  C   UNL     1      -4.197   0.368  24.528  0.00  0.00    +0.058 A 
ATOM      6  C   UNL     1      -3.599   0.467  23.967  0.00  0.00    +0.052 C 
ATOM      7  C   UNL     1      -4.653   0.969  24.863  0.00  0.00    +0.010 A 
BRANCH   4  24
ATOM     24  C   UNL     1      -4.134  -1.094  24.672  0.00  0.00    +0.083 A 
ATOM     25  C   UNL     1      -3.585  -1.445  25.177  0.00  0.00    +0.030 A 
ATOM     26  C   UNL     1      -3.277  -2.189  24.997  0.00  0.00    +0.055 A 
ATOM     27 CL   UNL     1      -2.727  -2.541  25.502  0.00  0.00    -0.083 Cl
ATOM     28  C   UNL     1      -3.518  -2.581  24.314  0.00  0.00    -0.011 A 
ATOM     29  C   UNL     1      -3.210  -3.326  24.134  0.00  0.00    +0.032 C 
ATOM     30  C   UNL     1      -4.068  -2.230  23.808  0.00  0.00    -0.002 A 
ATOM     31  C   UNL     1      -4.376  -1.486  23.988  0.00  0.00    +0.019 A 
ENDBRANCH   4  24
ENDBRANCH   8   7
BRANCH  10  11
ATOM     11  N   UNL     1      -3.595   3.659  24.579  0.00  0.00    -0.200 NA
ATOM     12  C   UNL     1      -3.391   4.008  25.298  0.00  0.00    +0.286 C 
ATOM     13  O   UNL     1      -3.696   3.710  26.004  0.00  0.00    -0.269 OA
BRANCH  12  14
ATOM     14  C   UNL     1      -2.881   4.657  25.311  0.00  0.00    +0.291 C 
BRANCH  14  15
ATOM     15  O   UNL     1      -2.148   4.598  25.685  0.00  0.00    -0.466 OA
BRANCH  15  16
ATOM     16  C   UNL     1      -1.460   4.792  25.276  0.00  0.00    +0.139 A 
ATOM     17  C   UNL     1      -0.884   4.217  25.141  0.00  0.00    +0.037 A 
ATOM     18  C   UNL     1      -0.194   4.411  24.730  0.00  0.00    +0.003 A 
ATOM     19  C   UNL     1      -0.081   5.180  24.455  0.00  0.00    +0.000 A 
ATOM     20  C   UNL     1      -0.657   5.755  24.590  0.00  0.00    +0.003 A 
ATOM     21  C   UNL     1      -1.346   5.562  25.000  0.00  0.00    +0.037 A 
ENDBRANCH  15  16
ENDBRANCH  14  15
ENDBRANCH  12  14
ENDBRANCH  10  11
TORSDOF 6
ENDMDL
MODEL 3
REMARK VINA RESULT:      -8.8      4.098      5.238
REMARK  Name = 
REMARK  6 active torsions:
REMARK  status: ('A' for Active; 'I' for Inactive)
REMARK    1  A    between atoms: N_4  and  C_24
REMARK    2  A    between atoms: C_7  and  C_8
REMARK    3  A    between atoms: C_10  and  N_11
REMARK    4  A    between atoms: C_12  and  C_14
REMARK    5  A    between atoms: C_14  and  O_15
REMARK    6  A    between atoms: O_15  and  C_16
REMARK                            x       y       z     vdW  Elec       q    Type
REMARK                         _______ _______ _______ _____ _____    ______ ____
ROOT
ATOM      8  C   UNL     1      -4.422   2.209  24.960  0.00  0.00    +0.048 C 
ATOM      9  C   UNL     1      -4.080   1.475  24.807  0.00  0.00    +0.035 C 
ATOM     10  C   UNL     1      -4.680   0.953  24.590  0.00  0.00    +0.118 C 
ATOM     22  C   UNL     1      -5.395   1.365  24.609  0.00  0.00    -0.009 C 
ATOM     23  C   UNL     1      -5.236   2.141  24.837  0.00  0.00    -0.025 C 
ENDROOT
BRANCH   8   7
ATOM      1  C   UNL     1      -4.986   3.394  26.186  0.00  0.00    +0.054 C 
ATOM      2  C   UNL     1      -4.281   3.437  25.757  0.00  0.00    +0.077 A 
ATOM      3  N   UNL     1      -3.714   4.031  25.817  0.00  0.00    -0.170 NA
ATOM      4  N   UNL     1      -3.103   3.854  25.290  0.00  0.00    -0.234 N 
ATOM      5  C   UNL     1      -3.294   3.150  24.906  0.00  0.00    +0.058 A 
ATOM      6  C   UNL     1      -2.837   2.771  24.333  0.00  0.00    +0.052 C 
ATOM      7  C   UNL     1      -4.023   2.892  25.194  0.00  0.00    +0.010 A 
BRANCH   4  24
ATOM     24  C   UNL     1      -2.421   4.303  25.170  0.00  0.00    +0.083 A 
ATOM     25  C   UNL     1      -1.679   3.967  25.301  0.00  0.00    +0.030 A 
ATOM     26  C   UNL     1      -0.997   4.415  25.181  0.00  0.00    +0.055 A 
ATOM     27 CL   UNL     1      -0.254   4.080  25.312  0.00  0.00    -0.083 Cl
ATOM     28  C   UNL     1      -1.056   5.198  24.930  0.00  0.00    -0.011 A 
ATOM     29  C   UNL     1      -0.374   5.647  24.809  0.00  0.00    +0.032 C 
ATOM     30  C   UNL     1      -1.799   5.534  24.798  0.00  0.00    -0.002 A 
ATOM     31  C   UNL     1      -2.481   5.086  24.919  0.00  0.00    +0.019 A 
ENDBRANCH   4  24
ENDBRANCH   8   7
BRANCH  10  11
ATOM     11  N   UNL     1      -4.584   0.159  24.389  0.00  0.00    -0.200 NA
ATOM     12  C   UNL     1      -4.376  -0.392  24.967  0.00  0.00    +0.286 C 
ATOM     13  O   UNL     1      -4.263  -0.149  25.747  0.00  0.00    -0.269 OA
BRANCH  12  14
ATOM     14  C   UNL     1      -4.281  -1.186  24.765  0.00  0.00    +0.291 C 
BRANCH  14  15
ATOM     15  O   UNL     1      -3.769  -1.664  25.202  0.00  0.00    -0.466 OA
BRANCH  15  16
ATOM     16  C   UNL     1      -3.284  -2.209  24.816  0.00  0.00    +0.139 A 
ATOM     17  C   UNL     1      -3.617  -2.857  24.429  0.00  0.00    +0.037 A 
ATOM     18  C   UNL     1      -3.131  -3.402  24.044  0.00  0.00    +0.003 A 
ATOM     19  C   UNL     1      -2.313  -3.298  24.045  0.00  0.00    +0.000 A 
ATOM     20  C   UNL     1      -1.980  -2.649  24.432  0.00  0.00    +0.003 A 
ATOM     21  C   UNL     1      -2.465  -2.105  24.817  0.00  0.00    +0.037 A 
ENDBRANCH  15  16
ENDBRANCH  14  15
ENDBRANCH  12  14
ENDBRANCH  10  11
TORSDOF 6
ENDMDL
MODEL 4
REMARK VINA RESULT:      -8.4      2.399      3.053
REMARK  Name = 
REMARK  6 active torsions:
REMARK  status: ('A' for Active; 'I' for Inactive)
REMARK    1  A    between atoms: N_4  and  C_24
REMARK    2  A    between atoms: C_7  and  C_8
REMARK    3  A    between atoms: C_10  and  N_11
REMARK    4  A    between atoms: C_12  and  C_14
REMARK    5  A    between atoms: C_14  and  O_15
REMARK    6  A    between atoms: O_15  and  C_16
REMARK                            x       y       z     vdW  Elec       q    Type
REMARK                         _______ _______ _______ _____ _____    ______ ____
ROOT
ATOM      8  C   UNL     1      -0.333   0.859  24.232  0.00  0.00    +0.048 C 
ATOM      9  C   UNL     1       0.466   0.673  24.308  0.00  0.00    +0.035 C 
ATOM     10  C   UNL     1       0.899   1.223  23.873  0.00  0.00    +0.118 C 
ATOM     22  C   UNL     1       0.367   1.751  23.527  0.00  0.00    -0.009 C 
ATOM     23  C   UNL     1      -0.394   1.526  23.749  0.00  0.00    -0.025 C 
ENDROOT
BRANCH   8   7
ATOM      1  C   UNL     1      -1.112   1.250  25.802  0.00  0.00    +0.054 C 
ATOM      2  C   UNL     1      -1.321   0.631  25.298  0.00  0.00    +0.077 A 
ATOM      3  N   UNL     1      -1.923   0.083  25.427  0.00  0.00    -0.170 NA
ATOM      4  N   UNL     1      -1.938  -0.435  24.785  0.00  0.00    -0.234 N 
ATOM      5  C   UNL     1      -1.344  -0.208  24.260  0.00  0.00    +0.058 A 
ATOM      6  C   UNL     1      -1.164  -0.575  23.543  0.00  0.00    +0.052 C 
ATOM      7  C   UNL     1      -0.962   0.452  24.577  0.00  0.00    +0.010 A 
BRANCH   4  24
ATOM     24  C   UNL     1      -2.456  -1.070  24.686  0.00  0.00    +0.083 A 
ATOM     25  C   UNL     1      -3.213  -0.941  24.386  0.00  0.00    +0.030 A 
ATOM     26  C   UNL     1      -3.731  -1.576  24.287  0.00  0.00    +0.055 A 
ATOM     27 CL   UNL     1      -4.489  -1.448  23.986  0.00  0.00    -0.083 Cl
ATOM     28  C   UNL     1      -3.492  -2.339  24.488  0.00  0.00    -0.011 A 
ATOM     29  C   UNL     1      -4.010  -2.974  24.389  0.00  0.00    +0.032 C 
ATOM     30  C   UNL     1      -2.734  -2.468  24.789  0.00  0.00    -0.002 A 
ATOM     31  C   UNL     1      -2.216  -1.833  24.888  0.00  0.00    +0.019 A 
ENDBRANCH   4  24
ENDBRANCH   8   7
BRANCH  10  11
ATOM     11  N   UNL     1       1.720   1.244  23.796  0.00  0.00    -0.200 NA
ATOM     12  C   UNL     1       2.092   0.804  23.205  0.00  0.00    +0.286 C 
ATOM     13  O   UNL     1       1.642   0.343  22.690  0.00  0.00    -0.269 OA
BRANCH  12  14
ATOM     14  C   UNL     1       2.913   0.826  23.129  0.00  0.00    +0.291 C 
BRANCH  14  15
ATOM     15  O   UNL     1       3.326   0.142  22.925  0.00  0.00    -0.466 OA
BRANCH  15  16
ATOM     16  C   UNL     1       4.095   0.028  23.199  0.00  0.00    +0.139 A 
ATOM     17  C   UNL     1       4.300  -0.679  23.572  0.00  0.00    +0.037 A 
ATOM     18  C   UNL     1       5.070  -0.794  23.847  0.00  0.00    +0.003 A 
ATOM     19  C   UNL     1       5.635  -0.201  23.749  0.00  0.00    +0.000 A 
ATOM     20  C   UNL     1       5.430   0.506  23.376  0.00  0.00    +0.003 A 
ATOM     21  C   UNL     1       4.662   0.621  23.102  0.00  0.00    +0.037 A 
ENDBRANCH  15  16
ENDBRANCH  14  15
ENDBRANCH  12  14
ENDBRANCH  10  11
TORSDOF 6
ENDMDL
