REMARK  Name = 
REMARK  7 active torsions:
REMARK  status: ('A' for Active; 'I' for Inactive)
REMARK    1  A    between atoms: C_2  and  N_5
REMARK    2  A    between atoms: C_6  and  C_8
REMARK    3  A    between atoms: C_8  and  C_9
REMARK    4  A    between atoms: C_14  and  C_15
REMARK    5  A    between atoms: C_15  and  C_16
REMARK    6  A    between atoms: C_19  and  C_20
REMARK    7  A    between atoms: C_20  and  C_21
REMARK                            x       y       z     vdW  Elec       q    Type
REMARK                         _______ _______ _______ _____ _____    ______ ____
ROOT
ATOM      9  C   UNL     1       0.107   0.763   0.000  0.00  0.00    +0.012 C 
ATOM     10  C   UNL     1       0.821   1.176   0.000  0.00  0.00    +0.019 C 
ATOM     11  C   UNL     1       1.536   0.763   0.000  0.00  0.00    +0.089 C 
ATOM     12  N   UNL     1       1.536  -0.062   0.000  0.00  0.00    -0.218 NA
ATOM     13  C   UNL     1       0.821  -0.474   0.000  0.00  0.00    +0.089 C 
ATOM     14  C   UNL     1       0.107  -0.062   0.000  0.00  0.00    +0.024 C 
ENDROOT
BRANCH   9   8
ATOM      8  C   UNL     1      -0.608   1.176   0.000  0.00  0.00    +0.087 C 
BRANCH   8   6
ATOM      5  N   UNL     1      -1.322   2.413   0.000  0.00  0.00    -0.209 NA
ATOM      6  C   UNL     1      -0.608   2.001   0.000  0.00  0.00    +0.241 C 
ATOM      7  O   UNL     1       0.107   2.413   0.000  0.00  0.00    -0.273 OA
BRANCH   5   2
ATOM      1  C   UNL     1      -1.322   4.063   0.000  0.00  0.00    +0.022 C 
ATOM      2  C   UNL     1      -1.322   3.238   0.000  0.00  0.00    +0.079 C 
ATOM      3  C   UNL     1      -2.147   3.238   0.000  0.00  0.00    +0.022 C 
ATOM      4  C   UNL     1      -0.497   3.238   0.000  0.00  0.00    +0.022 C 
ENDBRANCH   5   2
ENDBRANCH   8   6
ENDBRANCH   9   8
BRANCH  14  15
ATOM     15  C   UNL     1      -0.608  -0.474   0.000  0.00  0.00    +0.051 C 
BRANCH  15  16
ATOM     16  C   UNL     1      -0.608  -1.299   0.000  0.00  0.00    +0.100 A 
ATOM     17  N   UNL     1       0.060  -1.784   0.000  0.00  0.00    -0.082 NA
ATOM     18  O   UNL     1      -0.195  -2.569   0.000  0.00  0.00    -0.358 OA
ATOM     19  C   UNL     1      -1.020  -2.569   0.000  0.00  0.00    +0.154 A 
ATOM     27  C   UNL     1      -1.275  -1.784   0.000  0.00  0.00    +0.054 A 
BRANCH  19  20
ATOM     20  C   UNL     1      -1.505  -3.236   0.000  0.00  0.00    +0.067 C 
BRANCH  20  21
ATOM     21  C   UNL     1      -1.170  -3.990   0.000  0.00  0.00    +0.008 C 
ATOM     22  C   UNL     1      -0.349  -4.076   0.000  0.00  0.00    +0.000 C 
ATOM     23  C   UNL     1      -0.014  -4.830   0.000  0.00  0.00    +0.000 C 
ATOM     24  C   UNL     1      -0.498  -5.497   0.000  0.00  0.00    +0.000 C 
ATOM     25  C   UNL     1      -1.319  -5.411   0.000  0.00  0.00    +0.000 C 
ATOM     26  C   UNL     1      -1.655  -4.657   0.000  0.00  0.00    +0.000 C 
ENDBRANCH  20  21
ENDBRANCH  19  20
ENDBRANCH  15  16
ENDBRANCH  14  15
TORSDOF 7
