MODEL 1
REMARK VINA RESULT:     -11.0      0.000      0.000
REMARK  Name = 
REMARK  12 active torsions:
REMARK  status: ('A' for Active; 'I' for Inactive)
REMARK    1  A    between atoms: C_2  and  C_4
REMARK    2  A    between atoms: C_4  and  C_5
REMARK    3  A    between atoms: C_4  and  N_15
REMARK    4  A    between atoms: C_5  and  C_6
REMARK    5  A    between atoms: C_16  and  C_18
REMARK    6  A    between atoms: C_20  and  N_32
REMARK    7  A    between atoms: C_24  and  C_26
REMARK    8  A    between atoms: C_26  and  O_27
REMARK    9  A    between atoms: O_27  and  C_28
REMARK   10  A    between atoms: C_28  and  C_29
REMARK   11  A    between atoms: N_32  and  S_33
REMARK   12  A    between atoms: S_33  and  C_36
REMARK                            x       y       z     vdW  Elec       q    Type
REMARK                         _______ _______ _______ _____ _____    ______ ____
ROOT
ATOM     18  C   UNL     1      -0.824   0.567  24.518  0.00  0.00    +0.155 C 
ATOM     19  C   UNL     1      -1.403   0.159  24.942  0.00  0.00    +0.049 C 
ATOM     20  C   UNL     1      -1.370  -0.664  24.997  0.00  0.00    +0.102 C 
ATOM     21  C   UNL     1      -0.760  -1.078  24.628  0.00  0.00    +0.041 C 
ATOM     22  C   UNL     1      -0.182  -0.670  24.204  0.00  0.00    +0.095 C 
ATOM     23  N   UNL     1      -0.214   0.153  24.149  0.00  0.00    -0.271 N 
ATOM     24  C   UNL     1       0.364   0.561  23.725  0.00  0.00    +0.256 C 
ATOM     25  O   UNL     1       0.332   1.384  23.669  0.00  0.00    -0.272 OA
ENDROOT
BRANCH  18  16
ATOM     15  N   UNL     1      -1.100   1.837  25.111  0.00  0.00    -0.196 NA
ATOM     16  C   UNL     1      -0.857   1.390  24.463  0.00  0.00    +0.260 C 
ATOM     17  O   UNL     1      -0.646   1.764  23.758  0.00  0.00    -0.272 OA
BRANCH  15   4
ATOM      4  C   UNL     1      -1.132   2.660  25.056  0.00  0.00    +0.179 C 
BRANCH   4   2
ATOM      1  N   UNL     1      -0.232   3.760  24.913  0.00  0.00    -0.086 NA
ATOM      2  C   UNL     1      -0.513   3.118  25.350  0.00  0.00    +0.281 C 
ATOM      3  O   UNL     1      -0.174   2.935  26.079  0.00  0.00    -0.270 OA
ENDBRANCH   4   2
BRANCH   4   5
ATOM      5  C   UNL     1      -1.785   3.025  24.706  0.00  0.00    +0.059 C 
BRANCH   5   6
ATOM      6  C   UNL     1      -2.432   3.243  25.170  0.00  0.00    +0.001 A 
ATOM      7  C   UNL     1      -2.400   3.534  25.940  0.00  0.00    +0.095 A 
ATOM      8  N   UNL     1      -3.173   3.680  26.190  0.00  0.00    -0.244 NA
ATOM      9  C   UNL     1      -3.683   3.478  25.573  0.00  0.00    +0.081 A 
ATOM     10  C   UNL     1      -3.225   3.208  24.942  0.00  0.00    +0.015 A 
ATOM     11  C   UNL     1      -3.588   2.966  24.243  0.00  0.00    +0.001 A 
ATOM     12  C   UNL     1      -4.410   2.994  24.174  0.00  0.00    +0.000 A 
ATOM     13  C   UNL     1      -4.868   3.263  24.805  0.00  0.00    +0.002 A 
ATOM     14  C   UNL     1      -4.504   3.506  25.505  0.00  0.00    +0.019 A 
ENDBRANCH   5   6
ENDBRANCH   4   5
ENDBRANCH  15   4
ENDBRANCH  18  16
BRANCH  24  26
ATOM     26  C   UNL     1       0.974   0.146  23.356  0.00  0.00    +0.228 C 
BRANCH  26  27
ATOM     27  O   UNL     1       1.654   0.545  23.110  0.00  0.00    -0.333 OA
BRANCH  27  28
ATOM     28  C   UNL     1       2.302   0.120  22.829  0.00  0.00    +0.257 C 
BRANCH  28  29
ATOM     29  C   UNL     1       2.977   0.519  22.570  0.00  0.00    +0.394 C 
ATOM     30  O   UNL     1       3.245   0.417  21.797  0.00  0.00    -0.243 OA
ATOM     31  O   UNL     1       3.382   1.021  23.085  0.00  0.00    -0.243 OA
ENDBRANCH  28  29
ENDBRANCH  27  28
ENDBRANCH  26  27
ENDBRANCH  24  26
BRANCH  20  32
ATOM     32  N   UNL     1      -1.948  -1.071  25.421  0.00  0.00    -0.079 NA
BRANCH  32  33
ATOM     33  S   UNL     1      -2.599  -1.392  25.028  0.00  0.00    +0.082 S 
ATOM     34  O   UNL     1      -2.146  -2.049  24.815  0.00  0.00    -0.151 OA
ATOM     35  O   UNL     1      -3.051  -0.736  25.240  0.00  0.00    -0.151 OA
BRANCH  33  36
ATOM     36  C   UNL     1      -3.249  -1.713  24.635  0.00  0.00    +0.153 A 
ATOM     37  C   UNL     1      -3.840  -1.288  24.247  0.00  0.00    +0.027 A 
ATOM     38  C   UNL     1      -4.379  -1.829  23.933  0.00  0.00    +0.009 A 
ATOM     39  C   UNL     1      -4.121  -2.588  24.126  0.00  0.00    +0.037 A 
ATOM     40  S   UNL     1      -3.422  -2.517  24.560  0.00  0.00    -0.067 S 
ENDBRANCH  33  36
ENDBRANCH  32  33
ENDBRANCH  20  32
TORSDOF 12
ENDMDL
MODEL 2
REMARK VINA RESULT:      -9.3      1.827      3.791
REMARK  Name = 
REMARK  12 active torsions:
REMARK  status: ('A' for Active; 'I' for Inactive)
REMARK    1  A    between atoms: C_2  and  C_4
REMARK    2  A    between atoms: C_4  and  C_5
REMARK    3  A    between atoms: C_4  and  N_15
REMARK    4  A    between atoms: C_5  and  C_6
REMARK    5  A    between atoms: C_16  and  C_18
REMARK    6  A    between atoms: C_20  and  N_32
REMARK    7  A    between atoms: C_24  and  C_26
REMARK    8  A    between atoms: C_26  and  O_27
REMARK    9  A    between atoms: O_27  and  C_28
REMARK   10  A    between atoms: C_28  and  C_29
REMARK   11  A    between atoms: N_32  and  S_33
REMARK   12  A    between atoms: S_33  and  C_36
REMARK                            x       y       z     vdW  Elec       q    Type
REMARK                         _______ _______ _______ _____ _____    ______ ____
ROOT
ATOM     18  C   UNL     1      -0.265   0.777  24.505  0.00  0.00    +0.155 C 
ATOM     19  C   UNL     1      -0.543   1.285  25.093  0.00  0.00    +0.049 C 
ATOM     20  C   UNL     1      -0.152   1.996  25.243  0.00  0.00    +0.102 C 
ATOM     21  C   UNL     1       0.516   2.199  24.804  0.00  0.00    +0.041 C 
ATOM     22  C   UNL     1       0.794   1.692  24.216  0.00  0.00    +0.095 C 
ATOM     23  N   UNL     1       0.403   0.981  24.067  0.00  0.00    -0.271 N 
ATOM     24  C   UNL     1       0.681   0.473  23.478  0.00  0.00    +0.256 C 
ATOM     25  O   UNL     1       0.291  -0.238  23.328  0.00  0.00    -0.272 OA
ENDROOT
BRANCH  18  16
ATOM     15  N   UNL     1      -1.087  -0.302  24.954  0.00  0.00    -0.196 NA
ATOM     16  C   UNL     1      -0.656   0.066  24.355  0.00  0.00    +0.260 C 
ATOM     17  O   UNL     1      -0.615  -0.277  23.605  0.00  0.00    -0.272 OA
BRANCH  15   4
ATOM      4  C   UNL     1      -1.477  -1.013  24.804  0.00  0.00    +0.179 C 
BRANCH   4   2
ATOM      1  N   UNL     1      -1.218  -2.380  24.479  0.00  0.00    -0.086 NA
ATOM      2  C   UNL     1      -1.109  -1.730  24.977  0.00  0.00    +0.281 C 
ATOM      3  O   UNL     1      -0.633  -1.800  25.647  0.00  0.00    -0.270 OA
ENDBRANCH   4   2
BRANCH   4   5
ATOM      5  C   UNL     1      -2.237  -1.006  24.481  0.00  0.00    +0.059 C 
BRANCH   5   6
ATOM      6  C   UNL     1      -2.886  -0.833  24.959  0.00  0.00    +0.001 A 
ATOM      7  C   UNL     1      -3.025  -1.129  25.716  0.00  0.00    +0.095 A 
ATOM      8  N   UNL     1      -3.735  -0.811  25.989  0.00  0.00    -0.244 NA
ATOM      9  C   UNL     1      -4.037  -0.318  25.399  0.00  0.00    +0.081 A 
ATOM     10  C   UNL     1      -3.512  -0.331  24.763  0.00  0.00    +0.015 A 
ATOM     11  C   UNL     1      -3.671   0.115  24.088  0.00  0.00    +0.001 A 
ATOM     12  C   UNL     1      -4.355   0.575  24.049  0.00  0.00    +0.000 A 
ATOM     13  C   UNL     1      -4.880   0.588  24.685  0.00  0.00    +0.002 A 
ATOM     14  C   UNL     1      -4.721   0.142  25.361  0.00  0.00    +0.019 A 
ENDBRANCH   5   6
ENDBRANCH   4   5
ENDBRANCH  15   4
ENDBRANCH  18  16
BRANCH  24  26
ATOM     26  C   UNL     1       1.350   0.677  23.040  0.00  0.00    +0.228 C 
BRANCH  26  27
ATOM     27  O   UNL     1       1.960   0.130  22.940  0.00  0.00    -0.333 OA
BRANCH  27  28
ATOM     28  C   UNL     1       2.559   0.277  22.392  0.00  0.00    +0.257 C 
BRANCH  28  29
ATOM     29  C   UNL     1       3.347   0.147  22.599  0.00  0.00    +0.394 C 
ATOM     30  O   UNL     1       3.577  -0.580  22.912  0.00  0.00    -0.243 OA
ATOM     31  O   UNL     1       3.905   0.746  22.492  0.00  0.00    -0.243 OA
ENDBRANCH  28  29
ENDBRANCH  27  28
ENDBRANCH  26  27
ENDBRANCH  24  26
BRANCH  20  32
ATOM     32  N   UNL     1      -0.430   2.503  25.831  0.00  0.00    -0.079 NA
BRANCH  32  33
ATOM     33  S   UNL     1      -1.034   3.039  25.661  0.00  0.00    +0.082 S 
ATOM     34  O   UNL     1      -0.489   3.534  25.289  0.00  0.00    -0.151 OA
ATOM     35  O   UNL     1      -1.579   2.544  26.034  0.00  0.00    -0.151 OA
BRANCH  33  36
ATOM     36  C   UNL     1      -1.637   3.576  25.492  0.00  0.00    +0.153 A 
ATOM     37  C   UNL     1      -2.442   3.402  25.449  0.00  0.00    +0.027 A 
ATOM     38  C   UNL     1      -2.844   4.100  25.266  0.00  0.00    +0.009 A 
ATOM     39  C   UNL     1      -2.287   4.704  25.195  0.00  0.00    +0.037 A 
ATOM     40  S   UNL     1      -1.541   4.380  25.335  0.00  0.00    -0.067 S 
ENDBRANCH  33  36
ENDBRANCH  32  33
ENDBRANCH  20  32
TORSDOF 12
ENDMDL
MODEL 3
REMARK VINA RESULT:      -9.2      2.080      4.607
REMARK  Name = 
REMARK  12 active torsions:
REMARK  status: ('A' for Active; 'I' for Inactive)
REMARK    1  A    between atoms: C_2  and  C_4
REMARK    2  A    between atoms: C_4  and  C_5
REMARK    3  A    between atoms: C_4  and  N_15
REMARK    4  A    between atoms: C_5  and  C_6
REMARK    5  A    between atoms: C_16  and  C_18
REMARK    6  A    between atoms: C_20  and  N_32
REMARK    7  A    between atoms: C_24  and  C_26
REMARK    8  A    between atoms: C_26  and  O_27
REMARK    9  A    between atoms: O_27  and  C_28
REMARK   10  A    between atoms: C_28  and  C_29
REMARK   11  A    between atoms: N_32  and  S_33
REMARK   12  A    between atoms: S_33  and  C_36
REMARK                            x       y       z     vdW  Elec       q    Type
REMARK                         _______ _______ _______ _____ _____    ______ ____
ROOT
ATOM     18  C   UNL     1      -1.449   2.157  25.348  0.00  0.00    +0.155 C 
ATOM     19  C   UNL     1      -2.102   2.483  24.962  0.00  0.00    +0.049 C 
ATOM     20  C   UNL     1      -2.270   3.287  25.043  0.00  0.00    +0.102 C 
ATOM     21  C   UNL     1      -1.785   3.764  25.510  0.00  0.00    +0.041 C 
ATOM     22  C   UNL     1      -1.133   3.439  25.895  0.00  0.00    +0.095 C 
ATOM     23  N   UNL     1      -0.965   2.635  25.814  0.00  0.00    -0.271 N 
ATOM     24  C   UNL     1      -0.311   2.309  26.199  0.00  0.00    +0.256 C 
ATOM     25  O   UNL     1      -0.143   1.505  26.118  0.00  0.00    -0.272 OA
ENDROOT
BRANCH  18  16
ATOM     15  N   UNL     1      -1.485   0.958  24.573  0.00  0.00    -0.196 NA
ATOM     16  C   UNL     1      -1.281   1.353  25.267  0.00  0.00    +0.260 C 
ATOM     17  O   UNL     1      -0.908   0.947  25.880  0.00  0.00    -0.272 OA
BRANCH  15   4
ATOM      4  C   UNL     1      -1.317   0.154  24.492  0.00  0.00    +0.179 C 
BRANCH   4   2
ATOM      1  N   UNL     1      -0.173  -0.696  24.385  0.00  0.00    -0.086 NA
ATOM      2  C   UNL     1      -0.643  -0.088  24.083  0.00  0.00    +0.281 C 
ATOM      3  O   UNL     1      -0.437   0.278  23.372  0.00  0.00    -0.270 OA
ENDBRANCH   4   2
BRANCH   4   5
ATOM      5  C   UNL     1      -1.824  -0.409  24.820  0.00  0.00    +0.059 C 
BRANCH   5   6
ATOM      6  C   UNL     1      -2.508  -0.632  24.417  0.00  0.00    +0.001 A 
ATOM      7  C   UNL     1      -2.881  -0.202  23.821  0.00  0.00    +0.095 A 
ATOM      8  N   UNL     1      -3.543  -0.629  23.575  0.00  0.00    -0.244 NA
ATOM      9  C   UNL     1      -3.579  -1.323  24.020  0.00  0.00    +0.081 A 
ATOM     10  C   UNL     1      -2.939  -1.325  24.541  0.00  0.00    +0.015 A 
ATOM     11  C   UNL     1      -2.832  -1.957  25.059  0.00  0.00    +0.001 A 
ATOM     12  C   UNL     1      -3.364  -2.588  25.058  0.00  0.00    +0.000 A 
ATOM     13  C   UNL     1      -4.004  -2.586  24.537  0.00  0.00    +0.002 A 
ATOM     14  C   UNL     1      -4.111  -1.954  24.018  0.00  0.00    +0.019 A 
ENDBRANCH   5   6
ENDBRANCH   4   5
ENDBRANCH  15   4
ENDBRANCH  18  16
BRANCH  24  26
ATOM     26  C   UNL     1       0.173   2.787  26.665  0.00  0.00    +0.228 C 
BRANCH  26  27
ATOM     27  O   UNL     1       0.631   2.451  27.264  0.00  0.00    -0.333 OA
BRANCH  27  28
ATOM     28  C   UNL     1       1.151   2.921  27.699  0.00  0.00    +0.257 C 
BRANCH  28  29
ATOM     29  C   UNL     1       1.507   2.621  28.380  0.00  0.00    +0.394 C 
ATOM     30  O   UNL     1       1.041   2.314  28.988  0.00  0.00    -0.243 OA
ATOM     31  O   UNL     1       2.329   2.627  28.453  0.00  0.00    -0.243 OA
ENDBRANCH  28  29
ENDBRANCH  27  28
ENDBRANCH  26  27
ENDBRANCH  24  26
BRANCH  20  32
ATOM     32  N   UNL     1      -2.922   3.612  24.658  0.00  0.00    -0.079 NA
BRANCH  32  33
ATOM     33  S   UNL     1      -3.685   3.391  24.881  0.00  0.00    +0.082 S 
ATOM     34  O   UNL     1      -3.597   3.800  25.591  0.00  0.00    -0.151 OA
ATOM     35  O   UNL     1      -3.774   2.981  24.170  0.00  0.00    -0.151 OA
BRANCH  33  36
ATOM     36  C   UNL     1      -4.448   3.170  25.103  0.00  0.00    +0.153 A 
ATOM     37  C   UNL     1      -4.869   2.522  24.814  0.00  0.00    +0.027 A 
ATOM     38  C   UNL     1      -5.606   2.509  25.186  0.00  0.00    +0.009 A 
ATOM     39  C   UNL     1      -5.640   3.149  25.706  0.00  0.00    +0.037 A 
ATOM     40  S   UNL     1      -4.924   3.557  25.655  0.00  0.00    -0.067 S 
ENDBRANCH  33  36
ENDBRANCH  32  33
ENDBRANCH  20  32
TORSDOF 12
ENDMDL
MODEL 4
REMARK VINA RESULT:      -9.1      2.122      4.473
REMARK  Name = 
REMARK  12 active torsions:
REMARK  status: ('A' for Active; 'I' for Inactive)
REMARK    1  A    between atoms: C_2  and  C_4
REMARK    2  A    between atoms: C_4  and  C_5
REMARK    3  A    between atoms: C_4  and  N_15
REMARK    4  A    between atoms: C_5  and  C_6
REMARK    5  A    between atoms: C_16  and  C_18
REMARK    6  A    between atoms: C_20  and  N_32
REMARK    7  A    between atoms: C_24  and  C_26
REMARK    8  A    between atoms: C_26  and  O_27
REMARK    9  A    between atoms: O_27  and  C_28
REMARK   10  A    between atoms: C_28  and  C_29
REMARK   11  A    between atoms: N_32  and  S_33
REMARK   12  A    between atoms: S_33  and  C_36
REMARK                            x       y       z     vdW  Elec       q    Type
REMARK                         _______ _______ _______ _____ _____    ______ ____
ROOT
ATOM     18  C   UNL     1      -1.090   1.497  24.503  0.00  0.00    +0.155 C 
ATOM     19  C   UNL     1      -1.246   2.107  25.037  0.00  0.00    +0.049 C 
ATOM     20  C   UNL     1      -0.623   2.482  25.427  0.00  0.00    +0.102 C 
ATOM     21  C   UNL     1       0.155   2.247  25.284  0.00  0.00    +0.041 C 
ATOM     22  C   UNL     1       0.310   1.638  24.751  0.00  0.00    +0.095 C 
ATOM     23  N   UNL     1      -0.312   1.263  24.360  0.00  0.00    -0.271 N 
ATOM     24  C   UNL     1      -0.157   0.652  23.826  0.00  0.00    +0.256 C 
ATOM     25  O   UNL     1      -0.779   0.277  23.435  0.00  0.00    -0.272 OA
ENDROOT
BRANCH  18  16
ATOM     15  N   UNL     1      -2.372   0.868  24.537  0.00  0.00    -0.196 NA
ATOM     16  C   UNL     1      -1.713   1.122  24.112  0.00  0.00    +0.260 C 
ATOM     17  O   UNL     1      -1.675   1.002  23.297  0.00  0.00    -0.272 OA
BRANCH  15   4
ATOM      4  C   UNL     1      -2.994   0.493  24.146  0.00  0.00    +0.179 C 
BRANCH   4   2
ATOM      1  N   UNL     1      -4.026   1.461  24.344  0.00  0.00    -0.086 NA
ATOM      2  C   UNL     1      -3.623   0.936  23.850  0.00  0.00    +0.281 C 
ATOM      3  O   UNL     1      -3.850   0.856  23.061  0.00  0.00    -0.270 OA
ENDBRANCH   4   2
BRANCH   4   5
ATOM      5  C   UNL     1      -2.988  -0.328  24.051  0.00  0.00    +0.059 C 
BRANCH   5   6
ATOM      6  C   UNL     1      -3.208  -0.816  24.679  0.00  0.00    +0.001 A 
ATOM      7  C   UNL     1      -3.420  -0.568  25.436  0.00  0.00    +0.095 A 
ATOM      8  N   UNL     1      -3.597  -1.237  25.884  0.00  0.00    -0.244 NA
ATOM      9  C   UNL     1      -3.493  -1.901  25.403  0.00  0.00    +0.081 A 
ATOM     10  C   UNL     1      -3.253  -1.640  24.658  0.00  0.00    +0.015 A 
ATOM     11  C   UNL     1      -3.107  -2.186  24.058  0.00  0.00    +0.001 A 
ATOM     12  C   UNL     1      -3.200  -2.993  24.203  0.00  0.00    +0.000 A 
ATOM     13  C   UNL     1      -3.441  -3.254  24.947  0.00  0.00    +0.002 A 
ATOM     14  C   UNL     1      -3.587  -2.707  25.548  0.00  0.00    +0.019 A 
ENDBRANCH   5   6
ENDBRANCH   4   5
ENDBRANCH  15   4
ENDBRANCH  18  16
BRANCH  24  26
ATOM     26  C   UNL     1       0.621   0.418  23.683  0.00  0.00    +0.228 C 
BRANCH  26  27
ATOM     27  O   UNL     1       0.836   0.134  22.938  0.00  0.00    -0.333 OA
BRANCH  27  28
ATOM     28  C   UNL     1       1.561  -0.245  22.836  0.00  0.00    +0.257 C 
BRANCH  28  29
ATOM     29  C   UNL     1       1.986  -0.140  22.136  0.00  0.00    +0.394 C 
ATOM     30  O   UNL     1       2.737   0.201  22.156  0.00  0.00    -0.243 OA
ATOM     31  O   UNL     1       1.659  -0.376  21.416  0.00  0.00    -0.243 OA
ENDBRANCH  28  29
ENDBRANCH  27  28
ENDBRANCH  26  27
ENDBRANCH  24  26
BRANCH  20  32
ATOM     32  N   UNL     1      -0.779   3.091  25.961  0.00  0.00    -0.079 NA
BRANCH  32  33
ATOM     33  S   UNL     1      -1.074   3.812  25.689  0.00  0.00    +0.082 S 
ATOM     34  O   UNL     1      -1.807   3.639  26.026  0.00  0.00    -0.151 OA
ATOM     35  O   UNL     1      -0.342   3.985  25.351  0.00  0.00    -0.151 OA
BRANCH  33  36
ATOM     36  C   UNL     1      -1.370   4.532  25.417  0.00  0.00    +0.153 A 
ATOM     37  C   UNL     1      -0.938   5.118  25.028  0.00  0.00    +0.027 A 
ATOM     38  C   UNL     1      -1.451   5.742  24.856  0.00  0.00    +0.009 A 
ATOM     39  C   UNL     1      -2.200   5.541  25.140  0.00  0.00    +0.037 A 
ATOM     40  S   UNL     1      -2.150   4.794  25.486  0.00  0.00    -0.067 S 
ENDBRANCH  33  36
ENDBRANCH  32  33
ENDBRANCH  20  32
TORSDOF 12
ENDMDL
MODEL 5
REMARK VINA RESULT:      -8.9      1.750      4.251
REMARK  Name = 
REMARK  12 active torsions:
REMARK  status: ('A' for Active; 'I' for Inactive)
REMARK    1  A    between atoms: C_2  and  C_4
REMARK    2  A    between atoms: C_4  and  C_5
REMARK    3  A    between atoms: C_4  and  N_15
REMARK    4  A    between atoms: C_5  and  C_6
REMARK    5  A    between atoms: C_16  and  C_18
REMARK    6  A    between atoms: C_20  and  N_32
REMARK    7  A    between atoms: C_24  and  C_26
REMARK    8  A    between atoms: C_26  and  O_27
REMARK    9  A    between atoms: O_27  and  C_28
REMARK   10  A    between atoms: C_28  and  C_29
REMARK   11  A    between atoms: N_32  and  S_33
REMARK   12  A    between atoms: S_33  and  C_36
REMARK                            x       y       z     vdW  Elec       q    Type
REMARK                         _______ _______ _______ _____ _____    ______ ____
ROOT
ATOM     18  C   UNL     1      -0.184   0.520  24.298  0.00  0.00    +0.155 C 
ATOM     19  C   UNL     1       0.381   0.830  23.782  0.00  0.00    +0.049 C 
ATOM     20  C   UNL     1       0.731   0.346  23.213  0.00  0.00    +0.102 C 
ATOM     21  C   UNL     1       0.516  -0.449  23.160  0.00  0.00    +0.041 C 
ATOM     22  C   UNL     1      -0.048  -0.759  23.675  0.00  0.00    +0.095 C 
ATOM     23  N   UNL     1      -0.398  -0.275  24.244  0.00  0.00    -0.271 N 
ATOM     24  C   UNL     1      -0.963  -0.586  24.760  0.00  0.00    +0.256 C 
ATOM     25  O   UNL     1      -1.313  -0.102  25.329  0.00  0.00    -0.272 OA
ENDROOT
BRANCH  18  16
ATOM     15  N   UNL     1      -0.861   1.728  24.647  0.00  0.00    -0.196 NA
ATOM     16  C   UNL     1      -0.534   1.004  24.867  0.00  0.00    +0.260 C 
ATOM     17  O   UNL     1      -0.557   0.762  25.656  0.00  0.00    -0.272 OA
BRANCH  15   4
ATOM      4  C   UNL     1      -1.211   2.212  25.216  0.00  0.00    +0.179 C 
BRANCH   4   2
ATOM      1  N   UNL     1      -0.242   3.262  25.236  0.00  0.00    -0.086 NA
ATOM      2  C   UNL     1      -0.752   2.752  25.638  0.00  0.00    +0.281 C 
ATOM      3  O   UNL     1      -0.802   2.782  26.461  0.00  0.00    -0.270 OA
ENDBRANCH   4   2
BRANCH   4   5
ATOM      5  C   UNL     1      -2.022   2.156  25.363  0.00  0.00    +0.059 C 
BRANCH   5   6
ATOM      6  C   UNL     1      -2.556   2.559  24.882  0.00  0.00    +0.001 A 
ATOM      7  C   UNL     1      -2.372   3.164  24.352  0.00  0.00    +0.095 A 
ATOM      8  N   UNL     1      -3.072   3.406  23.988  0.00  0.00    -0.244 NA
ATOM      9  C   UNL     1      -3.689   2.950  24.293  0.00  0.00    +0.081 A 
ATOM     10  C   UNL     1      -3.370   2.427  24.845  0.00  0.00    +0.015 A 
ATOM     11  C   UNL     1      -3.862   1.898  25.242  0.00  0.00    +0.001 A 
ATOM     12  C   UNL     1      -4.673   1.891  25.088  0.00  0.00    +0.000 A 
ATOM     13  C   UNL     1      -4.991   2.415  24.536  0.00  0.00    +0.002 A 
ATOM     14  C   UNL     1      -4.499   2.945  24.138  0.00  0.00    +0.019 A 
ENDBRANCH   5   6
ENDBRANCH   4   5
ENDBRANCH  15   4
ENDBRANCH  18  16
BRANCH  24  26
ATOM     26  C   UNL     1      -1.177  -1.381  24.706  0.00  0.00    +0.228 C 
BRANCH  26  27
ATOM     27  O   UNL     1      -1.953  -1.611  24.867  0.00  0.00    -0.333 OA
BRANCH  27  28
ATOM     28  C   UNL     1      -2.204  -2.374  24.679  0.00  0.00    +0.257 C 
BRANCH  28  29
ATOM     29  C   UNL     1      -3.007  -2.564  24.717  0.00  0.00    +0.394 C 
ATOM     30  O   UNL     1      -3.353  -2.746  25.444  0.00  0.00    -0.243 OA
ATOM     31  O   UNL     1      -3.462  -2.573  24.029  0.00  0.00    -0.243 OA
ENDBRANCH  28  29
ENDBRANCH  27  28
ENDBRANCH  26  27
ENDBRANCH  24  26
BRANCH  20  32
ATOM     32  N   UNL     1       1.294   0.657  22.698  0.00  0.00    -0.079 NA
BRANCH  32  33
ATOM     33  S   UNL     1       2.094   0.488  22.811  0.00  0.00    +0.082 S 
ATOM     34  O   UNL     1       2.157   1.130  23.325  0.00  0.00    -0.151 OA
ATOM     35  O   UNL     1       2.031  -0.155  22.298  0.00  0.00    -0.151 OA
BRANCH  33  36
ATOM     36  C   UNL     1       2.893   0.319  22.925  0.00  0.00    +0.153 A 
ATOM     37  C   UNL     1       3.207  -0.406  23.165  0.00  0.00    +0.027 A 
ATOM     38  C   UNL     1       4.027  -0.328  23.206  0.00  0.00    +0.009 A 
ATOM     39  C   UNL     1       4.221   0.445  22.991  0.00  0.00    +0.037 A 
ATOM     40  S   UNL     1       3.520   0.845  22.817  0.00  0.00    -0.067 S 
ENDBRANCH  33  36
ENDBRANCH  32  33
ENDBRANCH  20  32
TORSDOF 12
ENDMDL
