REMARK  Name = 
REMARK  4 active torsions:
REMARK  status: ('A' for Active; 'I' for Inactive)
REMARK    1  A    between atoms: C_5  and  C_6
REMARK    2  A    between atoms: C_7  and  C_8
REMARK    3  A    between atoms: N_14  and  S_16
REMARK    4  A    between atoms: S_16  and  C_19
REMARK                            x       y       z     vdW  Elec       q    Type
REMARK                         _______ _______ _______ _____ _____    ______ ____
ROOT
ATOM      8  C   UNL     1      -0.397  -0.039   0.000  0.00  0.00    +0.012 A 
ATOM      9  C   UNL     1       0.244  -0.558   0.000  0.00  0.00    +0.041 A 
ATOM     10  C   UNL     1       1.163  -0.557   0.000  0.00  0.00    +0.056 C 
ATOM     11  C   UNL     1       1.713  -0.121   0.000  0.00  0.00    +0.011 C 
ATOM     12  C   UNL     1       1.582  -0.925   0.000  0.00  0.00    +0.041 C 
ATOM     13  C   UNL     1       1.629  -1.912   0.000  0.00  0.00    +0.098 C 
ATOM     14  N   UNL     1       0.813  -2.091   0.000  0.00  0.00    -0.155 NA
ATOM     15  C   UNL     1       1.225  -1.510   0.000  0.00  0.00    +0.102 C 
ATOM     25  C   UNL     1       0.622  -0.936   0.000  0.00  0.00    +0.110 C 
ATOM     26  N   UNL     1       0.115  -1.373   0.000  0.00  0.00    -0.299 N 
ATOM     27  C   UNL     1      -0.655  -1.669   0.000  0.00  0.00    +0.261 A 
ATOM     28  O   UNL     1      -0.784  -2.484   0.000  0.00  0.00    -0.267 OA
ATOM     29  C   UNL     1      -1.296  -1.150   0.000  0.00  0.00    +0.061 A 
ATOM     30  C   UNL     1      -1.167  -0.335   0.000  0.00  0.00    +0.006 A 
ENDROOT
BRANCH  14  16
ATOM     16  S   UNL     1       0.125  -2.547   0.000  0.00  0.00    +0.063 S 
ATOM     17  O   UNL     1      -0.331  -1.859   0.000  0.00  0.00    -0.153 OA
ATOM     18  O   UNL     1       0.581  -3.235   0.000  0.00  0.00    -0.153 OA
BRANCH  16  19
ATOM     19  C   UNL     1      -0.563  -3.003   0.000  0.00  0.00    +0.122 A 
ATOM     20  C   UNL     1      -0.512  -3.826   0.000  0.00  0.00    +0.020 A 
ATOM     21  C   UNL     1      -1.200  -4.282   0.000  0.00  0.00    +0.001 A 
ATOM     22  C   UNL     1      -1.938  -3.914   0.000  0.00  0.00    +0.000 A 
ATOM     23  C   UNL     1      -1.989  -3.091   0.000  0.00  0.00    +0.001 A 
ATOM     24  C   UNL     1      -1.301  -2.635   0.000  0.00  0.00    +0.020 A 
ENDBRANCH  16  19
ENDBRANCH  14  16
BRANCH   8   7
ATOM      6  C   UNL     1      -0.909   1.295   0.000  0.00  0.00    +0.000 C 
ATOM      7  C   UNL     1      -0.268   0.776   0.000  0.00  0.00    +0.001 C 
BRANCH   6   5
ATOM      1 CL   UNL     1      -0.393   4.554   0.000  0.00  0.00    -0.082 Cl
ATOM      2  C   UNL     1      -0.522   3.740   0.000  0.00  0.00    +0.058 A 
ATOM      3  C   UNL     1       0.119   3.220   0.000  0.00  0.00    +0.011 A 
ATOM      4  C   UNL     1      -0.010   2.406   0.000  0.00  0.00    +0.001 A 
ATOM      5  C   UNL     1      -0.780   2.110   0.000  0.00  0.00    +0.000 A 
ATOM     31  C   UNL     1      -1.421   2.629   0.000  0.00  0.00    +0.001 A 
ATOM     32  C   UNL     1      -1.292   3.444   0.000  0.00  0.00    +0.011 A 
ENDBRANCH   6   5
ENDBRANCH   8   7
TORSDOF 4
