MODEL 1
REMARK VINA RESULT:     -13.4      0.000      0.000
REMARK  Name = 
REMARK  6 active torsions:
REMARK  status: ('A' for Active; 'I' for Inactive)
REMARK    1  A    between atoms: C_2  and  C_3
REMARK    2  A    between atoms: C_2  and  C_27
REMARK    3  A    between atoms: C_10  and  N_11
REMARK    4  A    between atoms: N_14  and  C_15
REMARK    5  A    between atoms: N_29  and  C_30
REMARK    6  A    between atoms: C_30  and  C_31
REMARK                            x       y       z     vdW  Elec       q    Type
REMARK                         _______ _______ _______ _____ _____    ______ ____
ROOT
ATOM      3  C   UNL     1      -4.123   3.337  24.977  0.00  0.00    +0.039 C 
ATOM      4  C   UNL     1      -4.708   3.333  25.560  0.00  0.00    +0.003 C 
ATOM      5  C   UNL     1      -5.144   2.648  25.702  0.00  0.00    +0.000 C 
ATOM      6  C   UNL     1      -4.995   1.966  25.262  0.00  0.00    +0.002 C 
ATOM      7  C   UNL     1      -5.579   1.962  25.843  0.00  0.00    +0.000 C 
ATOM      8  C   UNL     1      -5.431   1.280  25.403  0.00  0.00    +0.002 C 
ATOM      9  C   UNL     1      -5.283   0.599  24.963  0.00  0.00    +0.022 C 
ATOM     10  C   UNL     1      -4.698   0.603  24.380  0.00  0.00    +0.097 C 
ATOM     22  C   UNL     1      -4.262   1.288  24.239  0.00  0.00    +0.023 C 
ATOM     23  C   UNL     1      -3.677   1.293  23.657  0.00  0.00    +0.002 C 
ATOM     24  C   UNL     1      -4.410   1.971  24.679  0.00  0.00    +0.032 C 
ATOM     25  C   UNL     1      -3.974   2.656  24.538  0.00  0.00    +0.152 C 
ATOM     26  O   UNL     1      -3.390   2.660  23.955  0.00  0.00    -0.223 OA
ENDROOT
BRANCH  10  11
ATOM     11  N   UNL     1      -4.549  -0.079  23.940  0.00  0.00    -0.189 NA
ATOM     12  C   UNL     1      -4.133  -0.705  24.277  0.00  0.00    +0.343 C 
ATOM     13  O   UNL     1      -3.863  -0.650  25.056  0.00  0.00    -0.249 OA
ATOM     14  N   UNL     1      -3.984  -1.388  23.837  0.00  0.00    -0.161 NA
BRANCH  14  15
ATOM     15  C   UNL     1      -3.568  -2.014  24.174  0.00  0.00    +0.077 A 
ATOM     16  C   UNL     1      -3.975  -2.661  24.485  0.00  0.00    +0.017 A 
ATOM     17  C   UNL     1      -3.557  -3.288  24.823  0.00  0.00    +0.004 A 
ATOM     18  C   UNL     1      -2.734  -3.269  24.849  0.00  0.00    +0.030 A 
ATOM     19  C   UNL     1      -2.326  -2.621  24.537  0.00  0.00    +0.141 A 
ATOM     20  F   UNL     1      -1.501  -2.602  24.564  0.00  0.00    -0.204 F 
ATOM     21  C   UNL     1      -2.743  -1.995  24.200  0.00  0.00    +0.046 A 
ENDBRANCH  14  15
ENDBRANCH  10  11
BRANCH   3   2
ATOM      1  C   UNL     1      -3.898   4.528  24.218  0.00  0.00    +0.010 C 
ATOM      2  C   UNL     1      -3.687   4.024  24.836  0.00  0.00    +0.081 C 
BRANCH   2  27
ATOM     27  C   UNL     1      -3.039   4.205  25.313  0.00  0.00    +0.241 C 
ATOM     28  O   UNL     1      -3.133   4.701  25.967  0.00  0.00    -0.273 OA
ATOM     29  N   UNL     1      -2.295   3.892  25.137  0.00  0.00    -0.201 NA
BRANCH  29  30
ATOM     30  C   UNL     1      -1.648   4.074  25.613  0.00  0.00    +0.141 C 
BRANCH  30  31
ATOM     31  C   UNL     1      -0.998   3.566  25.638  0.00  0.00    -0.001 A 
ATOM     32  C   UNL     1      -0.438   3.582  25.033  0.00  0.00    -0.003 A 
ATOM     33  C   UNL     1       0.211   3.074  25.059  0.00  0.00    -0.000 A 
ATOM     34  C   UNL     1       0.301   2.550  25.690  0.00  0.00    -0.000 A 
ATOM     35  C   UNL     1      -0.260   2.534  26.295  0.00  0.00    -0.000 A 
ATOM     36  C   UNL     1      -0.910   3.043  26.270  0.00  0.00    -0.003 A 
ENDBRANCH  30  31
ENDBRANCH  29  30
ENDBRANCH   2  27
ENDBRANCH   3   2
TORSDOF 6
ENDMDL
MODEL 2
REMARK VINA RESULT:     -13.1      1.844      3.658
REMARK  Name = 
REMARK  6 active torsions:
REMARK  status: ('A' for Active; 'I' for Inactive)
REMARK    1  A    between atoms: C_2  and  C_3
REMARK    2  A    between atoms: C_2  and  C_27
REMARK    3  A    between atoms: C_10  and  N_11
REMARK    4  A    between atoms: N_14  and  C_15
REMARK    5  A    between atoms: N_29  and  C_30
REMARK    6  A    between atoms: C_30  and  C_31
REMARK                            x       y       z     vdW  Elec       q    Type
REMARK                         _______ _______ _______ _____ _____    ______ ____
ROOT
ATOM      3  C   UNL     1      -0.153   2.167  25.215  0.00  0.00    +0.039 C 
ATOM      4  C   UNL     1       0.274   2.173  24.508  0.00  0.00    +0.003 C 
ATOM      5  C   UNL     1       0.313   1.492  24.045  0.00  0.00    +0.000 C 
ATOM      6  C   UNL     1      -0.073   0.805  24.287  0.00  0.00    +0.002 C 
ATOM      7  C   UNL     1       0.352   0.811  23.581  0.00  0.00    +0.000 C 
ATOM      8  C   UNL     1      -0.034   0.124  23.824  0.00  0.00    +0.002 C 
ATOM      9  C   UNL     1      -0.421  -0.563  24.066  0.00  0.00    +0.022 C 
ATOM     10  C   UNL     1      -0.848  -0.569  24.773  0.00  0.00    +0.097 C 
ATOM     22  C   UNL     1      -0.887   0.112  25.236  0.00  0.00    +0.023 C 
ATOM     23  C   UNL     1      -1.313   0.106  25.943  0.00  0.00    +0.002 C 
ATOM     24  C   UNL     1      -0.500   0.799  24.994  0.00  0.00    +0.032 C 
ATOM     25  C   UNL     1      -0.539   1.480  25.457  0.00  0.00    +0.152 C 
ATOM     26  O   UNL     1      -0.966   1.474  26.164  0.00  0.00    -0.223 OA
ENDROOT
BRANCH  10  11
ATOM     11  N   UNL     1      -1.234  -1.257  25.015  0.00  0.00    -0.189 NA
ATOM     12  C   UNL     1      -1.928  -1.494  24.639  0.00  0.00    +0.343 C 
ATOM     13  O   UNL     1      -2.238  -1.043  24.020  0.00  0.00    -0.249 OA
ATOM     14  N   UNL     1      -2.315  -2.182  24.881  0.00  0.00    -0.161 NA
BRANCH  14  15
ATOM     15  C   UNL     1      -3.009  -2.419  24.506  0.00  0.00    +0.077 A 
ATOM     16  C   UNL     1      -3.069  -3.180  24.191  0.00  0.00    +0.017 A 
ATOM     17  C   UNL     1      -3.764  -3.418  23.815  0.00  0.00    +0.004 A 
ATOM     18  C   UNL     1      -4.399  -2.896  23.753  0.00  0.00    +0.030 A 
ATOM     19  C   UNL     1      -4.340  -2.134  24.068  0.00  0.00    +0.141 A 
ATOM     20  F   UNL     1      -4.975  -1.612  24.006  0.00  0.00    -0.204 F 
ATOM     21  C   UNL     1      -3.645  -1.897  24.443  0.00  0.00    +0.046 A 
ENDBRANCH  14  15
ENDBRANCH  10  11
BRANCH   3   2
ATOM      1  C   UNL     1       0.246   2.900  26.376  0.00  0.00    +0.010 C 
ATOM      2  C   UNL     1      -0.192   2.849  25.679  0.00  0.00    +0.081 C 
BRANCH   2  27
ATOM     27  C   UNL     1      -0.669   3.479  25.444  0.00  0.00    +0.241 C 
ATOM     28  O   UNL     1      -0.338   4.121  25.044  0.00  0.00    -0.273 OA
ATOM     29  N   UNL     1      -1.478   3.469  25.610  0.00  0.00    -0.201 NA
BRANCH  29  30
ATOM     30  C   UNL     1      -1.955   4.099  25.375  0.00  0.00    +0.141 C 
BRANCH  30  31
ATOM     31  C   UNL     1      -2.775   4.010  25.352  0.00  0.00    -0.001 A 
ATOM     32  C   UNL     1      -3.216   4.064  26.047  0.00  0.00    -0.003 A 
ATOM     33  C   UNL     1      -4.035   3.975  26.022  0.00  0.00    -0.000 A 
ATOM     34  C   UNL     1      -4.414   3.832  25.303  0.00  0.00    -0.000 A 
ATOM     35  C   UNL     1      -3.973   3.778  24.608  0.00  0.00    -0.000 A 
ATOM     36  C   UNL     1      -3.152   3.867  24.632  0.00  0.00    -0.003 A 
ENDBRANCH  30  31
ENDBRANCH  29  30
ENDBRANCH   2  27
ENDBRANCH   3   2
TORSDOF 6
ENDMDL
MODEL 3
REMARK VINA RESULT:     -12.5      3.460      5.719
REMARK  Name = 
REMARK  6 active torsions:
REMARK  status: ('A' for Active; 'I' for Inactive)
REMARK    1  A    between atoms: C_2  and  C_3
REMARK    2  A    between atoms: C_2  and  C_27
REMARK    3  A    between atoms: C_10  and  N_11
REMARK    4  A    between atoms: N_14  and  C_15
REMARK    5  A    between atoms: N_29  and  C_30
REMARK    6  A    between atoms: C_30  and  C_31
REMARK                            x       y       z     vdW  Elec       q    Type
REMARK                         _______ _______ _______ _____ _____    ______ ____
ROOT
ATOM      3  C   UNL     1      -1.815   0.367  24.906  0.00  0.00    +0.039 C 
ATOM      4  C   UNL     1      -1.731   1.143  25.177  0.00  0.00    +0.003 C 
ATOM      5  C   UNL     1      -1.072   1.587  24.958  0.00  0.00    +0.000 C 
ATOM      6  C   UNL     1      -0.497   1.257  24.468  0.00  0.00    +0.002 C 
ATOM      7  C   UNL     1      -0.413   2.031  24.738  0.00  0.00    +0.000 C 
ATOM      8  C   UNL     1       0.163   1.701  24.247  0.00  0.00    +0.002 C 
ATOM      9  C   UNL     1       0.738   1.371  23.757  0.00  0.00    +0.022 C 
ATOM     10  C   UNL     1       0.654   0.595  23.486  0.00  0.00    +0.097 C 
ATOM     22  C   UNL     1      -0.005   0.152  23.706  0.00  0.00    +0.023 C 
ATOM     23  C   UNL     1      -0.089  -0.623  23.436  0.00  0.00    +0.002 C 
ATOM     24  C   UNL     1      -0.581   0.481  24.197  0.00  0.00    +0.032 C 
ATOM     25  C   UNL     1      -1.240   0.037  24.416  0.00  0.00    +0.152 C 
ATOM     26  O   UNL     1      -1.324  -0.737  24.146  0.00  0.00    -0.223 OA
ENDROOT
BRANCH  10  11
ATOM     11  N   UNL     1       1.230   0.266  22.996  0.00  0.00    -0.189 NA
ATOM     12  C   UNL     1       2.029   0.383  23.161  0.00  0.00    +0.343 C 
ATOM     13  O   UNL     1       2.254   0.830  23.817  0.00  0.00    -0.249 OA
ATOM     14  N   UNL     1       2.605   0.053  22.670  0.00  0.00    -0.161 NA
BRANCH  14  15
ATOM     15  C   UNL     1       3.404   0.170  22.835  0.00  0.00    +0.077 A 
ATOM     16  C   UNL     1       3.780   0.861  22.586  0.00  0.00    +0.017 A 
ATOM     17  C   UNL     1       4.580   0.978  22.751  0.00  0.00    +0.004 A 
ATOM     18  C   UNL     1       5.004   0.405  23.164  0.00  0.00    +0.030 A 
ATOM     19  C   UNL     1       4.628  -0.287  23.414  0.00  0.00    +0.141 A 
ATOM     20  F   UNL     1       5.053  -0.861  23.828  0.00  0.00    -0.204 F 
ATOM     21  C   UNL     1       3.829  -0.404  23.249  0.00  0.00    +0.046 A 
ENDBRANCH  14  15
ENDBRANCH  10  11
BRANCH   3   2
ATOM      1  C   UNL     1      -2.403  -0.670  25.696  0.00  0.00    +0.010 C 
ATOM      2  C   UNL     1      -2.474  -0.077  25.127  0.00  0.00    +0.081 C 
BRANCH   2  27
ATOM     27  C   UNL     1      -3.207   0.073  24.778  0.00  0.00    +0.241 C 
ATOM     28  O   UNL     1      -3.456  -0.377  24.131  0.00  0.00    -0.273 OA
ATOM     29  N   UNL     1      -3.691   0.672  25.074  0.00  0.00    -0.201 NA
BRANCH  29  30
ATOM     30  C   UNL     1      -4.423   0.821  24.726  0.00  0.00    +0.141 C 
BRANCH  30  31
ATOM     31  C   UNL     1      -4.871   1.469  24.968  0.00  0.00    -0.001 A 
ATOM     32  C   UNL     1      -4.732   2.214  24.642  0.00  0.00    -0.003 A 
ATOM     33  C   UNL     1      -5.181   2.861  24.886  0.00  0.00    -0.000 A 
ATOM     34  C   UNL     1      -5.770   2.765  25.455  0.00  0.00    -0.000 A 
ATOM     35  C   UNL     1      -5.910   2.020  25.781  0.00  0.00    -0.000 A 
ATOM     36  C   UNL     1      -5.460   1.372  25.538  0.00  0.00    -0.003 A 
ENDBRANCH  30  31
ENDBRANCH  29  30
ENDBRANCH   2  27
ENDBRANCH   3   2
TORSDOF 6
ENDMDL
MODEL 4
REMARK VINA RESULT:     -12.4      3.308      5.355
REMARK  Name = 
REMARK  6 active torsions:
REMARK  status: ('A' for Active; 'I' for Inactive)
REMARK    1  A    between atoms: C_2  and  C_3
REMARK    2  A    between atoms: C_2  and  C_27
REMARK    3  A    between atoms: C_10  and  N_11
REMARK    4  A    between atoms: N_14  and  C_15
REMARK    5  A    between atoms: N_29  and  C_30
REMARK    6  A    between atoms: C_30  and  C_31
REMARK                            x       y       z     vdW  Elec       q    Type
REMARK                         _______ _______ _______ _____ _____    ______ ____
ROOT
ATOM      3  C   UNL     1       0.199   0.716  23.803  0.00  0.00    +0.039 C 
ATOM      4  C   UNL     1       0.627   1.259  24.256  0.00  0.00    +0.003 C 
ATOM      5  C   UNL     1       0.268   1.955  24.512  0.00  0.00    +0.000 C 
ATOM      6  C   UNL     1      -0.518   2.111  24.316  0.00  0.00    +0.002 C 
ATOM      7  C   UNL     1      -0.091   2.652  24.767  0.00  0.00    +0.000 C 
ATOM      8  C   UNL     1      -0.877   2.808  24.572  0.00  0.00    +0.002 C 
ATOM      9  C   UNL     1      -1.663   2.963  24.377  0.00  0.00    +0.022 C 
ATOM     10  C   UNL     1      -2.091   2.420  23.925  0.00  0.00    +0.097 C 
ATOM     22  C   UNL     1      -1.732   1.723  23.669  0.00  0.00    +0.023 C 
ATOM     23  C   UNL     1      -2.160   1.181  23.217  0.00  0.00    +0.002 C 
ATOM     24  C   UNL     1      -0.946   1.568  23.864  0.00  0.00    +0.032 C 
ATOM     25  C   UNL     1      -0.587   0.871  23.608  0.00  0.00    +0.152 C 
ATOM     26  O   UNL     1      -1.014   0.329  23.157  0.00  0.00    -0.223 OA
ENDROOT
BRANCH  10  11
ATOM     11  N   UNL     1      -2.877   2.576  23.730  0.00  0.00    -0.189 NA
ATOM     12  C   UNL     1      -3.449   2.618  24.322  0.00  0.00    +0.343 C 
ATOM     13  O   UNL     1      -3.235   2.504  25.111  0.00  0.00    -0.249 OA
ATOM     14  N   UNL     1      -4.236   2.773  24.127  0.00  0.00    -0.161 NA
BRANCH  14  15
ATOM     15  C   UNL     1      -4.808   2.815  24.719  0.00  0.00    +0.077 A 
ATOM     16  C   UNL     1      -4.925   3.522  25.130  0.00  0.00    +0.017 A 
ATOM     17  C   UNL     1      -5.498   3.563  25.723  0.00  0.00    +0.004 A 
ATOM     18  C   UNL     1      -5.953   2.900  25.905  0.00  0.00    +0.030 A 
ATOM     19  C   UNL     1      -5.835   2.194  25.493  0.00  0.00    +0.141 A 
ATOM     20  F   UNL     1      -6.291   1.530  25.675  0.00  0.00    -0.204 F 
ATOM     21  C   UNL     1      -5.263   2.152  24.901  0.00  0.00    +0.046 A 
ENDBRANCH  14  15
ENDBRANCH  10  11
BRANCH   3   2
ATOM      1  C   UNL     1       0.335  -0.706  23.873  0.00  0.00    +0.010 C 
ATOM      2  C   UNL     1       0.559   0.019  23.548  0.00  0.00    +0.081 C 
BRANCH   2  27
ATOM     27  C   UNL     1       1.142   0.046  22.965  0.00  0.00    +0.241 C 
ATOM     28  O   UNL     1       0.930   0.043  22.167  0.00  0.00    -0.273 OA
ATOM     29  N   UNL     1       1.939   0.076  23.180  0.00  0.00    -0.201 NA
BRANCH  29  30
ATOM     30  C   UNL     1       2.522   0.103  22.599  0.00  0.00    +0.141 C 
BRANCH  30  31
ATOM     31  C   UNL     1       3.314   0.190  22.812  0.00  0.00    -0.001 A 
ATOM     32  C   UNL     1       3.719  -0.439  23.162  0.00  0.00    -0.003 A 
ATOM     33  C   UNL     1       4.510  -0.352  23.375  0.00  0.00    -0.000 A 
ATOM     34  C   UNL     1       4.899   0.363  23.238  0.00  0.00    -0.000 A 
ATOM     35  C   UNL     1       4.495   0.991  22.888  0.00  0.00    -0.000 A 
ATOM     36  C   UNL     1       3.702   0.905  22.675  0.00  0.00    -0.003 A 
ENDBRANCH  30  31
ENDBRANCH  29  30
ENDBRANCH   2  27
ENDBRANCH   3   2
TORSDOF 6
ENDMDL
MODEL 5
REMARK VINA RESULT:     -12.3      3.263      5.604
REMARK  Name = 
REMARK  6 active torsions:
REMARK  status: ('A' for Active; 'I' for Inactive)
REMARK    1  A    between atoms: C_2  and  C_3
REMARK    2  A    between atoms: C_2  and  C_27
REMARK    3  A    between atoms: C_10  and  N_11
REMARK    4  A    between atoms: N_14  and  C_15
REMARK    5  A    between atoms: N_29  and  C_30
REMARK    6  A    between atoms: C_30  and  C_31
REMARK                            x       y       z     vdW  Elec       q    Type
REMARK                         _______ _______ _______ _____ _____    ______ ____
ROOT
ATOM      3  C   UNL     1      -2.176   1.661  24.267  0.00  0.00    +0.039 C 
ATOM      4  C   UNL     1      -1.898   2.090  24.916  0.00  0.00    +0.003 C 
ATOM      5  C   UNL     1      -1.089   2.124  25.072  0.00  0.00    +0.000 C 
ATOM      6  C   UNL     1      -0.557   1.731  24.579  0.00  0.00    +0.002 C 
ATOM      7  C   UNL     1      -0.280   2.158  25.227  0.00  0.00    +0.000 C 
ATOM      8  C   UNL     1       0.253   1.765  24.734  0.00  0.00    +0.002 C 
ATOM      9  C   UNL     1       0.784   1.371  24.242  0.00  0.00    +0.022 C 
ATOM     10  C   UNL     1       0.506   0.943  23.593  0.00  0.00    +0.097 C 
ATOM     22  C   UNL     1      -0.303   0.909  23.437  0.00  0.00    +0.023 C 
ATOM     23  C   UNL     1      -0.580   0.481  22.789  0.00  0.00    +0.002 C 
ATOM     24  C   UNL     1      -0.835   1.302  23.930  0.00  0.00    +0.032 C 
ATOM     25  C   UNL     1      -1.644   1.268  23.775  0.00  0.00    +0.152 C 
ATOM     26  O   UNL     1      -1.922   0.840  23.126  0.00  0.00    -0.223 OA
ENDROOT
BRANCH  10  11
ATOM     11  N   UNL     1       1.039   0.550  23.100  0.00  0.00    -0.189 NA
ATOM     12  C   UNL     1       1.850   0.635  23.217  0.00  0.00    +0.343 C 
ATOM     13  O   UNL     1       2.131   1.115  23.828  0.00  0.00    -0.249 OA
ATOM     14  N   UNL     1       2.383   0.242  22.724  0.00  0.00    -0.161 NA
BRANCH  14  15
ATOM     15  C   UNL     1       3.194   0.328  22.841  0.00  0.00    +0.077 A 
ATOM     16  C   UNL     1       3.577   1.015  22.589  0.00  0.00    +0.017 A 
ATOM     17  C   UNL     1       4.390   1.100  22.707  0.00  0.00    +0.004 A 
ATOM     18  C   UNL     1       4.819   0.500  23.075  0.00  0.00    +0.030 A 
ATOM     19  C   UNL     1       4.436  -0.187  23.327  0.00  0.00    +0.141 A 
ATOM     20  F   UNL     1       4.866  -0.787  23.695  0.00  0.00    -0.204 F 
ATOM     21  C   UNL     1       3.624  -0.272  23.210  0.00  0.00    +0.046 A 
ENDBRANCH  14  15
ENDBRANCH  10  11
BRANCH   3   2
ATOM      1  C   UNL     1      -3.313   2.098  23.518  0.00  0.00    +0.010 C 
ATOM      2  C   UNL     1      -2.985   1.627  24.112  0.00  0.00    +0.081 C 
BRANCH   2  27
ATOM     27  C   UNL     1      -3.468   1.123  24.551  0.00  0.00    +0.241 C 
ATOM     28  O   UNL     1      -3.887   1.413  25.201  0.00  0.00    -0.273 OA
ATOM     29  N   UNL     1      -3.533   0.327  24.342  0.00  0.00    -0.201 NA
BRANCH  29  30
ATOM     30  C   UNL     1      -4.015  -0.177  24.780  0.00  0.00    +0.141 C 
BRANCH  30  31
ATOM     31  C   UNL     1      -3.950  -0.995  24.689  0.00  0.00    -0.001 A 
ATOM     32  C   UNL     1      -3.546  -1.443  25.252  0.00  0.00    -0.003 A 
ATOM     33  C   UNL     1      -3.481  -2.259  25.159  0.00  0.00    -0.000 A 
ATOM     34  C   UNL     1      -3.820  -2.629  24.504  0.00  0.00    -0.000 A 
ATOM     35  C   UNL     1      -4.224  -2.181  23.941  0.00  0.00    -0.000 A 
ATOM     36  C   UNL     1      -4.289  -1.363  24.033  0.00  0.00    -0.003 A 
ENDBRANCH  30  31
ENDBRANCH  29  30
ENDBRANCH   2  27
ENDBRANCH   3   2
TORSDOF 6
ENDMDL
MODEL 6
REMARK VINA RESULT:     -12.1      2.154      5.395
REMARK  Name = 
REMARK  6 active torsions:
REMARK  status: ('A' for Active; 'I' for Inactive)
REMARK    1  A    between atoms: C_2  and  C_3
REMARK    2  A    between atoms: C_2  and  C_27
REMARK    3  A    between atoms: C_10  and  N_11
REMARK    4  A    between atoms: N_14  and  C_15
REMARK    5  A    between atoms: N_29  and  C_30
REMARK    6  A    between atoms: C_30  and  C_31
REMARK                            x       y       z     vdW  Elec       q    Type
REMARK                         _______ _______ _______ _____ _____    ______ ____
ROOT
ATOM      3  C   UNL     1      -0.253   0.674  24.235  0.00  0.00    +0.039 C 
ATOM      4  C   UNL     1       0.228   0.980  24.833  0.00  0.00    +0.003 C 
ATOM      5  C   UNL     1       0.028   1.690  25.200  0.00  0.00    +0.000 C 
ATOM      6  C   UNL     1      -0.651   2.096  24.971  0.00  0.00    +0.002 C 
ATOM      7  C   UNL     1      -0.171   2.401  25.567  0.00  0.00    +0.000 C 
ATOM      8  C   UNL     1      -0.852   2.808  25.338  0.00  0.00    +0.002 C 
ATOM      9  C   UNL     1      -1.532   3.213  25.108  0.00  0.00    +0.022 C 
ATOM     10  C   UNL     1      -2.013   2.908  24.511  0.00  0.00    +0.097 C 
ATOM     22  C   UNL     1      -1.813   2.197  24.143  0.00  0.00    +0.023 C 
ATOM     23  C   UNL     1      -2.294   1.892  23.546  0.00  0.00    +0.002 C 
ATOM     24  C   UNL     1      -1.133   1.791  24.373  0.00  0.00    +0.032 C 
ATOM     25  C   UNL     1      -0.933   1.080  24.006  0.00  0.00    +0.152 C 
ATOM     26  O   UNL     1      -1.413   0.775  23.409  0.00  0.00    -0.223 OA
ENDROOT
BRANCH  10  11
ATOM     11  N   UNL     1      -2.693   3.315  24.281  0.00  0.00    -0.189 NA
ATOM     12  C   UNL     1      -3.390   3.232  24.715  0.00  0.00    +0.343 C 
ATOM     13  O   UNL     1      -3.406   2.742  25.380  0.00  0.00    -0.249 OA
ATOM     14  N   UNL     1      -4.070   3.639  24.486  0.00  0.00    -0.161 NA
BRANCH  14  15
ATOM     15  C   UNL     1      -4.766   3.556  24.919  0.00  0.00    +0.077 A 
ATOM     16  C   UNL     1      -5.021   4.168  25.412  0.00  0.00    +0.017 A 
ATOM     17  C   UNL     1      -5.718   4.085  25.846  0.00  0.00    +0.004 A 
ATOM     18  C   UNL     1      -6.160   3.392  25.788  0.00  0.00    +0.030 A 
ATOM     19  C   UNL     1      -5.906   2.780  25.296  0.00  0.00    +0.141 A 
ATOM     20  F   UNL     1      -6.349   2.086  25.238  0.00  0.00    -0.204 F 
ATOM     21  C   UNL     1      -5.209   2.863  24.862  0.00  0.00    +0.046 A 
ENDBRANCH  14  15
ENDBRANCH  10  11
BRANCH   3   2
ATOM      1  C   UNL     1       0.303  -0.032  23.123  0.00  0.00    +0.010 C 
ATOM      2  C   UNL     1      -0.052  -0.037  23.868  0.00  0.00    +0.081 C 
BRANCH   2  27
ATOM     27  C   UNL     1      -0.207  -0.754  24.246  0.00  0.00    +0.241 C 
ATOM     28  O   UNL     1       0.406  -1.170  24.610  0.00  0.00    -0.273 OA
ATOM     29  N   UNL     1      -0.976  -1.055  24.261  0.00  0.00    -0.201 NA
BRANCH  29  30
ATOM     30  C   UNL     1      -1.131  -1.771  24.638  0.00  0.00    +0.141 C 
BRANCH  30  31
ATOM     31  C   UNL     1      -1.909  -2.026  24.737  0.00  0.00    -0.001 A 
ATOM     32  C   UNL     1      -2.362  -1.737  25.363  0.00  0.00    -0.003 A 
ATOM     33  C   UNL     1      -3.140  -1.992  25.460  0.00  0.00    -0.000 A 
ATOM     34  C   UNL     1      -3.466  -2.536  24.933  0.00  0.00    -0.000 A 
ATOM     35  C   UNL     1      -3.013  -2.826  24.307  0.00  0.00    -0.000 A 
ATOM     36  C   UNL     1      -2.234  -2.570  24.209  0.00  0.00    -0.003 A 
ENDBRANCH  30  31
ENDBRANCH  29  30
ENDBRANCH   2  27
ENDBRANCH   3   2
TORSDOF 6
ENDMDL
MODEL 7
REMARK VINA RESULT:     -12.1      2.475      5.628
REMARK  Name = 
REMARK  6 active torsions:
REMARK  status: ('A' for Active; 'I' for Inactive)
REMARK    1  A    between atoms: C_2  and  C_3
REMARK    2  A    between atoms: C_2  and  C_27
REMARK    3  A    between atoms: C_10  and  N_11
REMARK    4  A    between atoms: N_14  and  C_15
REMARK    5  A    between atoms: N_29  and  C_30
REMARK    6  A    between atoms: C_30  and  C_31
REMARK                            x       y       z     vdW  Elec       q    Type
REMARK                         _______ _______ _______ _____ _____    ______ ____
ROOT
ATOM      3  C   UNL     1      -2.726   1.983  24.356  0.00  0.00    +0.039 C 
ATOM      4  C   UNL     1      -3.134   2.646  24.632  0.00  0.00    +0.003 C 
ATOM      5  C   UNL     1      -2.773   3.157  25.169  0.00  0.00    +0.000 C 
ATOM      6  C   UNL     1      -2.006   3.007  25.430  0.00  0.00    +0.002 C 
ATOM      7  C   UNL     1      -2.412   3.668  25.706  0.00  0.00    +0.000 C 
ATOM      8  C   UNL     1      -1.644   3.518  25.967  0.00  0.00    +0.002 C 
ATOM      9  C   UNL     1      -0.877   3.368  26.229  0.00  0.00    +0.022 C 
ATOM     10  C   UNL     1      -0.470   2.704  25.952  0.00  0.00    +0.097 C 
ATOM     22  C   UNL     1      -0.830   2.193  25.415  0.00  0.00    +0.023 C 
ATOM     23  C   UNL     1      -0.423   1.531  25.139  0.00  0.00    +0.002 C 
ATOM     24  C   UNL     1      -1.598   2.344  25.154  0.00  0.00    +0.032 C 
ATOM     25  C   UNL     1      -1.959   1.832  24.617  0.00  0.00    +0.152 C 
ATOM     26  O   UNL     1      -1.552   1.170  24.341  0.00  0.00    -0.223 OA
ENDROOT
BRANCH  10  11
ATOM     11  N   UNL     1       0.299   2.554  26.214  0.00  0.00    -0.189 NA
ATOM     12  C   UNL     1       0.481   2.614  27.016  0.00  0.00    +0.343 C 
ATOM     13  O   UNL     1      -0.106   2.824  27.558  0.00  0.00    -0.249 OA
ATOM     14  N   UNL     1       1.249   2.464  27.277  0.00  0.00    -0.161 NA
BRANCH  14  15
ATOM     15  C   UNL     1       1.431   2.523  28.079  0.00  0.00    +0.077 A 
ATOM     16  C   UNL     1       0.926   2.192  28.643  0.00  0.00    +0.017 A 
ATOM     17  C   UNL     1       1.109   2.252  29.445  0.00  0.00    +0.004 A 
ATOM     18  C   UNL     1       1.795   2.642  29.685  0.00  0.00    +0.030 A 
ATOM     19  C   UNL     1       2.300   2.973  29.121  0.00  0.00    +0.141 A 
ATOM     20  F   UNL     1       2.986   3.362  29.361  0.00  0.00    -0.204 F 
ATOM     21  C   UNL     1       2.117   2.913  28.319  0.00  0.00    +0.046 A 
ENDBRANCH  14  15
ENDBRANCH  10  11
BRANCH   3   2
ATOM      1  C   UNL     1      -2.858   1.474  23.026  0.00  0.00    +0.010 C 
ATOM      2  C   UNL     1      -3.088   1.471  23.818  0.00  0.00    +0.081 C 
BRANCH   2  27
ATOM     27  C   UNL     1      -3.680   0.957  24.074  0.00  0.00    +0.241 C 
ATOM     28  O   UNL     1      -4.421   1.253  24.285  0.00  0.00    -0.273 OA
ATOM     29  N   UNL     1      -3.532   0.146  24.119  0.00  0.00    -0.201 NA
BRANCH  29  30
ATOM     30  C   UNL     1      -4.123  -0.368  24.374  0.00  0.00    +0.141 C 
BRANCH  30  31
ATOM     31  C   UNL     1      -3.964  -1.173  24.454  0.00  0.00    -0.001 A 
ATOM     32  C   UNL     1      -4.192  -1.701  23.863  0.00  0.00    -0.003 A 
ATOM     33  C   UNL     1      -4.033  -2.505  23.944  0.00  0.00    -0.000 A 
ATOM     34  C   UNL     1      -3.645  -2.784  24.617  0.00  0.00    -0.000 A 
ATOM     35  C   UNL     1      -3.417  -2.256  25.209  0.00  0.00    -0.000 A 
ATOM     36  C   UNL     1      -3.576  -1.450  25.128  0.00  0.00    -0.003 A 
ENDBRANCH  30  31
ENDBRANCH  29  30
ENDBRANCH   2  27
ENDBRANCH   3   2
TORSDOF 6
ENDMDL
MODEL 8
REMARK VINA RESULT:     -11.7      1.632      3.603
REMARK  Name = 
REMARK  6 active torsions:
REMARK  status: ('A' for Active; 'I' for Inactive)
REMARK    1  A    between atoms: C_2  and  C_3
REMARK    2  A    between atoms: C_2  and  C_27
REMARK    3  A    between atoms: C_10  and  N_11
REMARK    4  A    between atoms: N_14  and  C_15
REMARK    5  A    between atoms: N_29  and  C_30
REMARK    6  A    between atoms: C_30  and  C_31
REMARK                            x       y       z     vdW  Elec       q    Type
REMARK                         _______ _______ _______ _____ _____    ______ ____
ROOT
ATOM      3  C   UNL     1      -2.209   3.709  25.172  0.00  0.00    +0.039 C 
ATOM      4  C   UNL     1      -1.767   3.903  25.842  0.00  0.00    +0.003 C 
ATOM      5  C   UNL     1      -1.144   3.419  26.079  0.00  0.00    +0.000 C 
ATOM      6  C   UNL     1      -0.961   2.740  25.648  0.00  0.00    +0.002 C 
ATOM      7  C   UNL     1      -0.520   2.934  26.316  0.00  0.00    +0.000 C 
ATOM      8  C   UNL     1      -0.337   2.255  25.884  0.00  0.00    +0.002 C 
ATOM      9  C   UNL     1      -0.155   1.577  25.453  0.00  0.00    +0.022 C 
ATOM     10  C   UNL     1      -0.597   1.383  24.783  0.00  0.00    +0.097 C 
ATOM     22  C   UNL     1      -1.221   1.867  24.546  0.00  0.00    +0.023 C 
ATOM     23  C   UNL     1      -1.662   1.673  23.877  0.00  0.00    +0.002 C 
ATOM     24  C   UNL     1      -1.403   2.546  24.978  0.00  0.00    +0.032 C 
ATOM     25  C   UNL     1      -2.027   3.030  24.741  0.00  0.00    +0.152 C 
ATOM     26  O   UNL     1      -2.469   2.836  24.071  0.00  0.00    -0.223 OA
ENDROOT
BRANCH  10  11
ATOM     11  N   UNL     1      -0.414   0.703  24.351  0.00  0.00    -0.189 NA
ATOM     12  C   UNL     1      -0.665  -0.035  24.617  0.00  0.00    +0.343 C 
ATOM     13  O   UNL     1      -1.101  -0.096  25.316  0.00  0.00    -0.249 OA
ATOM     14  N   UNL     1      -0.482  -0.714  24.185  0.00  0.00    -0.161 NA
BRANCH  14  15
ATOM     15  C   UNL     1      -0.734  -1.453  24.451  0.00  0.00    +0.077 A 
ATOM     16  C   UNL     1      -0.279  -1.871  25.000  0.00  0.00    +0.017 A 
ATOM     17  C   UNL     1      -0.531  -2.610  25.266  0.00  0.00    +0.004 A 
ATOM     18  C   UNL     1      -1.236  -2.932  24.985  0.00  0.00    +0.030 A 
ATOM     19  C   UNL     1      -1.691  -2.514  24.436  0.00  0.00    +0.141 A 
ATOM     20  F   UNL     1      -2.397  -2.836  24.155  0.00  0.00    -0.204 F 
ATOM     21  C   UNL     1      -1.440  -1.775  24.170  0.00  0.00    +0.046 A 
ENDBRANCH  14  15
ENDBRANCH  10  11
BRANCH   3   2
ATOM      1  C   UNL     1      -2.745   4.694  24.285  0.00  0.00    +0.010 C 
ATOM      2  C   UNL     1      -2.834   4.194  24.936  0.00  0.00    +0.081 C 
BRANCH   2  27
ATOM     27  C   UNL     1      -3.547   4.179  25.350  0.00  0.00    +0.241 C 
ATOM     28  O   UNL     1      -3.657   4.675  26.001  0.00  0.00    -0.273 OA
ATOM     29  N   UNL     1      -4.151   3.668  25.114  0.00  0.00    -0.201 NA
BRANCH  29  30
ATOM     30  C   UNL     1      -4.863   3.654  25.528  0.00  0.00    +0.141 C 
BRANCH  30  31
ATOM     31  C   UNL     1      -5.339   2.980  25.508  0.00  0.00    -0.001 A 
ATOM     32  C   UNL     1      -5.566   2.655  24.784  0.00  0.00    -0.003 A 
ATOM     33  C   UNL     1      -6.041   1.982  24.765  0.00  0.00    -0.000 A 
ATOM     34  C   UNL     1      -6.289   1.632  25.470  0.00  0.00    -0.000 A 
ATOM     35  C   UNL     1      -6.062   1.956  26.194  0.00  0.00    -0.000 A 
ATOM     36  C   UNL     1      -5.587   2.631  26.213  0.00  0.00    -0.003 A 
ENDBRANCH  30  31
ENDBRANCH  29  30
ENDBRANCH   2  27
ENDBRANCH   3   2
TORSDOF 6
ENDMDL
