MODEL 1
REMARK VINA RESULT:     -10.8      0.000      0.000
REMARK  Name = 
REMARK  8 active torsions:
REMARK  status: ('A' for Active; 'I' for Inactive)
REMARK    1  A    between atoms: N_2  and  C_3
REMARK    2  A    between atoms: N_2  and  C_6
REMARK    3  A    between atoms: C_3  and  C_4
REMARK    4  A    between atoms: C_6  and  C_7
REMARK    5  A    between atoms: C_14  and  C_15
REMARK    6  A    between atoms: C_15  and  N_16
REMARK    7  A    between atoms: N_16  and  S_17
REMARK    8  A    between atoms: S_17  and  C_20
REMARK                            x       y       z     vdW  Elec       q    Type
REMARK                         _______ _______ _______ _____ _____    ______ ____
ROOT
ATOM      7  C   UNL     1      -3.386   3.045  25.051  0.00  0.00    +0.032 C 
ATOM      8  C   UNL     1      -2.799   2.539  24.983  0.00  0.00    +0.073 C 
ATOM      9  N   UNL     1      -3.598   2.378  24.855  0.00  0.00    -0.272 NA
ATOM     10  C   UNL     1      -4.125   3.268  25.030  0.00  0.00    +0.072 C 
ATOM     11  C   UNL     1      -4.687   3.599  25.055  0.00  0.00    +0.017 C 
ATOM     12  C   UNL     1      -4.168   2.880  24.924  0.00  0.00    +0.005 C 
ATOM     13  C   UNL     1      -4.583   2.143  24.687  0.00  0.00    +0.018 C 
ATOM     14  C   UNL     1      -4.036   1.616  24.609  0.00  0.00    +0.077 C 
ENDROOT
BRANCH   7   6
ATOM      6  C   UNL     1      -3.195   3.818  25.273  0.00  0.00    +0.074 C 
BRANCH   6   2
ATOM      1  C   UNL     1      -2.080   3.728  26.162  0.00  0.00    +0.090 C 
ATOM      2  N   UNL     1      -2.417   4.011  25.464  0.00  0.00    -0.268 NA
BRANCH   2   3
ATOM      3  C   UNL     1      -1.975   4.488  24.956  0.00  0.00    +0.099 C 
BRANCH   3   4
ATOM      4  C   UNL     1      -1.409   5.004  25.263  0.00  0.00    -0.009 C 
ATOM      5  C   UNL     1      -0.928   5.439  24.753  0.00  0.00    -0.003 C 
ENDBRANCH   3   4
ENDBRANCH   2   3
ENDBRANCH   6   2
ENDBRANCH   7   6
BRANCH  14  15
ATOM     15  C   UNL     1      -3.913   0.824  24.415  0.00  0.00    +0.131 C 
BRANCH  15  16
ATOM     16  N   UNL     1      -4.362   0.236  24.781  0.00  0.00    -0.076 NA
BRANCH  16  17
ATOM     17  S   UNL     1      -4.161  -0.557  24.684  0.00  0.00    +0.077 S 
ATOM     18  O   UNL     1      -4.232  -0.474  23.866  0.00  0.00    -0.152 OA
ATOM     19  O   UNL     1      -4.090  -0.641  25.502  0.00  0.00    -0.152 OA
BRANCH  17  20
ATOM     20  C   UNL     1      -3.960  -1.352  24.586  0.00  0.00    +0.124 A 
ATOM     21  C   UNL     1      -4.238  -1.770  23.932  0.00  0.00    +0.020 A 
ATOM     22  C   UNL     1      -4.037  -2.564  23.834  0.00  0.00    +0.001 A 
ATOM     23  C   UNL     1      -3.558  -2.940  24.390  0.00  0.00    +0.000 A 
ATOM     24  C   UNL     1      -3.279  -2.522  25.044  0.00  0.00    +0.001 A 
ATOM     25  C   UNL     1      -3.480  -1.728  25.142  0.00  0.00    +0.020 A 
ENDBRANCH  17  20
ENDBRANCH  16  17
ENDBRANCH  15  16
ENDBRANCH  14  15
TORSDOF 8
ENDMDL
MODEL 2
REMARK VINA RESULT:     -10.0      1.575      2.274
REMARK  Name = 
REMARK  8 active torsions:
REMARK  status: ('A' for Active; 'I' for Inactive)
REMARK    1  A    between atoms: N_2  and  C_3
REMARK    2  A    between atoms: N_2  and  C_6
REMARK    3  A    between atoms: C_3  and  C_4
REMARK    4  A    between atoms: C_6  and  C_7
REMARK    5  A    between atoms: C_14  and  C_15
REMARK    6  A    between atoms: C_15  and  N_16
REMARK    7  A    between atoms: N_16  and  S_17
REMARK    8  A    between atoms: S_17  and  C_20
REMARK                            x       y       z     vdW  Elec       q    Type
REMARK                         _______ _______ _______ _____ _____    ______ ____
ROOT
ATOM      7  C   UNL     1      -1.227   2.433  25.543  0.00  0.00    +0.032 C 
ATOM      8  C   UNL     1      -1.879   2.342  25.127  0.00  0.00    +0.073 C 
ATOM      9  N   UNL     1      -1.365   1.742  25.365  0.00  0.00    -0.272 NA
ATOM     10  C   UNL     1      -0.590   2.194  25.907  0.00  0.00    +0.072 C 
ATOM     11  C   UNL     1      -0.034   2.150  26.247  0.00  0.00    +0.017 C 
ATOM     12  C   UNL     1      -0.729   1.838  25.774  0.00  0.00    +0.005 C 
ATOM     13  C   UNL     1      -0.749   0.970  25.645  0.00  0.00    +0.018 C 
ATOM     14  C   UNL     1      -1.380   0.838  25.236  0.00  0.00    +0.077 C 
ENDROOT
BRANCH   7   6
ATOM      6  C   UNL     1      -1.028   3.202  25.769  0.00  0.00    +0.074 C 
BRANCH   6   2
ATOM      1  C   UNL     1      -2.277   3.888  25.868  0.00  0.00    +0.090 C 
ATOM      2  N   UNL     1      -1.514   3.833  25.558  0.00  0.00    -0.268 NA
BRANCH   2   3
ATOM      3  C   UNL     1      -1.238   4.409  25.037  0.00  0.00    +0.099 C 
BRANCH   3   4
ATOM      4  C   UNL     1      -1.458   5.198  25.139  0.00  0.00    -0.009 C 
ATOM      5  C   UNL     1      -1.060   5.794  24.731  0.00  0.00    -0.003 C 
ENDBRANCH   3   4
ENDBRANCH   2   3
ENDBRANCH   6   2
ENDBRANCH   7   6
BRANCH  14  15
ATOM     15  C   UNL     1      -1.817   0.235  24.884  0.00  0.00    +0.131 C 
BRANCH  15  16
ATOM     16  N   UNL     1      -2.090  -0.396  25.340  0.00  0.00    -0.076 NA
BRANCH  16  17
ATOM     17  S   UNL     1      -2.607  -0.950  25.013  0.00  0.00    +0.077 S 
ATOM     18  O   UNL     1      -3.157  -0.785  25.605  0.00  0.00    -0.152 OA
ATOM     19  O   UNL     1      -2.056  -1.115  24.421  0.00  0.00    -0.152 OA
BRANCH  17  20
ATOM     20  C   UNL     1      -3.124  -1.503  24.686  0.00  0.00    +0.124 A 
ATOM     21  C   UNL     1      -3.016  -2.307  24.835  0.00  0.00    +0.020 A 
ATOM     22  C   UNL     1      -3.533  -2.861  24.509  0.00  0.00    +0.001 A 
ATOM     23  C   UNL     1      -4.159  -2.611  24.032  0.00  0.00    +0.000 A 
ATOM     24  C   UNL     1      -4.267  -1.807  23.883  0.00  0.00    +0.001 A 
ATOM     25  C   UNL     1      -3.750  -1.253  24.210  0.00  0.00    +0.020 A 
ENDBRANCH  17  20
ENDBRANCH  16  17
ENDBRANCH  15  16
ENDBRANCH  14  15
TORSDOF 8
ENDMDL
MODEL 3
REMARK VINA RESULT:      -9.6      1.792      5.334
REMARK  Name = 
REMARK  8 active torsions:
REMARK  status: ('A' for Active; 'I' for Inactive)
REMARK    1  A    between atoms: N_2  and  C_3
REMARK    2  A    between atoms: N_2  and  C_6
REMARK    3  A    between atoms: C_3  and  C_4
REMARK    4  A    between atoms: C_6  and  C_7
REMARK    5  A    between atoms: C_14  and  C_15
REMARK    6  A    between atoms: C_15  and  N_16
REMARK    7  A    between atoms: N_16  and  S_17
REMARK    8  A    between atoms: S_17  and  C_20
REMARK                            x       y       z     vdW  Elec       q    Type
REMARK                         _______ _______ _______ _____ _____    ______ ____
ROOT
ATOM      7  C   UNL     1      -3.972   0.274  24.959  0.00  0.00    +0.032 C 
ATOM      8  C   UNL     1      -3.203   0.342  24.866  0.00  0.00    +0.073 C 
ATOM      9  N   UNL     1      -3.749   0.961  24.879  0.00  0.00    -0.272 NA
ATOM     10  C   UNL     1      -4.696   0.535  25.022  0.00  0.00    +0.072 C 
ATOM     11  C   UNL     1      -5.343   0.598  25.091  0.00  0.00    +0.017 C 
ATOM     12  C   UNL     1      -4.502   0.887  24.972  0.00  0.00    +0.005 C 
ATOM     13  C   UNL     1      -4.399   1.755  24.891  0.00  0.00    +0.018 C 
ATOM     14  C   UNL     1      -3.650   1.865  24.796  0.00  0.00    +0.077 C 
ENDROOT
BRANCH   7   6
ATOM      6  C   UNL     1      -4.275  -0.488  25.055  0.00  0.00    +0.074 C 
BRANCH   6   2
ATOM      1  C   UNL     1      -3.282  -1.218  25.777  0.00  0.00    +0.090 C 
ATOM      2  N   UNL     1      -3.763  -1.131  25.112  0.00  0.00    -0.268 NA
BRANCH   2   3
ATOM      3  C   UNL     1      -3.730  -1.687  24.504  0.00  0.00    +0.099 C 
BRANCH   3   4
ATOM      4  C   UNL     1      -3.615  -2.485  24.680  0.00  0.00    -0.009 C 
ATOM      5  C   UNL     1      -3.655  -3.050  24.080  0.00  0.00    -0.003 C 
ENDBRANCH   3   4
ENDBRANCH   2   3
ENDBRANCH   6   2
ENDBRANCH   7   6
BRANCH  14  15
ATOM     15  C   UNL     1      -3.084   2.454  24.684  0.00  0.00    +0.131 C 
BRANCH  15  16
ATOM     16  N   UNL     1      -3.011   3.064  25.234  0.00  0.00    -0.076 NA
BRANCH  16  17
ATOM     17  S   UNL     1      -2.413   3.627  25.150  0.00  0.00    +0.077 S 
ATOM     18  O   UNL     1      -2.152   3.462  25.915  0.00  0.00    -0.152 OA
ATOM     19  O   UNL     1      -2.675   3.791  24.385  0.00  0.00    -0.152 OA
BRANCH  17  20
ATOM     20  C   UNL     1      -1.815   4.189  25.067  0.00  0.00    +0.124 A 
ATOM     21  C   UNL     1      -1.045   3.949  24.896  0.00  0.00    +0.020 A 
ATOM     22  C   UNL     1      -0.446   4.512  24.812  0.00  0.00    +0.001 A 
ATOM     23  C   UNL     1      -0.619   5.314  24.900  0.00  0.00    +0.000 A 
ATOM     24  C   UNL     1      -1.390   5.553  25.071  0.00  0.00    +0.001 A 
ATOM     25  C   UNL     1      -1.988   4.991  25.154  0.00  0.00    +0.020 A 
ENDBRANCH  17  20
ENDBRANCH  16  17
ENDBRANCH  15  16
ENDBRANCH  14  15
TORSDOF 8
ENDMDL
MODEL 4
REMARK VINA RESULT:      -9.6      2.391      5.800
REMARK  Name = 
REMARK  8 active torsions:
REMARK  status: ('A' for Active; 'I' for Inactive)
REMARK    1  A    between atoms: N_2  and  C_3
REMARK    2  A    between atoms: N_2  and  C_6
REMARK    3  A    between atoms: C_3  and  C_4
REMARK    4  A    between atoms: C_6  and  C_7
REMARK    5  A    between atoms: C_14  and  C_15
REMARK    6  A    between atoms: C_15  and  N_16
REMARK    7  A    between atoms: N_16  and  S_17
REMARK    8  A    between atoms: S_17  and  C_20
REMARK                            x       y       z     vdW  Elec       q    Type
REMARK                         _______ _______ _______ _____ _____    ______ ____
ROOT
ATOM      7  C   UNL     1      -1.889  -0.669  25.174  0.00  0.00    +0.032 C 
ATOM      8  C   UNL     1      -2.454  -0.144  25.280  0.00  0.00    +0.073 C 
ATOM      9  N   UNL     1      -1.642   0.007  25.274  0.00  0.00    -0.272 NA
ATOM     10  C   UNL     1      -1.158  -0.908  25.108  0.00  0.00    +0.072 C 
ATOM     11  C   UNL     1      -0.610  -1.255  25.031  0.00  0.00    +0.017 C 
ATOM     12  C   UNL     1      -1.095  -0.513  25.170  0.00  0.00    +0.005 C 
ATOM     13  C   UNL     1      -0.641   0.231  25.274  0.00  0.00    +0.018 C 
ATOM     14  C   UNL     1      -1.164   0.777  25.382  0.00  0.00    +0.077 C 
ENDROOT
BRANCH   7   6
ATOM      6  C   UNL     1      -2.121  -1.453  25.055  0.00  0.00    +0.074 C 
BRANCH   6   2
ATOM      1  C   UNL     1      -3.357  -1.604  25.755  0.00  0.00    +0.090 C 
ATOM      2  N   UNL     1      -2.921  -1.651  25.056  0.00  0.00    -0.268 NA
BRANCH   2   3
ATOM      3  C   UNL     1      -3.285  -1.898  24.358  0.00  0.00    +0.099 C 
BRANCH   3   4
ATOM      4  C   UNL     1      -3.883  -2.466  24.383  0.00  0.00    -0.009 C 
ATOM      5  C   UNL     1      -4.286  -2.672  23.693  0.00  0.00    -0.003 C 
ENDBRANCH   3   4
ENDBRANCH   2   3
ENDBRANCH   6   2
ENDBRANCH   7   6
BRANCH  14  15
ATOM     15  C   UNL     1      -1.246   1.586  25.517  0.00  0.00    +0.131 C 
BRANCH  15  16
ATOM     16  N   UNL     1      -0.787   2.123  25.092  0.00  0.00    -0.076 NA
BRANCH  16  17
ATOM     17  S   UNL     1      -0.974   2.926  25.103  0.00  0.00    +0.077 S 
ATOM     18  O   UNL     1      -0.824   2.950  25.914  0.00  0.00    -0.152 OA
ATOM     19  O   UNL     1      -1.125   2.903  24.292  0.00  0.00    -0.152 OA
BRANCH  17  20
ATOM     20  C   UNL     1      -1.162   3.730  25.114  0.00  0.00    +0.124 A 
ATOM     21  C   UNL     1      -0.622   4.284  24.828  0.00  0.00    +0.020 A 
ATOM     22  C   UNL     1      -0.810   5.087  24.839  0.00  0.00    +0.001 A 
ATOM     23  C   UNL     1      -1.537   5.337  25.138  0.00  0.00    +0.000 A 
ATOM     24  C   UNL     1      -2.077   4.783  25.425  0.00  0.00    +0.001 A 
ATOM     25  C   UNL     1      -1.890   3.979  25.413  0.00  0.00    +0.020 A 
ENDBRANCH  17  20
ENDBRANCH  16  17
ENDBRANCH  15  16
ENDBRANCH  14  15
TORSDOF 8
ENDMDL
MODEL 5
REMARK VINA RESULT:      -8.4      2.033      4.681
REMARK  Name = 
REMARK  8 active torsions:
REMARK  status: ('A' for Active; 'I' for Inactive)
REMARK    1  A    between atoms: N_2  and  C_3
REMARK    2  A    between atoms: N_2  and  C_6
REMARK    3  A    between atoms: C_3  and  C_4
REMARK    4  A    between atoms: C_6  and  C_7
REMARK    5  A    between atoms: C_14  and  C_15
REMARK    6  A    between atoms: C_15  and  N_16
REMARK    7  A    between atoms: N_16  and  S_17
REMARK    8  A    between atoms: S_17  and  C_20
REMARK                            x       y       z     vdW  Elec       q    Type
REMARK                         _______ _______ _______ _____ _____    ______ ____
ROOT
ATOM      7  C   UNL     1      -2.408  -1.184  24.803  0.00  0.00    +0.032 C 
ATOM      8  C   UNL     1      -2.274  -0.477  25.098  0.00  0.00    +0.073 C 
ATOM      9  N   UNL     1      -3.014  -0.808  24.942  0.00  0.00    -0.272 NA
ATOM     10  C   UNL     1      -2.848  -1.767  24.552  0.00  0.00    +0.072 C 
ATOM     11  C   UNL     1      -3.077  -2.331  24.314  0.00  0.00    +0.017 C 
ATOM     12  C   UNL     1      -3.137  -1.502  24.653  0.00  0.00    +0.005 C 
ATOM     13  C   UNL     1      -3.950  -1.188  24.760  0.00  0.00    +0.018 C 
ATOM     14  C   UNL     1      -3.861  -0.487  25.050  0.00  0.00    +0.077 C 
ENDROOT
BRANCH   7   6
ATOM      6  C   UNL     1      -1.750  -1.652  24.629  0.00  0.00    +0.074 C 
BRANCH   6   2
ATOM      1  C   UNL     1      -0.591  -1.414  25.430  0.00  0.00    +0.090 C 
ATOM      2  N   UNL     1      -0.991  -1.342  24.712  0.00  0.00    -0.268 NA
BRANCH   2   3
ATOM      3  C   UNL     1      -0.630  -0.959  24.076  0.00  0.00    +0.099 C 
BRANCH   3   4
ATOM      4  C   UNL     1       0.191  -0.881  24.053  0.00  0.00    -0.009 C 
ATOM      5  C   UNL     1       0.547  -0.442  23.452  0.00  0.00    -0.003 C 
ENDBRANCH   3   4
ENDBRANCH   2   3
ENDBRANCH   6   2
ENDBRANCH   7   6
BRANCH  14  15
ATOM     15  C   UNL     1      -4.284   0.171  25.310  0.00  0.00    +0.131 C 
BRANCH  15  16
ATOM     16  N   UNL     1      -4.675   0.651  24.764  0.00  0.00    -0.076 NA
BRANCH  16  17
ATOM     17  S   UNL     1      -4.861   1.431  24.959  0.00  0.00    +0.077 S 
ATOM     18  O   UNL     1      -4.500   1.690  24.263  0.00  0.00    -0.152 OA
ATOM     19  O   UNL     1      -5.222   1.172  25.654  0.00  0.00    -0.152 OA
BRANCH  17  20
ATOM     20  C   UNL     1      -5.047   2.211  25.152  0.00  0.00    +0.124 A 
ATOM     21  C   UNL     1      -4.490   2.809  25.038  0.00  0.00    +0.020 A 
ATOM     22  C   UNL     1      -4.676   3.589  25.232  0.00  0.00    +0.001 A 
ATOM     23  C   UNL     1      -5.419   3.772  25.540  0.00  0.00    +0.000 A 
ATOM     24  C   UNL     1      -5.977   3.174  25.654  0.00  0.00    +0.001 A 
ATOM     25  C   UNL     1      -5.790   2.394  25.460  0.00  0.00    +0.020 A 
ENDBRANCH  17  20
ENDBRANCH  16  17
ENDBRANCH  15  16
ENDBRANCH  14  15
TORSDOF 8
ENDMDL
