MODEL 1
REMARK VINA RESULT:      -9.8      0.000      0.000
REMARK  Name = 
REMARK  8 active torsions:
REMARK  status: ('A' for Active; 'I' for Inactive)
REMARK    1  A    between atoms: O_2  and  C_3
REMARK    2  A    between atoms: C_6  and  C_7
REMARK    3  A    between atoms: C_7  and  N_8
REMARK    4  A    between atoms: N_8  and  C_9
REMARK    5  A    between atoms: C_12  and  C_13
REMARK    6  A    between atoms: C_13  and  N_14
REMARK    7  A    between atoms: C_15  and  C_17
REMARK    8  A    between atoms: C_17  and  C_18
REMARK                            x       y       z     vdW  Elec       q    Type
REMARK                         _______ _______ _______ _____ _____    ______ ____
ROOT
ATOM      9  C   UNL     1      -4.263   1.232  24.637  0.00  0.00    +0.135 C 
ATOM     10  C   UNL     1      -4.724   1.558  25.238  0.00  0.00    +0.162 C 
ATOM     11  O   UNL     1      -4.523   2.356  25.308  0.00  0.00    -0.350 OA
ATOM     12  C   UNL     1      -3.939   2.522  24.750  0.00  0.00    +0.169 C 
ATOM     22  C   UNL     1      -3.778   1.827  24.334  0.00  0.00    +0.199 C 
ATOM     23  O   UNL     1      -3.229   1.743  23.725  0.00  0.00    -0.219 OA
ENDROOT
BRANCH   9   8
ATOM      8  N   UNL     1      -4.284   0.447  24.382  0.00  0.00    -0.209 NA
BRANCH   8   7
ATOM      7  C   UNL     1      -4.412  -0.159  24.925  0.00  0.00    +0.115 C 
BRANCH   7   6
ATOM      3  C   UNL     1      -3.626  -2.453  24.427  0.00  0.00    +0.139 A 
ATOM      4  C   UNL     1      -3.390  -2.078  25.123  0.00  0.00    +0.037 A 
ATOM      5  C   UNL     1      -3.652  -1.314  25.289  0.00  0.00    +0.000 A 
ATOM      6  C   UNL     1      -4.150  -0.924  24.759  0.00  0.00    -0.005 A 
ATOM     24  C   UNL     1      -4.386  -1.299  24.064  0.00  0.00    +0.000 A 
ATOM     25  C   UNL     1      -4.124  -2.064  23.898  0.00  0.00    +0.037 A 
BRANCH   3   2
ATOM      1  C   UNL     1      -2.562  -3.360  24.134  0.00  0.00    +0.252 C 
ATOM      2  O   UNL     1      -3.364  -3.217  24.261  0.00  0.00    -0.471 OA
ENDBRANCH   3   2
ENDBRANCH   7   6
ENDBRANCH   8   7
ENDBRANCH   9   8
BRANCH  12  13
ATOM     13  C   UNL     1      -3.579   3.254  24.627  0.00  0.00    +0.147 C 
BRANCH  13  14
ATOM     14  N   UNL     1      -2.967   3.501  25.122  0.00  0.00    -0.203 NA
ATOM     15  C   UNL     1      -2.585   4.218  24.979  0.00  0.00    +0.241 C 
ATOM     16  O   UNL     1      -2.815   4.688  24.341  0.00  0.00    -0.273 OA
BRANCH  15  17
ATOM     17  C   UNL     1      -1.972   4.464  25.473  0.00  0.00    +0.087 C 
BRANCH  17  18
ATOM     18  C   UNL     1      -1.288   4.794  25.150  0.00  0.00    +0.009 C 
ATOM     19  C   UNL     1      -0.605   5.123  24.827  0.00  0.00    +0.000 C 
ATOM     20  C   UNL     1      -0.919   4.056  25.178  0.00  0.00    +0.000 C 
ATOM     21  C   UNL     1      -1.657   5.531  25.122  0.00  0.00    +0.000 C 
ENDBRANCH  17  18
ENDBRANCH  15  17
ENDBRANCH  13  14
ENDBRANCH  12  13
TORSDOF 8
ENDMDL
MODEL 2
REMARK VINA RESULT:      -9.0      1.890      6.268
REMARK  Name = 
REMARK  8 active torsions:
REMARK  status: ('A' for Active; 'I' for Inactive)
REMARK    1  A    between atoms: O_2  and  C_3
REMARK    2  A    between atoms: C_6  and  C_7
REMARK    3  A    between atoms: C_7  and  N_8
REMARK    4  A    between atoms: N_8  and  C_9
REMARK    5  A    between atoms: C_12  and  C_13
REMARK    6  A    between atoms: C_13  and  N_14
REMARK    7  A    between atoms: C_15  and  C_17
REMARK    8  A    between atoms: C_17  and  C_18
REMARK                            x       y       z     vdW  Elec       q    Type
REMARK                         _______ _______ _______ _____ _____    ______ ____
ROOT
ATOM      9  C   UNL     1      -0.956   1.141  25.181  0.00  0.00    +0.135 C 
ATOM     10  C   UNL     1      -0.824   0.764  25.903  0.00  0.00    +0.162 C 
ATOM     11  O   UNL     1      -1.041  -0.028  25.821  0.00  0.00    -0.350 OA
ATOM     12  C   UNL     1      -1.306  -0.141  25.048  0.00  0.00    +0.169 C 
ATOM     22  C   UNL     1      -1.254   0.581  24.652  0.00  0.00    +0.199 C 
ATOM     23  O   UNL     1      -1.462   0.720  23.867  0.00  0.00    -0.219 OA
ENDROOT
BRANCH   9   8
ATOM      8  N   UNL     1      -0.814   1.936  25.016  0.00  0.00    -0.209 NA
BRANCH   8   7
ATOM      7  C   UNL     1      -0.827   2.492  25.625  0.00  0.00    +0.115 C 
BRANCH   7   6
ATOM      3  C   UNL     1      -1.205   4.883  25.110  0.00  0.00    +0.139 A 
ATOM      4  C   UNL     1      -0.493   4.524  24.898  0.00  0.00    +0.037 A 
ATOM      5  C   UNL     1      -0.367   3.727  25.069  0.00  0.00    +0.000 A 
ATOM      6  C   UNL     1      -0.953   3.289  25.453  0.00  0.00    -0.005 A 
ATOM     24  C   UNL     1      -1.664   3.650  25.665  0.00  0.00    +0.000 A 
ATOM     25  C   UNL     1      -1.790   4.447  25.493  0.00  0.00    +0.037 A 
BRANCH   3   2
ATOM      1  C   UNL     1      -2.079   6.012  25.044  0.00  0.00    +0.252 C 
ATOM      2  O   UNL     1      -1.331   5.680  24.938  0.00  0.00    -0.471 OA
ENDBRANCH   3   2
ENDBRANCH   7   6
ENDBRANCH   8   7
ENDBRANCH   9   8
BRANCH  12  13
ATOM     13  C   UNL     1      -1.577  -0.851  24.727  0.00  0.00    +0.147 C 
BRANCH  13  14
ATOM     14  N   UNL     1      -2.312  -1.151  24.949  0.00  0.00    -0.203 NA
ATOM     15  C   UNL     1      -2.561  -1.885  24.667  0.00  0.00    +0.241 C 
ATOM     16  O   UNL     1      -2.073  -2.319  24.163  0.00  0.00    -0.273 OA
BRANCH  15  17
ATOM     17  C   UNL     1      -3.296  -2.184  24.889  0.00  0.00    +0.087 C 
BRANCH  17  18
ATOM     18  C   UNL     1      -3.797  -2.511  24.320  0.00  0.00    +0.009 C 
ATOM     19  C   UNL     1      -4.298  -2.836  23.751  0.00  0.00    +0.000 C 
ATOM     20  C   UNL     1      -4.109  -1.762  24.165  0.00  0.00    +0.000 C 
ATOM     21  C   UNL     1      -3.486  -3.259  24.474  0.00  0.00    +0.000 C 
ENDBRANCH  17  18
ENDBRANCH  15  17
ENDBRANCH  13  14
ENDBRANCH  12  13
TORSDOF 8
ENDMDL
MODEL 3
REMARK VINA RESULT:      -9.0      0.893      5.752
REMARK  Name = 
REMARK  8 active torsions:
REMARK  status: ('A' for Active; 'I' for Inactive)
REMARK    1  A    between atoms: O_2  and  C_3
REMARK    2  A    between atoms: C_6  and  C_7
REMARK    3  A    between atoms: C_7  and  N_8
REMARK    4  A    between atoms: N_8  and  C_9
REMARK    5  A    between atoms: C_12  and  C_13
REMARK    6  A    between atoms: C_13  and  N_14
REMARK    7  A    between atoms: C_15  and  C_17
REMARK    8  A    between atoms: C_17  and  C_18
REMARK                            x       y       z     vdW  Elec       q    Type
REMARK                         _______ _______ _______ _____ _____    ______ ____
ROOT
ATOM      9  C   UNL     1      -4.056   1.917  24.722  0.00  0.00    +0.135 C 
ATOM     10  C   UNL     1      -4.661   1.721  25.247  0.00  0.00    +0.162 C 
ATOM     11  O   UNL     1      -4.847   0.925  25.137  0.00  0.00    -0.350 OA
ATOM     12  C   UNL     1      -4.357   0.628  24.544  0.00  0.00    +0.169 C 
ATOM     22  C   UNL     1      -3.867   1.241  24.288  0.00  0.00    +0.199 C 
ATOM     23  O   UNL     1      -3.291   1.187  23.700  0.00  0.00    -0.219 OA
ENDROOT
BRANCH   9   8
ATOM      8  N   UNL     1      -3.701   2.657  24.645  0.00  0.00    -0.209 NA
BRANCH   8   7
ATOM      7  C   UNL     1      -3.529   3.104  25.316  0.00  0.00    +0.115 C 
BRANCH   7   6
ATOM      3  C   UNL     1      -1.737   4.810  25.241  0.00  0.00    +0.139 A 
ATOM      4  C   UNL     1      -1.638   4.128  25.694  0.00  0.00    +0.037 A 
ATOM      5  C   UNL     1      -2.235   3.559  25.719  0.00  0.00    +0.000 A 
ATOM      6  C   UNL     1      -2.932   3.672  25.291  0.00  0.00    -0.005 A 
ATOM     24  C   UNL     1      -3.030   4.355  24.838  0.00  0.00    +0.000 A 
ATOM     25  C   UNL     1      -2.433   4.924  24.813  0.00  0.00    +0.037 A 
BRANCH   3   2
ATOM      1  C   UNL     1      -0.544   5.326  24.649  0.00  0.00    +0.252 C 
ATOM      2  O   UNL     1      -1.140   5.379  25.216  0.00  0.00    -0.471 OA
ENDBRANCH   3   2
ENDBRANCH   7   6
ENDBRANCH   8   7
ENDBRANCH   9   8
BRANCH  12  13
ATOM     13  C   UNL     1      -4.355  -0.146  24.258  0.00  0.00    +0.147 C 
BRANCH  13  14
ATOM     14  N   UNL     1      -4.054  -0.757  24.722  0.00  0.00    -0.203 NA
ATOM     15  C   UNL     1      -4.016  -1.524  24.421  0.00  0.00    +0.241 C 
ATOM     16  O   UNL     1      -4.281  -1.679  23.655  0.00  0.00    -0.273 OA
BRANCH  15  17
ATOM     17  C   UNL     1      -3.715  -2.135  24.885  0.00  0.00    +0.087 C 
BRANCH  17  18
ATOM     18  C   UNL     1      -3.127  -2.630  24.584  0.00  0.00    +0.009 C 
ATOM     19  C   UNL     1      -2.539  -3.124  24.283  0.00  0.00    +0.000 C 
ATOM     20  C   UNL     1      -2.550  -2.175  24.961  0.00  0.00    +0.000 C 
ATOM     21  C   UNL     1      -3.702  -3.085  24.207  0.00  0.00    +0.000 C 
ENDBRANCH  17  18
ENDBRANCH  15  17
ENDBRANCH  13  14
ENDBRANCH  12  13
TORSDOF 8
ENDMDL
MODEL 4
REMARK VINA RESULT:      -9.0      1.943      2.350
REMARK  Name = 
REMARK  8 active torsions:
REMARK  status: ('A' for Active; 'I' for Inactive)
REMARK    1  A    between atoms: O_2  and  C_3
REMARK    2  A    between atoms: C_6  and  C_7
REMARK    3  A    between atoms: C_7  and  N_8
REMARK    4  A    between atoms: N_8  and  C_9
REMARK    5  A    between atoms: C_12  and  C_13
REMARK    6  A    between atoms: C_13  and  N_14
REMARK    7  A    between atoms: C_15  and  C_17
REMARK    8  A    between atoms: C_17  and  C_18
REMARK                            x       y       z     vdW  Elec       q    Type
REMARK                         _______ _______ _______ _____ _____    ______ ____
ROOT
ATOM      9  C   UNL     1      -1.052   0.274  24.987  0.00  0.00    +0.135 C 
ATOM     10  C   UNL     1      -0.770   0.458  25.739  0.00  0.00    +0.162 C 
ATOM     11  O   UNL     1      -0.536   1.250  25.738  0.00  0.00    -0.350 OA
ATOM     12  C   UNL     1      -0.674   1.554  24.983  0.00  0.00    +0.169 C 
ATOM     22  C   UNL     1      -0.993   0.951  24.519  0.00  0.00    +0.199 C 
ATOM     23  O   UNL     1      -1.214   1.015  23.727  0.00  0.00    -0.219 OA
ENDROOT
BRANCH   9   8
ATOM      8  N   UNL     1      -1.343  -0.459  24.743  0.00  0.00    -0.209 NA
BRANCH   8   7
ATOM      7  C   UNL     1      -1.689  -0.968  25.292  0.00  0.00    +0.115 C 
BRANCH   7   6
ATOM      3  C   UNL     1      -3.375  -2.623  24.554  0.00  0.00    +0.139 A 
ATOM      4  C   UNL     1      -2.587  -2.706  24.323  0.00  0.00    +0.037 A 
ATOM      5  C   UNL     1      -2.025  -2.154  24.569  0.00  0.00    +0.000 A 
ATOM      6  C   UNL     1      -2.251  -1.519  25.046  0.00  0.00    -0.005 A 
ATOM     24  C   UNL     1      -3.039  -1.437  25.276  0.00  0.00    +0.000 A 
ATOM     25  C   UNL     1      -3.601  -1.989  25.030  0.00  0.00    +0.037 A 
BRANCH   3   2
ATOM      1  C   UNL     1      -4.433  -3.003  23.672  0.00  0.00    +0.252 C 
ATOM      2  O   UNL     1      -3.937  -3.174  24.308  0.00  0.00    -0.471 OA
ENDBRANCH   3   2
ENDBRANCH   7   6
ENDBRANCH   8   7
ENDBRANCH   9   8
BRANCH  12  13
ATOM     13  C   UNL     1      -0.519   2.326  24.737  0.00  0.00    +0.147 C 
BRANCH  13  14
ATOM     14  N   UNL     1      -0.708   2.962  25.227  0.00  0.00    -0.203 NA
ATOM     15  C   UNL     1      -0.713   3.729  24.924  0.00  0.00    +0.241 C 
ATOM     16  O   UNL     1      -0.529   3.860  24.131  0.00  0.00    -0.273 OA
BRANCH  15  17
ATOM     17  C   UNL     1      -0.902   4.364  25.415  0.00  0.00    +0.087 C 
BRANCH  17  18
ATOM     18  C   UNL     1      -1.371   4.980  25.130  0.00  0.00    +0.009 C 
ATOM     19  C   UNL     1      -1.841   5.595  24.845  0.00  0.00    +0.000 C 
ATOM     20  C   UNL     1      -2.038   4.626  25.464  0.00  0.00    +0.000 C 
ATOM     21  C   UNL     1      -0.706   5.334  24.796  0.00  0.00    +0.000 C 
ENDBRANCH  17  18
ENDBRANCH  15  17
ENDBRANCH  13  14
ENDBRANCH  12  13
TORSDOF 8
ENDMDL
MODEL 5
REMARK VINA RESULT:      -8.0      3.534      4.833
REMARK  Name = 
REMARK  8 active torsions:
REMARK  status: ('A' for Active; 'I' for Inactive)
REMARK    1  A    between atoms: O_2  and  C_3
REMARK    2  A    between atoms: C_6  and  C_7
REMARK    3  A    between atoms: C_7  and  N_8
REMARK    4  A    between atoms: N_8  and  C_9
REMARK    5  A    between atoms: C_12  and  C_13
REMARK    6  A    between atoms: C_13  and  N_14
REMARK    7  A    between atoms: C_15  and  C_17
REMARK    8  A    between atoms: C_17  and  C_18
REMARK                            x       y       z     vdW  Elec       q    Type
REMARK                         _______ _______ _______ _____ _____    ______ ____
ROOT
ATOM      9  C   UNL     1      -1.136   0.931  23.825  0.00  0.00    +0.135 C 
ATOM     10  C   UNL     1      -1.416   0.400  24.390  0.00  0.00    +0.162 C 
ATOM     11  O   UNL     1      -2.200   0.595  24.557  0.00  0.00    -0.350 OA
ATOM     12  C   UNL     1      -2.405   1.247  24.096  0.00  0.00    +0.169 C 
ATOM     22  C   UNL     1      -1.747   1.456  23.643  0.00  0.00    +0.199 C 
ATOM     23  O   UNL     1      -1.707   2.078  23.104  0.00  0.00    -0.219 OA
ENDROOT
BRANCH   9   8
ATOM      8  N   UNL     1      -0.378   0.938  23.499  0.00  0.00    -0.209 NA
BRANCH   8   7
ATOM      7  C   UNL     1       0.137   0.310  23.639  0.00  0.00    +0.115 C 
BRANCH   7   6
ATOM      3  C   UNL     1       2.394   0.309  22.624  0.00  0.00    +0.139 A 
ATOM      4  C   UNL     1       1.831  -0.242  22.378  0.00  0.00    +0.037 A 
ATOM      5  C   UNL     1       1.079  -0.241  22.716  0.00  0.00    +0.000 A 
ATOM      6  C   UNL     1       0.889   0.310  23.301  0.00  0.00    -0.005 A 
ATOM     24  C   UNL     1       1.453   0.859  23.547  0.00  0.00    +0.000 A 
ATOM     25  C   UNL     1       2.205   0.859  23.209  0.00  0.00    +0.037 A 
BRANCH   3   2
ATOM      1  C   UNL     1       3.791   0.597  22.712  0.00  0.00    +0.252 C 
ATOM      2  O   UNL     1       3.147   0.309  22.286  0.00  0.00    -0.471 OA
ENDBRANCH   3   2
ENDBRANCH   7   6
ENDBRANCH   8   7
ENDBRANCH   9   8
BRANCH  12  13
ATOM     13  C   UNL     1      -3.138   1.626  24.088  0.00  0.00    +0.147 C 
BRANCH  13  14
ATOM     14  N   UNL     1      -3.664   1.519  24.714  0.00  0.00    -0.203 NA
ATOM     15  C   UNL     1      -4.384   1.922  24.720  0.00  0.00    +0.241 C 
ATOM     16  O   UNL     1      -4.577   2.430  24.101  0.00  0.00    -0.273 OA
BRANCH  15  17
ATOM     17  C   UNL     1      -4.910   1.814  25.346  0.00  0.00    +0.087 C 
BRANCH  17  18
ATOM     18  C   UNL     1      -5.534   2.343  25.455  0.00  0.00    +0.009 C 
ATOM     19  C   UNL     1      -6.159   2.871  25.563  0.00  0.00    +0.000 C 
ATOM     20  C   UNL     1      -6.044   1.820  25.069  0.00  0.00    +0.000 C 
ATOM     21  C   UNL     1      -5.026   2.865  25.841  0.00  0.00    +0.000 C 
ENDBRANCH  17  18
ENDBRANCH  15  17
ENDBRANCH  13  14
ENDBRANCH  12  13
TORSDOF 8
ENDMDL
MODEL 6
REMARK VINA RESULT:      -8.0      4.631      6.068
REMARK  Name = 
REMARK  8 active torsions:
REMARK  status: ('A' for Active; 'I' for Inactive)
REMARK    1  A    between atoms: O_2  and  C_3
REMARK    2  A    between atoms: C_6  and  C_7
REMARK    3  A    between atoms: C_7  and  N_8
REMARK    4  A    between atoms: N_8  and  C_9
REMARK    5  A    between atoms: C_12  and  C_13
REMARK    6  A    between atoms: C_13  and  N_14
REMARK    7  A    between atoms: C_15  and  C_17
REMARK    8  A    between atoms: C_17  and  C_18
REMARK                            x       y       z     vdW  Elec       q    Type
REMARK                         _______ _______ _______ _____ _____    ______ ____
ROOT
ATOM      9  C   UNL     1       0.685   0.570  23.532  0.00  0.00    +0.135 C 
ATOM     10  C   UNL     1       0.269  -0.092  23.269  0.00  0.00    +0.162 C 
ATOM     11  O   UNL     1      -0.511  -0.024  23.531  0.00  0.00    -0.350 OA
ATOM     12  C   UNL     1      -0.576   0.680  23.956  0.00  0.00    +0.169 C 
ATOM     22  C   UNL     1       0.163   1.048  23.957  0.00  0.00    +0.199 C 
ATOM     23  O   UNL     1       0.348   1.765  24.318  0.00  0.00    -0.219 OA
ENDROOT
BRANCH   9   8
ATOM      8  N   UNL     1       1.483   0.727  23.394  0.00  0.00    -0.209 NA
BRANCH   8   7
ATOM      7  C   UNL     1       1.914   0.251  22.876  0.00  0.00    +0.115 C 
BRANCH   7   6
ATOM      3  C   UNL     1       4.388   0.274  22.942  0.00  0.00    +0.139 A 
ATOM      4  C   UNL     1       3.976  -0.412  23.148  0.00  0.00    +0.037 A 
ATOM      5  C   UNL     1       3.152  -0.419  23.126  0.00  0.00    +0.000 A 
ATOM      6  C   UNL     1       2.738   0.259  22.898  0.00  0.00    -0.005 A 
ATOM     24  C   UNL     1       3.151   0.943  22.693  0.00  0.00    +0.000 A 
ATOM     25  C   UNL     1       3.975   0.950  22.715  0.00  0.00    +0.037 A 
BRANCH   3   2
ATOM      1  C   UNL     1       5.607   0.185  23.682  0.00  0.00    +0.252 C 
ATOM      2  O   UNL     1       5.212   0.281  22.964  0.00  0.00    -0.471 OA
ENDBRANCH   3   2
ENDBRANCH   7   6
ENDBRANCH   8   7
ENDBRANCH   9   8
BRANCH  12  13
ATOM     13  C   UNL     1      -1.260   0.968  24.317  0.00  0.00    +0.147 C 
BRANCH  13  14
ATOM     14  N   UNL     1      -2.001   0.725  24.049  0.00  0.00    -0.203 NA
ATOM     15  C   UNL     1      -2.684   0.980  24.436  0.00  0.00    +0.241 C 
ATOM     16  O   UNL     1      -2.624   1.477  25.092  0.00  0.00    -0.273 OA
BRANCH  15  17
ATOM     17  C   UNL     1      -3.425   0.737  24.167  0.00  0.00    +0.087 C 
BRANCH  17  18
ATOM     18  C   UNL     1      -4.099   0.898  24.616  0.00  0.00    +0.009 C 
ATOM     19  C   UNL     1      -4.772   1.059  25.063  0.00  0.00    +0.000 C 
ATOM     20  C   UNL     1      -4.152   1.645  24.268  0.00  0.00    +0.000 C 
ATOM     21  C   UNL     1      -4.046   0.152  24.963  0.00  0.00    +0.000 C 
ENDBRANCH  17  18
ENDBRANCH  15  17
ENDBRANCH  13  14
ENDBRANCH  12  13
TORSDOF 8
ENDMDL
MODEL 7
REMARK VINA RESULT:      -7.8      4.336      5.192
REMARK  Name = 
REMARK  8 active torsions:
REMARK  status: ('A' for Active; 'I' for Inactive)
REMARK    1  A    between atoms: O_2  and  C_3
REMARK    2  A    between atoms: C_6  and  C_7
REMARK    3  A    between atoms: C_7  and  N_8
REMARK    4  A    between atoms: N_8  and  C_9
REMARK    5  A    between atoms: C_12  and  C_13
REMARK    6  A    between atoms: C_13  and  N_14
REMARK    7  A    between atoms: C_15  and  C_17
REMARK    8  A    between atoms: C_17  and  C_18
REMARK                            x       y       z     vdW  Elec       q    Type
REMARK                         _______ _______ _______ _____ _____    ______ ____
ROOT
ATOM      9  C   UNL     1      -0.565   0.277  23.983  0.00  0.00    +0.135 C 
ATOM     10  C   UNL     1      -0.295  -0.453  23.710  0.00  0.00    +0.162 C 
ATOM     11  O   UNL     1       0.483  -0.358  23.451  0.00  0.00    -0.350 OA
ATOM     12  C   UNL     1       0.694   0.432  23.565  0.00  0.00    +0.169 C 
ATOM     22  C   UNL     1       0.047   0.824  23.894  0.00  0.00    +0.199 C 
ATOM     23  O   UNL     1       0.016   1.622  24.097  0.00  0.00    -0.219 OA
ENDROOT
BRANCH   9   8
ATOM      8  N   UNL     1      -1.314   0.432  24.292  0.00  0.00    -0.209 NA
BRANCH   8   7
ATOM      7  C   UNL     1      -1.922  -0.114  24.192  0.00  0.00    +0.115 C 
BRANCH   7   6
ATOM      3  C   UNL     1      -4.230   0.466  24.872  0.00  0.00    +0.139 A 
ATOM      4  C   UNL     1      -3.902   0.808  24.196  0.00  0.00    +0.037 A 
ATOM      5  C   UNL     1      -3.132   0.614  23.969  0.00  0.00    +0.000 A 
ATOM      6  C   UNL     1      -2.692   0.079  24.418  0.00  0.00    -0.005 A 
ATOM     24  C   UNL     1      -3.021  -0.261  25.094  0.00  0.00    +0.000 A 
ATOM     25  C   UNL     1      -3.791  -0.067  25.320  0.00  0.00    +0.037 A 
BRANCH   3   2
ATOM      1  C   UNL     1      -5.202   1.446  25.244  0.00  0.00    +0.252 C 
ATOM      2  O   UNL     1      -5.000   0.660  25.098  0.00  0.00    -0.471 OA
ENDBRANCH   3   2
ENDBRANCH   7   6
ENDBRANCH   8   7
ENDBRANCH   9   8
BRANCH  12  13
ATOM     13  C   UNL     1       1.424   0.770  23.382  0.00  0.00    +0.147 C 
BRANCH  13  14
ATOM     14  N   UNL     1       2.032   0.301  23.081  0.00  0.00    -0.203 NA
ATOM     15  C   UNL     1       2.789   0.617  22.987  0.00  0.00    +0.241 C 
ATOM     16  O   UNL     1       2.936   1.402  23.194  0.00  0.00    -0.273 OA
BRANCH  15  17
ATOM     17  C   UNL     1       3.396   0.148  22.686  0.00  0.00    +0.087 C 
BRANCH  17  18
ATOM     18  C   UNL     1       4.176   0.283  22.920  0.00  0.00    +0.009 C 
ATOM     19  C   UNL     1       4.955   0.418  23.155  0.00  0.00    +0.000 C 
ATOM     20  C   UNL     1       4.144  -0.381  23.409  0.00  0.00    +0.000 C 
ATOM     21  C   UNL     1       4.208   0.947  22.432  0.00  0.00    +0.000 C 
ENDBRANCH  17  18
ENDBRANCH  15  17
ENDBRANCH  13  14
ENDBRANCH  12  13
TORSDOF 8
ENDMDL
