MODEL 1
REMARK VINA RESULT:     -12.7      0.000      0.000
REMARK  Name = 
REMARK  6 active torsions:
REMARK  status: ('A' for Active; 'I' for Inactive)
REMARK    1  A    between atoms: C_2  and  C_3
REMARK    2  A    between atoms: C_3  and  N_4
REMARK    3  A    between atoms: C_10  and  C_11
REMARK    4  A    between atoms: C_11  and  C_12
REMARK    5  A    between atoms: C_15  and  C_16
REMARK    6  A    between atoms: C_16  and  C_17
REMARK                            x       y       z     vdW  Elec       q    Type
REMARK                         _______ _______ _______ _____ _____    ______ ____
ROOT
ATOM      4  N   UNL     1      -2.065   3.036  24.821  0.00  0.00    -0.188 NA
ATOM      5  C   UNL     1      -2.269   2.250  24.677  0.00  0.00    +0.323 C 
ATOM      6  O   UNL     1      -1.694   1.714  24.428  0.00  0.00    -0.251 OA
ATOM      7  N   UNL     1      -3.048   1.999  24.781  0.00  0.00    -0.263 N 
ATOM      8  C   UNL     1      -3.624   2.535  25.030  0.00  0.00    +0.095 C 
ATOM      9  C   UNL     1      -4.403   2.285  25.135  0.00  0.00    +0.022 C 
ATOM     10  C   UNL     1      -4.606   1.498  24.990  0.00  0.00    +0.015 C 
ATOM     15  C   UNL     1      -4.030   0.962  24.741  0.00  0.00    +0.026 C 
ATOM     28  C   UNL     1      -3.251   1.214  24.637  0.00  0.00    +0.095 C 
ENDROOT
BRANCH   4   3
ATOM      3  C   UNL     1      -1.287   3.287  24.717  0.00  0.00    +0.117 C 
BRANCH   3   2
ATOM      1  C   UNL     1      -0.656   4.568  24.766  0.00  0.00    +0.002 C 
ATOM      2  C   UNL     1      -0.996   3.924  25.153  0.00  0.00    +0.023 C 
ENDBRANCH   3   2
ENDBRANCH   4   3
BRANCH  10  11
ATOM     11  C   UNL     1      -5.386   1.248  25.095  0.00  0.00    +0.114 C 
BRANCH  11  12
ATOM     12  C   UNL     1      -5.974   1.795  25.278  0.00  0.00    +0.365 C 
ATOM     13  O   UNL     1      -6.416   2.145  24.675  0.00  0.00    -0.246 OA
ATOM     14  O   UNL     1      -6.121   1.995  26.065  0.00  0.00    -0.246 OA
ENDBRANCH  11  12
ENDBRANCH  10  11
BRANCH  15  16
ATOM     16  C   UNL     1      -4.234   0.176  24.596  0.00  0.00    +0.047 C 
BRANCH  16  17
ATOM     17  C   UNL     1      -3.859  -0.430  25.011  0.00  0.00    +0.053 C 
ATOM     18  N   UNL     1      -3.489  -0.270  25.732  0.00  0.00    -0.274 NA
ATOM     19  C   UNL     1      -3.114  -0.876  26.147  0.00  0.00    +0.130 C 
ATOM     20  C   UNL     1      -3.107  -1.643  25.842  0.00  0.00    +0.053 C 
ATOM     21  C   UNL     1      -3.477  -1.803  25.122  0.00  0.00    -0.017 A 
ATOM     22  C   UNL     1      -3.852  -1.197  24.707  0.00  0.00    +0.009 A 
ATOM     23  C   UNL     1      -4.222  -1.356  23.987  0.00  0.00    +0.003 A 
ATOM     24  C   UNL     1      -4.215  -2.124  23.682  0.00  0.00    +0.030 A 
ATOM     25  C   UNL     1      -3.840  -2.730  24.097  0.00  0.00    +0.140 A 
ATOM     26  F   UNL     1      -3.833  -3.496  23.793  0.00  0.00    -0.204 F 
ATOM     27  C   UNL     1      -3.470  -2.569  24.818  0.00  0.00    +0.025 A 
ENDBRANCH  16  17
ENDBRANCH  15  16
TORSDOF 6
ENDMDL
MODEL 2
REMARK VINA RESULT:     -11.2      2.144      4.737
REMARK  Name = 
REMARK  6 active torsions:
REMARK  status: ('A' for Active; 'I' for Inactive)
REMARK    1  A    between atoms: C_2  and  C_3
REMARK    2  A    between atoms: C_3  and  N_4
REMARK    3  A    between atoms: C_10  and  C_11
REMARK    4  A    between atoms: C_11  and  C_12
REMARK    5  A    between atoms: C_15  and  C_16
REMARK    6  A    between atoms: C_16  and  C_17
REMARK                            x       y       z     vdW  Elec       q    Type
REMARK                         _______ _______ _______ _____ _____    ______ ____
ROOT
ATOM      4  N   UNL     1      -4.088  -0.413  24.236  0.00  0.00    -0.188 NA
ATOM      5  C   UNL     1      -3.615   0.263  24.213  0.00  0.00    +0.323 C 
ATOM      6  O   UNL     1      -2.883   0.240  23.833  0.00  0.00    -0.251 OA
ATOM      7  N   UNL     1      -3.874   0.960  24.568  0.00  0.00    -0.263 N 
ATOM      8  C   UNL     1      -4.606   0.983  24.948  0.00  0.00    +0.095 C 
ATOM      9  C   UNL     1      -4.865   1.680  25.304  0.00  0.00    +0.022 C 
ATOM     10  C   UNL     1      -4.391   2.356  25.280  0.00  0.00    +0.015 C 
ATOM     15  C   UNL     1      -3.659   2.333  24.900  0.00  0.00    +0.026 C 
ATOM     28  C   UNL     1      -3.401   1.635  24.544  0.00  0.00    +0.095 C 
ENDROOT
BRANCH   4   3
ATOM      3  C   UNL     1      -3.830  -1.111  23.881  0.00  0.00    +0.117 C 
BRANCH   3   2
ATOM      1  C   UNL     1      -3.948  -2.534  23.941  0.00  0.00    +0.002 C 
ATOM      2  C   UNL     1      -4.300  -1.789  23.911  0.00  0.00    +0.023 C 
ENDBRANCH   3   2
ENDBRANCH   4   3
BRANCH  10  11
ATOM     11  C   UNL     1      -4.651   3.054  25.636  0.00  0.00    +0.114 C 
BRANCH  11  12
ATOM     12  C   UNL     1      -5.441   3.137  25.853  0.00  0.00    +0.365 C 
ATOM     13  O   UNL     1      -5.711   2.808  26.561  0.00  0.00    -0.246 OA
ATOM     14  O   UNL     1      -5.963   3.549  25.365  0.00  0.00    -0.246 OA
ENDBRANCH  11  12
ENDBRANCH  10  11
BRANCH  15  16
ATOM     16  C   UNL     1      -3.187   3.009  24.876  0.00  0.00    +0.047 C 
BRANCH  16  17
ATOM     17  C   UNL     1      -2.414   2.982  25.165  0.00  0.00    +0.053 C 
ATOM     18  N   UNL     1      -2.135   2.297  25.532  0.00  0.00    -0.274 NA
ATOM     19  C   UNL     1      -1.362   2.270  25.821  0.00  0.00    +0.130 C 
ATOM     20  C   UNL     1      -0.869   2.928  25.744  0.00  0.00    +0.053 C 
ATOM     21  C   UNL     1      -1.149   3.612  25.378  0.00  0.00    -0.017 A 
ATOM     22  C   UNL     1      -1.921   3.639  25.089  0.00  0.00    +0.009 A 
ATOM     23  C   UNL     1      -2.201   4.323  24.722  0.00  0.00    +0.003 A 
ATOM     24  C   UNL     1      -1.708   4.980  24.645  0.00  0.00    +0.030 A 
ATOM     25  C   UNL     1      -0.936   4.953  24.935  0.00  0.00    +0.140 A 
ATOM     26  F   UNL     1      -0.443   5.610  24.858  0.00  0.00    -0.204 F 
ATOM     27  C   UNL     1      -0.656   4.268  25.301  0.00  0.00    +0.025 A 
ENDBRANCH  16  17
ENDBRANCH  15  16
TORSDOF 6
ENDMDL
MODEL 3
REMARK VINA RESULT:     -10.7      1.428      2.791
REMARK  Name = 
REMARK  6 active torsions:
REMARK  status: ('A' for Active; 'I' for Inactive)
REMARK    1  A    between atoms: C_2  and  C_3
REMARK    2  A    between atoms: C_3  and  N_4
REMARK    3  A    between atoms: C_10  and  C_11
REMARK    4  A    between atoms: C_11  and  C_12
REMARK    5  A    between atoms: C_15  and  C_16
REMARK    6  A    between atoms: C_16  and  C_17
REMARK                            x       y       z     vdW  Elec       q    Type
REMARK                         _______ _______ _______ _____ _____    ______ ____
ROOT
ATOM      4  N   UNL     1      -5.050   3.062  25.139  0.00  0.00    -0.188 NA
ATOM      5  C   UNL     1      -4.906   2.256  25.035  0.00  0.00    +0.323 C 
ATOM      6  O   UNL     1      -5.345   1.701  25.459  0.00  0.00    -0.251 OA
ATOM      7  N   UNL     1      -4.323   2.005  24.509  0.00  0.00    -0.263 N 
ATOM      8  C   UNL     1      -3.884   2.560  24.085  0.00  0.00    +0.095 C 
ATOM      9  C   UNL     1      -3.301   2.310  23.558  0.00  0.00    +0.022 C 
ATOM     10  C   UNL     1      -3.157   1.504  23.454  0.00  0.00    +0.015 C 
ATOM     15  C   UNL     1      -3.596   0.949  23.878  0.00  0.00    +0.026 C 
ATOM     28  C   UNL     1      -4.179   1.200  24.405  0.00  0.00    +0.095 C 
ENDROOT
BRANCH   4   3
ATOM      3  C   UNL     1      -5.633   3.312  25.665  0.00  0.00    +0.117 C 
BRANCH   3   2
ATOM      1  C   UNL     1      -6.254   4.599  25.635  0.00  0.00    +0.002 C 
ATOM      2  C   UNL     1      -5.658   4.100  25.910  0.00  0.00    +0.023 C 
ENDBRANCH   3   2
ENDBRANCH   4   3
BRANCH  10  11
ATOM     11  C   UNL     1      -2.574   1.253  22.927  0.00  0.00    +0.114 C 
BRANCH  11  12
ATOM     12  C   UNL     1      -2.169   1.804  22.467  0.00  0.00    +0.365 C 
ATOM     13  O   UNL     1      -1.469   2.141  22.746  0.00  0.00    -0.246 OA
ATOM     14  O   UNL     1      -2.464   2.020  21.727  0.00  0.00    -0.246 OA
ENDBRANCH  11  12
ENDBRANCH  10  11
BRANCH  15  16
ATOM     16  C   UNL     1      -3.452   0.143  23.775  0.00  0.00    +0.047 C 
BRANCH  16  17
ATOM     17  C   UNL     1      -3.237  -0.324  24.420  0.00  0.00    +0.053 C 
ATOM     18  N   UNL     1      -2.818   0.010  25.049  0.00  0.00    -0.274 NA
ATOM     19  C   UNL     1      -2.603  -0.457  25.695  0.00  0.00    +0.130 C 
ATOM     20  C   UNL     1      -2.806  -1.257  25.712  0.00  0.00    +0.053 C 
ATOM     21  C   UNL     1      -3.224  -1.589  25.084  0.00  0.00    -0.017 A 
ATOM     22  C   UNL     1      -3.440  -1.123  24.438  0.00  0.00    +0.009 A 
ATOM     23  C   UNL     1      -3.858  -1.455  23.810  0.00  0.00    +0.003 A 
ATOM     24  C   UNL     1      -4.061  -2.255  23.828  0.00  0.00    +0.030 A 
ATOM     25  C   UNL     1      -3.846  -2.722  24.473  0.00  0.00    +0.140 A 
ATOM     26  F   UNL     1      -4.049  -3.521  24.491  0.00  0.00    -0.204 F 
ATOM     27  C   UNL     1      -3.427  -2.388  25.102  0.00  0.00    +0.025 A 
ENDBRANCH  16  17
ENDBRANCH  15  16
TORSDOF 6
ENDMDL
MODEL 4
REMARK VINA RESULT:     -10.6      2.340      5.084
REMARK  Name = 
REMARK  6 active torsions:
REMARK  status: ('A' for Active; 'I' for Inactive)
REMARK    1  A    between atoms: C_2  and  C_3
REMARK    2  A    between atoms: C_3  and  N_4
REMARK    3  A    between atoms: C_10  and  C_11
REMARK    4  A    between atoms: C_11  and  C_12
REMARK    5  A    between atoms: C_15  and  C_16
REMARK    6  A    between atoms: C_16  and  C_17
REMARK                            x       y       z     vdW  Elec       q    Type
REMARK                         _______ _______ _______ _____ _____    ______ ____
ROOT
ATOM      4  N   UNL     1      -2.443  -1.160  24.856  0.00  0.00    -0.188 NA
ATOM      5  C   UNL     1      -2.732  -0.389  24.907  0.00  0.00    +0.323 C 
ATOM      6  O   UNL     1      -3.544  -0.256  24.968  0.00  0.00    -0.251 OA
ATOM      7  N   UNL     1      -2.209   0.249  24.898  0.00  0.00    -0.263 N 
ATOM      8  C   UNL     1      -1.398   0.116  24.837  0.00  0.00    +0.095 C 
ATOM      9  C   UNL     1      -0.874   0.754  24.827  0.00  0.00    +0.022 C 
ATOM     10  C   UNL     1      -1.164   1.525  24.878  0.00  0.00    +0.015 C 
ATOM     15  C   UNL     1      -1.976   1.658  24.939  0.00  0.00    +0.026 C 
ATOM     28  C   UNL     1      -2.498   1.019  24.949  0.00  0.00    +0.095 C 
ENDROOT
BRANCH   4   3
ATOM      3  C   UNL     1      -2.965  -1.798  24.866  0.00  0.00    +0.117 C 
BRANCH   3   2
ATOM      1  C   UNL     1      -3.229  -3.184  24.642  0.00  0.00    +0.002 C 
ATOM      2  C   UNL     1      -2.702  -2.551  24.654  0.00  0.00    +0.023 C 
ENDBRANCH   3   2
ENDBRANCH   4   3
BRANCH  10  11
ATOM     11  C   UNL     1      -0.641   2.164  24.868  0.00  0.00    +0.114 C 
BRANCH  11  12
ATOM     12  C   UNL     1       0.169   2.035  24.952  0.00  0.00    +0.365 C 
ATOM     13  O   UNL     1       0.628   1.848  24.292  0.00  0.00    -0.246 OA
ATOM     14  O   UNL     1       0.521   2.093  25.696  0.00  0.00    -0.246 OA
ENDBRANCH  11  12
ENDBRANCH  10  11
BRANCH  15  16
ATOM     16  C   UNL     1      -2.265   2.430  24.990  0.00  0.00    +0.047 C 
BRANCH  16  17
ATOM     17  C   UNL     1      -2.872   2.676  24.489  0.00  0.00    +0.053 C 
ATOM     18  N   UNL     1      -2.832   2.513  23.680  0.00  0.00    -0.274 NA
ATOM     19  C   UNL     1      -3.439   2.760  23.179  0.00  0.00    +0.130 C 
ATOM     20  C   UNL     1      -4.087   3.170  23.486  0.00  0.00    +0.053 C 
ATOM     21  C   UNL     1      -4.126   3.332  24.293  0.00  0.00    -0.017 A 
ATOM     22  C   UNL     1      -3.519   3.086  24.795  0.00  0.00    +0.009 A 
ATOM     23  C   UNL     1      -3.559   3.248  25.602  0.00  0.00    +0.003 A 
ATOM     24  C   UNL     1      -4.207   3.658  25.909  0.00  0.00    +0.030 A 
ATOM     25  C   UNL     1      -4.814   3.905  25.408  0.00  0.00    +0.140 A 
ATOM     26  F   UNL     1      -5.461   4.314  25.714  0.00  0.00    -0.204 F 
ATOM     27  C   UNL     1      -4.774   3.742  24.599  0.00  0.00    +0.025 A 
ENDBRANCH  16  17
ENDBRANCH  15  16
TORSDOF 6
ENDMDL
MODEL 5
REMARK VINA RESULT:     -10.4      2.475      3.336
REMARK  Name = 
REMARK  6 active torsions:
REMARK  status: ('A' for Active; 'I' for Inactive)
REMARK    1  A    between atoms: C_2  and  C_3
REMARK    2  A    between atoms: C_3  and  N_4
REMARK    3  A    between atoms: C_10  and  C_11
REMARK    4  A    between atoms: C_11  and  C_12
REMARK    5  A    between atoms: C_15  and  C_16
REMARK    6  A    between atoms: C_16  and  C_17
REMARK                            x       y       z     vdW  Elec       q    Type
REMARK                         _______ _______ _______ _____ _____    ______ ____
ROOT
ATOM      4  N   UNL     1       1.139   0.617  23.354  0.00  0.00    -0.188 NA
ATOM      5  C   UNL     1       0.368   0.359  23.496  0.00  0.00    +0.323 C 
ATOM      6  O   UNL     1       0.120  -0.374  23.210  0.00  0.00    -0.251 OA
ATOM      7  N   UNL     1      -0.154   0.833  23.923  0.00  0.00    -0.263 N 
ATOM      8  C   UNL     1       0.094   1.565  24.210  0.00  0.00    +0.095 C 
ATOM      9  C   UNL     1      -0.427   2.040  24.637  0.00  0.00    +0.022 C 
ATOM     10  C   UNL     1      -1.199   1.781  24.779  0.00  0.00    +0.015 C 
ATOM     15  C   UNL     1      -1.447   1.048  24.493  0.00  0.00    +0.026 C 
ATOM     28  C   UNL     1      -0.924   0.574  24.065  0.00  0.00    +0.095 C 
ENDROOT
BRANCH   4   3
ATOM      3  C   UNL     1       1.661   0.144  22.927  0.00  0.00    +0.117 C 
BRANCH   3   2
ATOM      1  C   UNL     1       2.911   0.142  22.235  0.00  0.00    +0.002 C 
ATOM      2  C   UNL     1       2.464   0.333  22.900  0.00  0.00    +0.023 C 
ENDBRANCH   3   2
ENDBRANCH   4   3
BRANCH  10  11
ATOM     11  C   UNL     1      -1.721   2.255  25.207  0.00  0.00    +0.114 C 
BRANCH  11  12
ATOM     12  C   UNL     1      -1.510   3.027  25.405  0.00  0.00    +0.365 C 
ATOM     13  O   UNL     1      -1.129   3.180  26.121  0.00  0.00    -0.246 OA
ATOM     14  O   UNL     1      -1.678   3.647  24.887  0.00  0.00    -0.246 OA
ENDBRANCH  11  12
ENDBRANCH  10  11
BRANCH  15  16
ATOM     16  C   UNL     1      -2.217   0.790  24.635  0.00  0.00    +0.047 C 
BRANCH  16  17
ATOM     17  C   UNL     1      -2.348   0.046  24.968  0.00  0.00    +0.053 C 
ATOM     18  N   UNL     1      -1.854  -0.229  25.570  0.00  0.00    -0.274 NA
ATOM     19  C   UNL     1      -1.985  -0.973  25.902  0.00  0.00    +0.130 C 
ATOM     20  C   UNL     1      -2.609  -1.442  25.634  0.00  0.00    +0.053 C 
ATOM     21  C   UNL     1      -3.102  -1.166  25.032  0.00  0.00    -0.017 A 
ATOM     22  C   UNL     1      -2.971  -0.423  24.700  0.00  0.00    +0.009 A 
ATOM     23  C   UNL     1      -3.464  -0.147  24.098  0.00  0.00    +0.003 A 
ATOM     24  C   UNL     1      -4.088  -0.616  23.829  0.00  0.00    +0.030 A 
ATOM     25  C   UNL     1      -4.219  -1.360  24.162  0.00  0.00    +0.140 A 
ATOM     26  F   UNL     1      -4.842  -1.828  23.894  0.00  0.00    -0.204 F 
ATOM     27  C   UNL     1      -3.725  -1.635  24.764  0.00  0.00    +0.025 A 
ENDBRANCH  16  17
ENDBRANCH  15  16
TORSDOF 6
ENDMDL
MODEL 6
REMARK VINA RESULT:     -10.3      1.874      3.338
REMARK  Name = 
REMARK  6 active torsions:
REMARK  status: ('A' for Active; 'I' for Inactive)
REMARK    1  A    between atoms: C_2  and  C_3
REMARK    2  A    between atoms: C_3  and  N_4
REMARK    3  A    between atoms: C_10  and  C_11
REMARK    4  A    between atoms: C_11  and  C_12
REMARK    5  A    between atoms: C_15  and  C_16
REMARK    6  A    between atoms: C_16  and  C_17
REMARK                            x       y       z     vdW  Elec       q    Type
REMARK                         _______ _______ _______ _____ _____    ______ ____
ROOT
ATOM      4  N   UNL     1      -1.061   3.271  24.941  0.00  0.00    -0.188 NA
ATOM      5  C   UNL     1      -1.445   2.553  25.073  0.00  0.00    +0.323 C 
ATOM      6  O   UNL     1      -2.134   2.531  25.526  0.00  0.00    -0.251 OA
ATOM      7  N   UNL     1      -1.141   1.857  24.753  0.00  0.00    -0.263 N 
ATOM      8  C   UNL     1      -0.452   1.878  24.300  0.00  0.00    +0.095 C 
ATOM      9  C   UNL     1      -0.148   1.182  23.979  0.00  0.00    +0.022 C 
ATOM     10  C   UNL     1      -0.533   0.463  24.112  0.00  0.00    +0.015 C 
ATOM     15  C   UNL     1      -1.221   0.442  24.565  0.00  0.00    +0.026 C 
ATOM     28  C   UNL     1      -1.525   1.139  24.885  0.00  0.00    +0.095 C 
ENDROOT
BRANCH   4   3
ATOM      3  C   UNL     1      -1.365   3.967  25.261  0.00  0.00    +0.117 C 
BRANCH   3   2
ATOM      1  C   UNL     1      -1.448   5.386  25.113  0.00  0.00    +0.002 C 
ATOM      2  C   UNL     1      -1.006   4.691  25.094  0.00  0.00    +0.023 C 
ENDBRANCH   3   2
ENDBRANCH   4   3
BRANCH  10  11
ATOM     11  C   UNL     1      -0.228  -0.234  23.791  0.00  0.00    +0.114 C 
BRANCH  11  12
ATOM     12  C   UNL     1       0.491  -0.222  23.388  0.00  0.00    +0.365 C 
ATOM     13  O   UNL     1       0.512  -0.020  22.587  0.00  0.00    -0.246 OA
ATOM     14  O   UNL     1       1.189  -0.412  23.783  0.00  0.00    -0.246 OA
ENDBRANCH  11  12
ENDBRANCH  10  11
BRANCH  15  16
ATOM     16  C   UNL     1      -1.606  -0.276  24.697  0.00  0.00    +0.047 C 
BRANCH  16  17
ATOM     17  C   UNL     1      -2.386  -0.378  24.449  0.00  0.00    +0.053 C 
ATOM     18  N   UNL     1      -2.785   0.242  24.078  0.00  0.00    -0.274 NA
ATOM     19  C   UNL     1      -3.566   0.141  23.830  0.00  0.00    +0.130 C 
ATOM     20  C   UNL     1      -3.947  -0.581  23.953  0.00  0.00    +0.053 C 
ATOM     21  C   UNL     1      -3.548  -1.200  24.324  0.00  0.00    -0.017 A 
ATOM     22  C   UNL     1      -2.768  -1.099  24.572  0.00  0.00    +0.009 A 
ATOM     23  C   UNL     1      -2.368  -1.718  24.942  0.00  0.00    +0.003 A 
ATOM     24  C   UNL     1      -2.750  -2.440  25.065  0.00  0.00    +0.030 A 
ATOM     25  C   UNL     1      -3.530  -2.541  24.817  0.00  0.00    +0.140 A 
ATOM     26  F   UNL     1      -3.912  -3.262  24.939  0.00  0.00    -0.204 F 
ATOM     27  C   UNL     1      -3.929  -1.921  24.446  0.00  0.00    +0.025 A 
ENDBRANCH  16  17
ENDBRANCH  15  16
TORSDOF 6
ENDMDL
MODEL 7
REMARK VINA RESULT:     -10.1      2.773      4.204
REMARK  Name = 
REMARK  6 active torsions:
REMARK  status: ('A' for Active; 'I' for Inactive)
REMARK    1  A    between atoms: C_2  and  C_3
REMARK    2  A    between atoms: C_3  and  N_4
REMARK    3  A    between atoms: C_10  and  C_11
REMARK    4  A    between atoms: C_11  and  C_12
REMARK    5  A    between atoms: C_15  and  C_16
REMARK    6  A    between atoms: C_16  and  C_17
REMARK                            x       y       z     vdW  Elec       q    Type
REMARK                         _______ _______ _______ _____ _____    ______ ____
ROOT
ATOM      4  N   UNL     1      -0.075  -0.015  23.773  0.00  0.00    -0.188 NA
ATOM      5  C   UNL     1      -0.678   0.511  23.974  0.00  0.00    +0.323 C 
ATOM      6  O   UNL     1      -0.545   1.324  23.939  0.00  0.00    -0.251 OA
ATOM      7  N   UNL     1      -1.414   0.224  24.210  0.00  0.00    -0.263 N 
ATOM      8  C   UNL     1      -1.548  -0.590  24.245  0.00  0.00    +0.095 C 
ATOM      9  C   UNL     1      -2.284  -0.878  24.481  0.00  0.00    +0.022 C 
ATOM     10  C   UNL     1      -2.887  -0.351  24.682  0.00  0.00    +0.015 C 
ATOM     15  C   UNL     1      -2.754   0.462  24.647  0.00  0.00    +0.026 C 
ATOM     28  C   UNL     1      -2.017   0.749  24.411  0.00  0.00    +0.095 C 
ENDROOT
BRANCH   4   3
ATOM      3  C   UNL     1       0.661   0.272  23.537  0.00  0.00    +0.117 C 
BRANCH   3   2
ATOM      1  C   UNL     1       1.877   0.094  22.808  0.00  0.00    +0.002 C 
ATOM      2  C   UNL     1       1.183  -0.217  23.125  0.00  0.00    +0.023 C 
ENDBRANCH   3   2
ENDBRANCH   4   3
BRANCH  10  11
ATOM     11  C   UNL     1      -3.624  -0.639  24.918  0.00  0.00    +0.114 C 
BRANCH  11  12
ATOM     12  C   UNL     1      -3.751  -1.451  24.976  0.00  0.00    +0.365 C 
ATOM     13  O   UNL     1      -4.039  -1.871  24.326  0.00  0.00    -0.246 OA
ATOM     14  O   UNL     1      -3.589  -1.845  25.682  0.00  0.00    -0.246 OA
ENDBRANCH  11  12
ENDBRANCH  10  11
BRANCH  15  16
ATOM     16  C   UNL     1      -3.357   0.988  24.848  0.00  0.00    +0.047 C 
BRANCH  16  17
ATOM     17  C   UNL     1      -3.532   1.624  24.352  0.00  0.00    +0.053 C 
ATOM     18  N   UNL     1      -3.339   1.588  23.550  0.00  0.00    -0.274 NA
ATOM     19  C   UNL     1      -3.513   2.223  23.055  0.00  0.00    +0.130 C 
ATOM     20  C   UNL     1      -3.882   2.896  23.360  0.00  0.00    +0.053 C 
ATOM     21  C   UNL     1      -4.075   2.932  24.161  0.00  0.00    -0.017 A 
ATOM     22  C   UNL     1      -3.900   2.296  24.657  0.00  0.00    +0.009 A 
ATOM     23  C   UNL     1      -4.093   2.332  25.458  0.00  0.00    +0.003 A 
ATOM     24  C   UNL     1      -4.462   3.005  25.764  0.00  0.00    +0.030 A 
ATOM     25  C   UNL     1      -4.637   3.640  25.268  0.00  0.00    +0.140 A 
ATOM     26  F   UNL     1      -5.005   4.313  25.572  0.00  0.00    -0.204 F 
ATOM     27  C   UNL     1      -4.443   3.604  24.466  0.00  0.00    +0.025 A 
ENDBRANCH  16  17
ENDBRANCH  15  16
TORSDOF 6
ENDMDL
