REMARK  Name = 
REMARK  5 active torsions:
REMARK  status: ('A' for Active; 'I' for Inactive)
REMARK    1  A    between atoms: C_3  and  C_4
REMARK    2  A    between atoms: C_4  and  N_5
REMARK    3  A    between atoms: C_6  and  C_8
REMARK    4  A    between atoms: C_13  and  N_14
REMARK    5  A    between atoms: N_14  and  C_15
REMARK                            x       y       z     vdW  Elec       q    Type
REMARK                         _______ _______ _______ _____ _____    ______ ____
ROOT
ATOM      1  O   UNL     1       4.723   0.849   0.000  0.00  0.00    -0.219 OA
ATOM      2  C   UNL     1       4.110   0.296   0.000  0.00  0.00    +0.199 C 
ATOM      3  C   UNL     1       4.197  -0.524   0.000  0.00  0.00    +0.169 C 
ATOM     11  O   UNL     1       3.443  -0.860   0.000  0.00  0.00    -0.350 OA
ATOM     12  C   UNL     1       2.891  -0.246   0.000  0.00  0.00    +0.162 C 
ATOM     13  C   UNL     1       3.303   0.468   0.000  0.00  0.00    +0.135 C 
ENDROOT
BRANCH   3   4
ATOM      4  C   UNL     1       4.911  -0.936   0.000  0.00  0.00    +0.147 C 
BRANCH   4   5
ATOM      5  N   UNL     1       4.911  -1.762   0.000  0.00  0.00    -0.203 NA
ATOM      6  C   UNL     1       5.625  -2.174   0.000  0.00  0.00    +0.241 C 
ATOM      7  O   UNL     1       6.340  -1.762   0.000  0.00  0.00    -0.273 OA
BRANCH   6   8
ATOM      8  C   UNL     1       5.625  -2.999   0.000  0.00  0.00    +0.078 C 
ATOM      9  C   UNL     1       6.038  -3.713   0.000  0.00  0.00    +0.010 C 
ATOM     10  C   UNL     1       5.213  -3.713   0.000  0.00  0.00    +0.010 C 
ENDBRANCH   6   8
ENDBRANCH   4   5
ENDBRANCH   3   4
BRANCH  13  14
ATOM     14  N   UNL     1       2.968   1.222   0.000  0.00  0.00    -0.216 NA
BRANCH  14  15
ATOM     15  C   UNL     1       3.453   1.889   0.000  0.00  0.00    +0.073 C 
ATOM     16  C   UNL     1       3.117   2.643   0.000  0.00  0.00    +0.023 C 
ATOM     17  C   UNL     1       3.602   3.310   0.000  0.00  0.00    +0.068 C 
ATOM     18  C   UNL     1       4.423   3.224   0.000  0.00  0.00    +0.264 C 
ATOM     19  F   UNL     1       4.365   4.047   0.000  0.00  0.00    -0.204 F 
ATOM     20  F   UNL     1       5.223   3.424   0.000  0.00  0.00    -0.204 F 
ATOM     21  C   UNL     1       4.758   2.470   0.000  0.00  0.00    +0.068 C 
ATOM     22  C   UNL     1       4.273   1.803   0.000  0.00  0.00    +0.023 C 
ENDBRANCH  14  15
ENDBRANCH  13  14
TORSDOF 5
