MODEL 1
REMARK VINA RESULT:     -10.3      0.000      0.000
REMARK  Name = 
REMARK  5 active torsions:
REMARK  status: ('A' for Active; 'I' for Inactive)
REMARK    1  A    between atoms: N_5  and  C_8
REMARK    2  A    between atoms: C_9  and  C_10
REMARK    3  A    between atoms: C_10  and  N_11
REMARK    4  A    between atoms: N_11  and  C_12
REMARK    5  A    between atoms: C_19  and  C_20
REMARK                            x       y       z     vdW  Elec       q    Type
REMARK                         _______ _______ _______ _____ _____    ______ ____
ROOT
ATOM      8  C   UNL     1      -3.260   1.843  24.731  0.00  0.00    +0.120 C 
ATOM      9  C   UNL     1      -3.787   1.211  24.782  0.00  0.00    +0.150 C 
ATOM     18  O   UNL     1      -4.540   1.516  24.920  0.00  0.00    -0.350 OA
ATOM     19  C   UNL     1      -4.479   2.338  24.954  0.00  0.00    +0.180 C 
ATOM     22  C   UNL     1      -3.689   2.541  24.838  0.00  0.00    +0.198 C 
ATOM     23  O   UNL     1      -3.380   3.305  24.829  0.00  0.00    -0.219 OA
ENDROOT
BRANCH   8   5
ATOM      1  C   UNL     1      -0.011   1.628  24.194  0.00  0.00    +0.000 C 
ATOM      2  C   UNL     1      -0.824   1.681  24.328  0.00  0.00    +0.003 C 
ATOM      3  C   UNL     1      -1.345   1.715  23.691  0.00  0.00    +0.017 C 
ATOM      4  C   UNL     1      -2.158   1.769  23.825  0.00  0.00    +0.072 C 
ATOM      5  N   UNL     1      -2.448   1.789  24.597  0.00  0.00    -0.270 NA
ATOM      6  C   UNL     1      -1.926   1.756  25.234  0.00  0.00    +0.072 C 
ATOM      7  C   UNL     1      -1.113   1.702  25.100  0.00  0.00    +0.017 C 
ENDBRANCH   8   5
BRANCH  19  20
ATOM     20  C   UNL     1      -5.102   2.865  25.083  0.00  0.00    +0.214 C 
ATOM     21  O   UNL     1      -5.804   2.598  25.422  0.00  0.00    -0.218 OA
ENDBRANCH  19  20
BRANCH   9  10
ATOM     10  C   UNL     1      -3.593   0.412  24.707  0.00  0.00    +0.120 C 
BRANCH  10  11
ATOM     11  N   UNL     1      -4.164  -0.167  24.849  0.00  0.00    -0.217 NA
BRANCH  11  12
ATOM     12  C   UNL     1      -3.984  -0.962  24.731  0.00  0.00    +0.073 C 
ATOM     13  C   UNL     1      -3.586  -1.387  25.316  0.00  0.00    +0.017 C 
ATOM     14  C   UNL     1      -3.406  -2.183  25.199  0.00  0.00    +0.001 C 
ATOM     15  C   UNL     1      -3.624  -2.555  24.495  0.00  0.00    +0.000 C 
ATOM     16  C   UNL     1      -4.022  -2.131  23.910  0.00  0.00    +0.001 C 
ATOM     17  C   UNL     1      -4.202  -1.335  24.028  0.00  0.00    +0.017 C 
ENDBRANCH  11  12
ENDBRANCH  10  11
ENDBRANCH   9  10
TORSDOF 5
ENDMDL
MODEL 2
REMARK VINA RESULT:      -9.8      0.771      3.530
REMARK  Name = 
REMARK  5 active torsions:
REMARK  status: ('A' for Active; 'I' for Inactive)
REMARK    1  A    between atoms: N_5  and  C_8
REMARK    2  A    between atoms: C_9  and  C_10
REMARK    3  A    between atoms: C_10  and  N_11
REMARK    4  A    between atoms: N_11  and  C_12
REMARK    5  A    between atoms: C_19  and  C_20
REMARK                            x       y       z     vdW  Elec       q    Type
REMARK                         _______ _______ _______ _____ _____    ______ ____
ROOT
ATOM      8  C   UNL     1      -4.206   1.229  24.929  0.00  0.00    +0.120 C 
ATOM      9  C   UNL     1      -3.639   1.826  24.977  0.00  0.00    +0.150 C 
ATOM     18  O   UNL     1      -4.029   2.538  25.115  0.00  0.00    -0.350 OA
ATOM     19  C   UNL     1      -4.838   2.383  25.153  0.00  0.00    +0.180 C 
ATOM     22  C   UNL     1      -4.948   1.574  25.038  0.00  0.00    +0.198 C 
ATOM     23  O   UNL     1      -5.672   1.179  25.033  0.00  0.00    -0.219 OA
ENDROOT
BRANCH   8   5
ATOM      1  C   UNL     1      -3.616  -1.974  24.398  0.00  0.00    +0.000 C 
ATOM      2  C   UNL     1      -3.764  -1.173  24.531  0.00  0.00    +0.003 C 
ATOM      3  C   UNL     1      -3.792  -0.882  25.301  0.00  0.00    +0.017 C 
ATOM      4  C   UNL     1      -3.940  -0.080  25.434  0.00  0.00    +0.072 C 
ATOM      5  N   UNL     1      -4.059   0.428  24.796  0.00  0.00    -0.270 NA
ATOM      6  C   UNL     1      -4.031   0.137  24.026  0.00  0.00    +0.072 C 
ATOM      7  C   UNL     1      -3.883  -0.665  23.893  0.00  0.00    +0.017 C 
ENDBRANCH   8   5
BRANCH  19  20
ATOM     20  C   UNL     1      -5.434   2.940  25.283  0.00  0.00    +0.214 C 
ATOM     21  O   UNL     1      -5.236   3.719  25.465  0.00  0.00    -0.218 OA
ENDBRANCH  19  20
BRANCH   9  10
ATOM     10  C   UNL     1      -2.823   1.726  24.900  0.00  0.00    +0.120 C 
BRANCH  10  11
ATOM     11  N   UNL     1      -2.321   2.379  24.947  0.00  0.00    -0.217 NA
BRANCH  11  12
ATOM     12  C   UNL     1      -1.505   2.270  24.984  0.00  0.00    +0.073 C 
ATOM     13  C   UNL     1      -1.078   2.109  24.296  0.00  0.00    +0.017 C 
ATOM     14  C   UNL     1      -0.261   2.001  24.333  0.00  0.00    +0.001 C 
ATOM     15  C   UNL     1       0.129   2.053  25.058  0.00  0.00    +0.000 C 
ATOM     16  C   UNL     1      -0.297   2.214  25.746  0.00  0.00    +0.001 C 
ATOM     17  C   UNL     1      -1.114   2.323  25.709  0.00  0.00    +0.017 C 
ENDBRANCH  11  12
ENDBRANCH  10  11
ENDBRANCH   9  10
TORSDOF 5
ENDMDL
MODEL 3
REMARK VINA RESULT:      -9.6      1.522      2.963
REMARK  Name = 
REMARK  5 active torsions:
REMARK  status: ('A' for Active; 'I' for Inactive)
REMARK    1  A    between atoms: N_5  and  C_8
REMARK    2  A    between atoms: C_9  and  C_10
REMARK    3  A    between atoms: C_10  and  N_11
REMARK    4  A    between atoms: N_11  and  C_12
REMARK    5  A    between atoms: C_19  and  C_20
REMARK                            x       y       z     vdW  Elec       q    Type
REMARK                         _______ _______ _______ _____ _____    ______ ____
ROOT
ATOM      8  C   UNL     1      -2.289   2.480  24.698  0.00  0.00    +0.120 C 
ATOM      9  C   UNL     1      -2.111   1.679  24.616  0.00  0.00    +0.150 C 
ATOM     18  O   UNL     1      -1.302   1.612  24.468  0.00  0.00    -0.350 OA
ATOM     19  C   UNL     1      -0.981   2.372  24.458  0.00  0.00    +0.180 C 
ATOM     22  C   UNL     1      -1.590   2.908  24.600  0.00  0.00    +0.198 C 
ATOM     23  O   UNL     1      -1.515   3.728  24.638  0.00  0.00    -0.219 OA
ENDROOT
BRANCH   8   5
ATOM      1  C   UNL     1      -5.272   3.751  25.309  0.00  0.00    +0.000 C 
ATOM      2  C   UNL     1      -4.526   3.434  25.156  0.00  0.00    +0.003 C 
ATOM      3  C   UNL     1      -4.299   3.272  24.381  0.00  0.00    +0.017 C 
ATOM      4  C   UNL     1      -3.552   2.954  24.228  0.00  0.00    +0.072 C 
ATOM      5  N   UNL     1      -3.035   2.798  24.851  0.00  0.00    -0.270 NA
ATOM      6  C   UNL     1      -3.263   2.960  25.626  0.00  0.00    +0.072 C 
ATOM      7  C   UNL     1      -4.009   3.278  25.779  0.00  0.00    +0.017 C 
ENDBRANCH   8   5
BRANCH  19  20
ATOM     20  C   UNL     1      -0.188   2.561  24.328  0.00  0.00    +0.214 C 
ATOM     21  O   UNL     1       0.384   1.967  24.336  0.00  0.00    -0.218 OA
ENDBRANCH  19  20
BRANCH   9  10
ATOM     10  C   UNL     1      -2.647   1.055  24.673  0.00  0.00    +0.120 C 
BRANCH  10  11
ATOM     11  N   UNL     1      -2.388   0.277  24.577  0.00  0.00    -0.217 NA
BRANCH  11  12
ATOM     12  C   UNL     1      -2.915  -0.349  24.676  0.00  0.00    +0.073 C 
ATOM     13  C   UNL     1      -3.426  -0.560  24.064  0.00  0.00    +0.017 C 
ATOM     14  C   UNL     1      -3.953  -1.186  24.163  0.00  0.00    +0.001 C 
ATOM     15  C   UNL     1      -3.969  -1.603  24.875  0.00  0.00    +0.000 C 
ATOM     16  C   UNL     1      -3.458  -1.393  25.488  0.00  0.00    +0.001 C 
ATOM     17  C   UNL     1      -2.930  -0.766  25.388  0.00  0.00    +0.017 C 
ENDBRANCH  11  12
ENDBRANCH  10  11
ENDBRANCH   9  10
TORSDOF 5
ENDMDL
MODEL 4
REMARK VINA RESULT:      -9.4      1.494      3.864
REMARK  Name = 
REMARK  5 active torsions:
REMARK  status: ('A' for Active; 'I' for Inactive)
REMARK    1  A    between atoms: N_5  and  C_8
REMARK    2  A    between atoms: C_9  and  C_10
REMARK    3  A    between atoms: C_10  and  N_11
REMARK    4  A    between atoms: N_11  and  C_12
REMARK    5  A    between atoms: C_19  and  C_20
REMARK                            x       y       z     vdW  Elec       q    Type
REMARK                         _______ _______ _______ _____ _____    ______ ____
ROOT
ATOM      8  C   UNL     1      -2.108   0.388  24.661  0.00  0.00    +0.120 C 
ATOM      9  C   UNL     1      -2.477   1.125  24.661  0.00  0.00    +0.150 C 
ATOM     18  O   UNL     1      -1.905   1.697  24.500  0.00  0.00    -0.350 OA
ATOM     19  C   UNL     1      -1.182   1.313  24.401  0.00  0.00    +0.180 C 
ATOM     22  C   UNL     1      -1.306   0.505  24.500  0.00  0.00    +0.198 C 
ATOM     23  O   UNL     1      -0.732  -0.085  24.448  0.00  0.00    -0.219 OA
ENDROOT
BRANCH   8   5
ATOM      1  C   UNL     1      -3.573  -2.517  25.209  0.00  0.00    +0.000 C 
ATOM      2  C   UNL     1      -3.207  -1.791  25.072  0.00  0.00    +0.003 C 
ATOM      3  C   UNL     1      -2.901  -1.358  25.703  0.00  0.00    +0.017 C 
ATOM      4  C   UNL     1      -2.534  -0.631  25.566  0.00  0.00    +0.072 C 
ATOM      5  N   UNL     1      -2.474  -0.338  24.798  0.00  0.00    -0.270 NA
ATOM      6  C   UNL     1      -2.780  -0.771  24.166  0.00  0.00    +0.072 C 
ATOM      7  C   UNL     1      -3.146  -1.498  24.303  0.00  0.00    +0.017 C 
ENDBRANCH   8   5
BRANCH  19  20
ATOM     20  C   UNL     1      -0.460   1.676  24.231  0.00  0.00    +0.214 C 
ATOM     21  O   UNL     1      -0.398   2.498  24.245  0.00  0.00    -0.218 OA
ENDBRANCH  19  20
BRANCH   9  10
ATOM     10  C   UNL     1      -3.279   1.266  24.798  0.00  0.00    +0.120 C 
BRANCH  10  11
ATOM     11  N   UNL     1      -3.594   2.017  24.669  0.00  0.00    -0.217 NA
BRANCH  11  12
ATOM     12  C   UNL     1      -4.351   2.200  24.940  0.00  0.00    +0.073 C 
ATOM     13  C   UNL     1      -5.004   1.787  24.651  0.00  0.00    +0.017 C 
ATOM     14  C   UNL     1      -5.761   1.969  24.922  0.00  0.00    +0.001 C 
ATOM     15  C   UNL     1      -5.865   2.565  25.483  0.00  0.00    +0.000 C 
ATOM     16  C   UNL     1      -5.213   2.978  25.773  0.00  0.00    +0.001 C 
ATOM     17  C   UNL     1      -4.455   2.796  25.501  0.00  0.00    +0.017 C 
ENDBRANCH  11  12
ENDBRANCH  10  11
ENDBRANCH   9  10
TORSDOF 5
ENDMDL
