REMARK  Name = 
REMARK  7 active torsions:
REMARK  status: ('A' for Active; 'I' for Inactive)
REMARK    1  A    between atoms: N_7  and  S_24
REMARK    2  A    between atoms: C_8  and  C_10
REMARK    3  A    between atoms: N_12  and  C_13
REMARK    4  A    between atoms: C_13  and  C_14
REMARK    5  A    between atoms: C_13  and  C_21
REMARK    6  A    between atoms: C_14  and  C_15
REMARK    7  A    between atoms: S_24  and  C_27
REMARK                            x       y       z     vdW  Elec       q    Type
REMARK                         _______ _______ _______ _____ _____    ______ ____
ROOT
ATOM      1  C   UNL     1       0.000  -2.475   0.000  0.00  0.00    +0.095 C 
ATOM      2  C   UNL     1       0.000  -1.650   0.000  0.00  0.00    +0.226 C 
ATOM      3  O   UNL     1      -0.715  -1.238   0.000  0.00  0.00    -0.275 OA
ATOM      4  N   UNL     1       0.715  -1.238   0.000  0.00  0.00    -0.276 N 
ATOM      5  C   UNL     1       0.715  -0.412   0.000  0.00  0.00    +0.113 C 
ATOM      6  C   UNL     1       1.429   0.000   0.000  0.00  0.00    +0.118 C 
ATOM      7  N   UNL     1       2.143  -0.412   0.000  0.00  0.00    -0.145 NA
ATOM      8  C   UNL     1       2.143  -1.238   0.000  0.00  0.00    +0.177 C 
ATOM      9  C   UNL     1       1.429  -1.650   0.000  0.00  0.00    +0.120 C 
ENDROOT
BRANCH   8  10
ATOM     10  C   UNL     1       2.858  -1.650   0.000  0.00  0.00    +0.260 C 
ATOM     11  O   UNL     1       3.572  -1.238   0.000  0.00  0.00    -0.272 OA
ATOM     12  N   UNL     1       2.858  -2.475   0.000  0.00  0.00    -0.197 NA
BRANCH  12  13
ATOM     13  C   UNL     1       3.572  -2.888   0.000  0.00  0.00    +0.174 C 
BRANCH  13  21
ATOM     21  C   UNL     1       4.287  -2.475   0.000  0.00  0.00    +0.281 C 
ATOM     22  N   UNL     1       4.287  -1.650   0.000  0.00  0.00    -0.086 NA
ATOM     23  O   UNL     1       5.001  -2.888   0.000  0.00  0.00    -0.270 OA
ENDBRANCH  13  21
BRANCH  13  14
ATOM     14  C   UNL     1       3.572  -3.712   0.000  0.00  0.00    +0.031 C 
BRANCH  14  15
ATOM     15  C   UNL     1       4.287  -4.125   0.000  0.00  0.00    +0.002 C 
ATOM     16  C   UNL     1       5.001  -3.712   0.000  0.00  0.00    +0.000 C 
ATOM     17  C   UNL     1       5.716  -4.125   0.000  0.00  0.00    +0.000 C 
ATOM     18  C   UNL     1       5.716  -4.950   0.000  0.00  0.00    +0.000 C 
ATOM     19  C   UNL     1       5.001  -5.362   0.000  0.00  0.00    +0.000 C 
ATOM     20  C   UNL     1       4.287  -4.950   0.000  0.00  0.00    +0.000 C 
ENDBRANCH  14  15
ENDBRANCH  13  14
ENDBRANCH  12  13
ENDBRANCH   8  10
BRANCH   7  24
ATOM     24  S   UNL     1       2.858   0.000   0.000  0.00  0.00    +0.064 S 
ATOM     25  O   UNL     1       3.270  -0.715   0.000  0.00  0.00    -0.153 OA
ATOM     26  O   UNL     1       2.445   0.715   0.000  0.00  0.00    -0.153 OA
BRANCH  24  27
ATOM     27  C   UNL     1       3.572   0.412   0.000  0.00  0.00    +0.122 A 
ATOM     28  C   UNL     1       3.572   1.238   0.000  0.00  0.00    +0.020 A 
ATOM     29  C   UNL     1       4.287   1.650   0.000  0.00  0.00    +0.001 A 
ATOM     30  C   UNL     1       5.001   1.238   0.000  0.00  0.00    +0.000 A 
ATOM     31  C   UNL     1       5.001   0.412   0.000  0.00  0.00    +0.001 A 
ATOM     32  C   UNL     1       4.287   0.000   0.000  0.00  0.00    +0.020 A 
ENDBRANCH  24  27
ENDBRANCH   7  24
TORSDOF 7
