MODEL 1
REMARK VINA RESULT:      -9.7      0.000      0.000
REMARK  Name = 
REMARK  9 active torsions:
REMARK  status: ('A' for Active; 'I' for Inactive)
REMARK    1  A    between atoms: O_2  and  C_3
REMARK    2  A    between atoms: C_3  and  C_4
REMARK    3  A    between atoms: C_4  and  N_5
REMARK    4  A    between atoms: N_5  and  C_6
REMARK    5  A    between atoms: C_9  and  C_12
REMARK    6  A    between atoms: C_15  and  C_17
REMARK    7  A    between atoms: N_21  and  C_22
REMARK    8  A    between atoms: C_22  and  C_23
REMARK    9  A    between atoms: C_26  and  C_29
REMARK                            x       y       z     vdW  Elec       q    Type
REMARK                         _______ _______ _______ _____ _____    ______ ____
ROOT
ATOM     12  C   UNL     1      -0.971   0.027  24.482  0.00  0.00    +0.205 A 
ATOM     13  N   UNL     1      -1.002   0.009  25.307  0.00  0.00    -0.056 NA
ATOM     14  O   UNL     1      -1.796  -0.016  25.532  0.00  0.00    -0.336 OA
ATOM     15  C   UNL     1      -2.255  -0.015  24.847  0.00  0.00    +0.251 A 
ATOM     16  N   UNL     1      -1.745   0.012  24.198  0.00  0.00    -0.190 NA
ENDROOT
BRANCH  12   9
ATOM      6  C   UNL     1       1.084   0.110  23.105  0.00  0.00    +0.148 A 
ATOM      7  C   UNL     1       0.710   0.811  23.332  0.00  0.00    +0.036 A 
ATOM      8  C   UNL     1       0.025   0.783  23.791  0.00  0.00    +0.008 A 
ATOM      9  C   UNL     1      -0.286   0.055  24.023  0.00  0.00    +0.058 A 
ATOM     10  C   UNL     1       0.087  -0.645  23.797  0.00  0.00    +0.103 A 
ATOM     11  N   UNL     1       0.772  -0.617  23.338  0.00  0.00    -0.228 NA
BRANCH   6   5
ATOM      5  N   UNL     1       1.769   0.138  22.646  0.00  0.00    -0.218 NA
BRANCH   5   4
ATOM      4  C   UNL     1       2.475   0.407  22.976  0.00  0.00    +0.146 C 
BRANCH   4   3
ATOM      3  C   UNL     1       3.175   0.362  22.543  0.00  0.00    +0.166 C 
BRANCH   3   2
ATOM      1  C   UNL     1       4.551   0.502  22.904  0.00  0.00    +0.174 C 
ATOM      2  O   UNL     1       3.817   0.842  22.743  0.00  0.00    -0.349 OA
ENDBRANCH   3   2
ENDBRANCH   4   3
ENDBRANCH   5   4
ENDBRANCH   6   5
ENDBRANCH  12   9
BRANCH  15  17
ATOM     17  C   UNL     1      -3.079  -0.036  24.815  0.00  0.00    +0.138 C 
ATOM     18  C   UNL     1      -3.548  -0.715  24.841  0.00  0.00    +0.027 C 
ATOM     19  C   UNL     1      -4.338  -0.480  24.793  0.00  0.00    +0.019 C 
ATOM     20  C   UNL     1      -4.357   0.342  24.739  0.00  0.00    +0.073 C 
ATOM     21  N   UNL     1      -3.579   0.617  24.752  0.00  0.00    -0.263 NA
BRANCH  21  22
ATOM     22  C   UNL     1      -3.343   1.406  24.710  0.00  0.00    +0.099 C 
BRANCH  22  23
ATOM     23  C   UNL     1      -3.883   2.008  24.873  0.00  0.00    -0.006 A 
ATOM     24  C   UNL     1      -3.988   2.270  25.649  0.00  0.00    -0.003 A 
ATOM     25  C   UNL     1      -4.528   2.871  25.812  0.00  0.00    +0.004 A 
ATOM     26  C   UNL     1      -4.964   3.211  25.200  0.00  0.00    +0.071 A 
ATOM     27  C   UNL     1      -4.860   2.950  24.424  0.00  0.00    +0.004 A 
ATOM     28  C   UNL     1      -4.320   2.348  24.261  0.00  0.00    -0.003 A 
BRANCH  26  29
ATOM     29  C   UNL     1      -5.505   3.813  25.363  0.00  0.00    +0.419 C 
ATOM     30  F   UNL     1      -6.045   4.414  25.526  0.00  0.00    -0.166 F 
ATOM     31  F   UNL     1      -4.920   4.378  25.218  0.00  0.00    -0.166 F 
ATOM     32  F   UNL     1      -6.089   3.249  25.508  0.00  0.00    -0.166 F 
ENDBRANCH  26  29
ENDBRANCH  22  23
ENDBRANCH  21  22
ENDBRANCH  15  17
TORSDOF 9
ENDMDL
MODEL 2
REMARK VINA RESULT:      -9.1      3.222      4.370
REMARK  Name = 
REMARK  9 active torsions:
REMARK  status: ('A' for Active; 'I' for Inactive)
REMARK    1  A    between atoms: O_2  and  C_3
REMARK    2  A    between atoms: C_3  and  C_4
REMARK    3  A    between atoms: C_4  and  N_5
REMARK    4  A    between atoms: N_5  and  C_6
REMARK    5  A    between atoms: C_9  and  C_12
REMARK    6  A    between atoms: C_15  and  C_17
REMARK    7  A    between atoms: N_21  and  C_22
REMARK    8  A    between atoms: C_22  and  C_23
REMARK    9  A    between atoms: C_26  and  C_29
REMARK                            x       y       z     vdW  Elec       q    Type
REMARK                         _______ _______ _______ _____ _____    ______ ____
ROOT
ATOM     12  C   UNL     1      -4.745   0.634  24.882  0.00  0.00    +0.205 A 
ATOM     13  N   UNL     1      -5.494   0.774  24.565  0.00  0.00    -0.056 NA
ATOM     14  O   UNL     1      -5.685   1.566  24.701  0.00  0.00    -0.336 OA
ATOM     15  C   UNL     1      -5.054   1.915  25.102  0.00  0.00    +0.251 A 
ATOM     16  N   UNL     1      -4.473   1.339  25.214  0.00  0.00    -0.190 NA
ENDROOT
BRANCH  12   9
ATOM      6  C   UNL     1      -3.529  -1.521  24.845  0.00  0.00    +0.148 A 
ATOM      7  C   UNL     1      -3.855  -1.219  24.149  0.00  0.00    +0.036 A 
ATOM      8  C   UNL     1      -4.261  -0.500  24.161  0.00  0.00    +0.008 A 
ATOM      9  C   UNL     1      -4.340  -0.084  24.870  0.00  0.00    +0.058 A 
ATOM     10  C   UNL     1      -4.014  -0.386  25.564  0.00  0.00    +0.103 A 
ATOM     11  N   UNL     1      -3.609  -1.104  25.552  0.00  0.00    -0.228 NA
BRANCH   6   5
ATOM      5  N   UNL     1      -3.124  -2.239  24.832  0.00  0.00    -0.218 NA
BRANCH   5   4
ATOM      4  C   UNL     1      -2.362  -2.277  24.520  0.00  0.00    +0.146 C 
BRANCH   4   3
ATOM      3  C   UNL     1      -1.770  -2.683  24.927  0.00  0.00    +0.166 C 
BRANCH   3   2
ATOM      1  C   UNL     1      -0.417  -2.283  25.160  0.00  0.00    +0.174 C 
ATOM      2  O   UNL     1      -0.985  -2.632  24.674  0.00  0.00    -0.349 OA
ENDBRANCH   3   2
ENDBRANCH   4   3
ENDBRANCH   5   4
ENDBRANCH   6   5
ENDBRANCH  12   9
BRANCH  15  17
ATOM     17  C   UNL     1      -5.011   2.701  25.348  0.00  0.00    +0.138 C 
ATOM     18  C   UNL     1      -5.637   3.153  25.639  0.00  0.00    +0.027 C 
ATOM     19  C   UNL     1      -5.347   3.905  25.817  0.00  0.00    +0.019 C 
ATOM     20  C   UNL     1      -4.543   3.917  25.636  0.00  0.00    +0.073 C 
ATOM     21  N   UNL     1      -4.335   3.173  25.346  0.00  0.00    -0.263 NA
BRANCH  21  22
ATOM     22  C   UNL     1      -3.583   2.943  25.098  0.00  0.00    +0.099 C 
BRANCH  22  23
ATOM     23  C   UNL     1      -2.966   3.490  25.086  0.00  0.00    -0.006 A 
ATOM     24  C   UNL     1      -2.495   3.596  25.755  0.00  0.00    -0.003 A 
ATOM     25  C   UNL     1      -1.879   4.143  25.744  0.00  0.00    +0.004 A 
ATOM     26  C   UNL     1      -1.732   4.585  25.064  0.00  0.00    +0.071 A 
ATOM     27  C   UNL     1      -2.203   4.481  24.394  0.00  0.00    +0.004 A 
ATOM     28  C   UNL     1      -2.820   3.933  24.406  0.00  0.00    -0.003 A 
BRANCH  26  29
ATOM     29  C   UNL     1      -1.115   5.134  25.052  0.00  0.00    +0.419 C 
ATOM     30  F   UNL     1      -0.498   5.681  25.040  0.00  0.00    -0.166 F 
ATOM     31  F   UNL     1      -1.603   5.691  25.415  0.00  0.00    -0.166 F 
ATOM     32  F   UNL     1      -0.627   4.576  24.689  0.00  0.00    -0.166 F 
ENDBRANCH  26  29
ENDBRANCH  22  23
ENDBRANCH  21  22
ENDBRANCH  15  17
TORSDOF 9
ENDMDL
MODEL 3
REMARK VINA RESULT:      -9.0      2.241      3.690
REMARK  Name = 
REMARK  9 active torsions:
REMARK  status: ('A' for Active; 'I' for Inactive)
REMARK    1  A    between atoms: O_2  and  C_3
REMARK    2  A    between atoms: C_3  and  C_4
REMARK    3  A    between atoms: C_4  and  N_5
REMARK    4  A    between atoms: N_5  and  C_6
REMARK    5  A    between atoms: C_9  and  C_12
REMARK    6  A    between atoms: C_15  and  C_17
REMARK    7  A    between atoms: N_21  and  C_22
REMARK    8  A    between atoms: C_22  and  C_23
REMARK    9  A    between atoms: C_26  and  C_29
REMARK                            x       y       z     vdW  Elec       q    Type
REMARK                         _______ _______ _______ _____ _____    ______ ____
ROOT
ATOM     12  C   UNL     1      -0.400   1.655  25.197  0.00  0.00    +0.205 A 
ATOM     13  N   UNL     1       0.277   1.987  25.533  0.00  0.00    -0.056 NA
ATOM     14  O   UNL     1       0.173   2.806  25.561  0.00  0.00    -0.336 OA
ATOM     15  C   UNL     1      -0.568   2.979  25.243  0.00  0.00    +0.251 A 
ATOM     16  N   UNL     1      -0.922   2.268  25.018  0.00  0.00    -0.190 NA
ENDROOT
BRANCH  12   9
ATOM      6  C   UNL     1      -0.792  -0.756  24.799  0.00  0.00    +0.148 A 
ATOM      7  C   UNL     1      -1.006  -0.416  25.521  0.00  0.00    +0.036 A 
ATOM      8  C   UNL     1      -0.875   0.387  25.653  0.00  0.00    +0.008 A 
ATOM      9  C   UNL     1      -0.531   0.852  25.064  0.00  0.00    +0.058 A 
ATOM     10  C   UNL     1      -0.317   0.513  24.344  0.00  0.00    +0.103 A 
ATOM     11  N   UNL     1      -0.448  -0.291  24.211  0.00  0.00    -0.228 NA
BRANCH   6   5
ATOM      5  N   UNL     1      -0.923  -1.559  24.666  0.00  0.00    -0.218 NA
BRANCH   5   4
ATOM      4  C   UNL     1      -1.646  -1.815  24.364  0.00  0.00    +0.146 C 
BRANCH   4   3
ATOM      3  C   UNL     1      -1.920  -2.574  24.534  0.00  0.00    +0.166 C 
BRANCH   3   2
ATOM      1  C   UNL     1      -3.293  -2.971  24.502  0.00  0.00    +0.174 C 
ATOM      2  O   UNL     1      -2.566  -2.883  24.123  0.00  0.00    -0.349 OA
ENDBRANCH   3   2
ENDBRANCH   4   3
ENDBRANCH   5   4
ENDBRANCH   6   5
ENDBRANCH  12   9
BRANCH  15  17
ATOM     17  C   UNL     1      -0.898   3.731  25.163  0.00  0.00    +0.138 C 
ATOM     18  C   UNL     1      -0.561   4.368  24.762  0.00  0.00    +0.027 C 
ATOM     19  C   UNL     1      -1.078   5.009  24.821  0.00  0.00    +0.019 C 
ATOM     20  C   UNL     1      -1.734   4.767  25.259  0.00  0.00    +0.073 C 
ATOM     21  N   UNL     1      -1.623   3.977  25.470  0.00  0.00    -0.263 NA
BRANCH  21  22
ATOM     22  C   UNL     1      -2.146   3.516  25.911  0.00  0.00    +0.099 C 
BRANCH  22  23
ATOM     23  C   UNL     1      -2.959   3.620  25.827  0.00  0.00    -0.006 A 
ATOM     24  C   UNL     1      -3.377   4.070  26.379  0.00  0.00    -0.003 A 
ATOM     25  C   UNL     1      -4.190   4.174  26.295  0.00  0.00    +0.004 A 
ATOM     26  C   UNL     1      -4.588   3.828  25.661  0.00  0.00    +0.071 A 
ATOM     27  C   UNL     1      -4.171   3.378  25.109  0.00  0.00    +0.004 A 
ATOM     28  C   UNL     1      -3.357   3.274  25.192  0.00  0.00    -0.003 A 
BRANCH  26  29
ATOM     29  C   UNL     1      -5.402   3.932  25.577  0.00  0.00    +0.419 C 
ATOM     30  F   UNL     1      -6.216   4.036  25.493  0.00  0.00    -0.166 F 
ATOM     31  F   UNL     1      -5.270   4.636  25.166  0.00  0.00    -0.166 F 
ATOM     32  F   UNL     1      -5.534   3.229  25.987  0.00  0.00    -0.166 F 
ENDBRANCH  26  29
ENDBRANCH  22  23
ENDBRANCH  21  22
ENDBRANCH  15  17
TORSDOF 9
ENDMDL
MODEL 4
REMARK VINA RESULT:      -9.0      3.592      4.537
REMARK  Name = 
REMARK  9 active torsions:
REMARK  status: ('A' for Active; 'I' for Inactive)
REMARK    1  A    between atoms: O_2  and  C_3
REMARK    2  A    between atoms: C_3  and  C_4
REMARK    3  A    between atoms: C_4  and  N_5
REMARK    4  A    between atoms: N_5  and  C_6
REMARK    5  A    between atoms: C_9  and  C_12
REMARK    6  A    between atoms: C_15  and  C_17
REMARK    7  A    between atoms: N_21  and  C_22
REMARK    8  A    between atoms: C_22  and  C_23
REMARK    9  A    between atoms: C_26  and  C_29
REMARK                            x       y       z     vdW  Elec       q    Type
REMARK                         _______ _______ _______ _____ _____    ______ ____
ROOT
ATOM     12  C   UNL     1      -2.098   2.392  25.077  0.00  0.00    +0.205 A 
ATOM     13  N   UNL     1      -2.318   2.785  24.386  0.00  0.00    -0.056 NA
ATOM     14  O   UNL     1      -3.075   2.530  24.178  0.00  0.00    -0.336 OA
ATOM     15  C   UNL     1      -3.323   1.980  24.741  0.00  0.00    +0.251 A 
ATOM     16  N   UNL     1      -2.718   1.895  25.297  0.00  0.00    -0.190 NA
ENDROOT
BRANCH  12   9
ATOM      6  C   UNL     1       0.048   2.658  26.281  0.00  0.00    +0.148 A 
ATOM      7  C   UNL     1      -0.195   1.909  26.032  0.00  0.00    +0.036 A 
ATOM      8  C   UNL     1      -0.911   1.821  25.631  0.00  0.00    +0.008 A 
ATOM      9  C   UNL     1      -1.382   2.480  25.479  0.00  0.00    +0.058 A 
ATOM     10  C   UNL     1      -1.140   3.228  25.727  0.00  0.00    +0.103 A 
ATOM     11  N   UNL     1      -0.424   3.317  26.129  0.00  0.00    -0.228 NA
BRANCH   6   5
ATOM      5  N   UNL     1       0.764   2.747  26.682  0.00  0.00    -0.218 NA
BRANCH   5   4
ATOM      4  C   UNL     1       0.797   2.623  27.497  0.00  0.00    +0.146 C 
BRANCH   4   3
ATOM      3  C   UNL     1       1.514   2.706  27.897  0.00  0.00    +0.166 C 
BRANCH   3   2
ATOM      1  C   UNL     1       2.264   2.667  29.113  0.00  0.00    +0.174 C 
ATOM      2  O   UNL     1       1.545   2.598  28.715  0.00  0.00    -0.349 OA
ENDBRANCH   3   2
ENDBRANCH   4   3
ENDBRANCH   5   4
ENDBRANCH   6   5
ENDBRANCH  12   9
BRANCH  15  17
ATOM     17  C   UNL     1      -4.047   1.585  24.747  0.00  0.00    +0.138 C 
ATOM     18  C   UNL     1      -4.760   1.884  25.036  0.00  0.00    +0.027 C 
ATOM     19  C   UNL     1      -5.339   1.305  24.934  0.00  0.00    +0.019 C 
ATOM     20  C   UNL     1      -4.984   0.649  24.581  0.00  0.00    +0.073 C 
ATOM     21  N   UNL     1      -4.185   0.822  24.466  0.00  0.00    -0.263 NA
BRANCH  21  22
ATOM     22  C   UNL     1      -3.625   0.320  24.129  0.00  0.00    +0.099 C 
BRANCH  22  23
ATOM     23  C   UNL     1      -3.680  -0.495  24.241  0.00  0.00    -0.006 A 
ATOM     24  C   UNL     1      -4.114  -0.955  23.710  0.00  0.00    -0.003 A 
ATOM     25  C   UNL     1      -4.170  -1.770  23.822  0.00  0.00    +0.004 A 
ATOM     26  C   UNL     1      -3.792  -2.126  24.463  0.00  0.00    +0.071 A 
ATOM     27  C   UNL     1      -3.359  -1.666  24.994  0.00  0.00    +0.004 A 
ATOM     28  C   UNL     1      -3.303  -0.850  24.882  0.00  0.00    -0.003 A 
BRANCH  26  29
ATOM     29  C   UNL     1      -3.848  -2.942  24.575  0.00  0.00    +0.419 C 
ATOM     30  F   UNL     1      -3.904  -3.757  24.687  0.00  0.00    -0.166 F 
ATOM     31  F   UNL     1      -3.581  -2.854  25.351  0.00  0.00    -0.166 F 
ATOM     32  F   UNL     1      -4.114  -3.030  23.800  0.00  0.00    -0.166 F 
ENDBRANCH  26  29
ENDBRANCH  22  23
ENDBRANCH  21  22
ENDBRANCH  15  17
TORSDOF 9
ENDMDL
MODEL 5
REMARK VINA RESULT:      -8.9      2.605      3.515
REMARK  Name = 
REMARK  9 active torsions:
REMARK  status: ('A' for Active; 'I' for Inactive)
REMARK    1  A    between atoms: O_2  and  C_3
REMARK    2  A    between atoms: C_3  and  C_4
REMARK    3  A    between atoms: C_4  and  N_5
REMARK    4  A    between atoms: N_5  and  C_6
REMARK    5  A    between atoms: C_9  and  C_12
REMARK    6  A    between atoms: C_15  and  C_17
REMARK    7  A    between atoms: N_21  and  C_22
REMARK    8  A    between atoms: C_22  and  C_23
REMARK    9  A    between atoms: C_26  and  C_29
REMARK                            x       y       z     vdW  Elec       q    Type
REMARK                         _______ _______ _______ _____ _____    ______ ____
ROOT
ATOM     12  C   UNL     1      -0.053   1.140  24.000  0.00  0.00    +0.205 A 
ATOM     13  N   UNL     1      -0.166   1.516  24.727  0.00  0.00    -0.056 NA
ATOM     14  O   UNL     1      -0.978   1.600  24.847  0.00  0.00    -0.336 OA
ATOM     15  C   UNL     1      -1.367   1.276  24.195  0.00  0.00    +0.251 A 
ATOM     16  N   UNL     1      -0.795   0.992  23.672  0.00  0.00    -0.190 NA
ENDROOT
BRANCH  12   9
ATOM      6  C   UNL     1       2.129   0.560  22.987  0.00  0.00    +0.148 A 
ATOM      7  C   UNL     1       1.489   0.044  22.913  0.00  0.00    +0.036 A 
ATOM      8  C   UNL     1       0.762   0.237  23.251  0.00  0.00    +0.008 A 
ATOM      9  C   UNL     1       0.674   0.947  23.662  0.00  0.00    +0.058 A 
ATOM     10  C   UNL     1       1.313   1.463  23.736  0.00  0.00    +0.103 A 
ATOM     11  N   UNL     1       2.040   1.270  23.398  0.00  0.00    -0.228 NA
BRANCH   6   5
ATOM      5  N   UNL     1       2.856   0.367  22.649  0.00  0.00    -0.218 NA
BRANCH   5   4
ATOM      4  C   UNL     1       3.555   0.643  22.989  0.00  0.00    +0.146 C 
BRANCH   4   3
ATOM      3  C   UNL     1       4.279   0.315  22.768  0.00  0.00    +0.166 C 
BRANCH   3   2
ATOM      1  C   UNL     1       5.517   0.036  23.426  0.00  0.00    +0.174 C 
ATOM      2  O   UNL     1       4.977   0.580  23.120  0.00  0.00    -0.349 OA
ENDBRANCH   3   2
ENDBRANCH   4   3
ENDBRANCH   5   4
ENDBRANCH   6   5
ENDBRANCH  12   9
BRANCH  15  17
ATOM     17  C   UNL     1      -2.184   1.242  24.085  0.00  0.00    +0.138 C 
ATOM     18  C   UNL     1      -2.633   1.760  23.625  0.00  0.00    +0.027 C 
ATOM     19  C   UNL     1      -3.422   1.522  23.671  0.00  0.00    +0.019 C 
ATOM     20  C   UNL     1      -3.460   0.858  24.159  0.00  0.00    +0.073 C 
ATOM     21  N   UNL     1      -2.695   0.685  24.415  0.00  0.00    -0.263 NA
BRANCH  21  22
ATOM     22  C   UNL     1      -2.479   0.064  24.913  0.00  0.00    +0.099 C 
BRANCH  22  23
ATOM     23  C   UNL     1      -2.822  -0.680  24.818  0.00  0.00    -0.006 A 
ATOM     24  C   UNL     1      -3.566  -0.836  25.139  0.00  0.00    -0.003 A 
ATOM     25  C   UNL     1      -3.909  -1.579  25.043  0.00  0.00    +0.004 A 
ATOM     26  C   UNL     1      -3.508  -2.168  24.627  0.00  0.00    +0.071 A 
ATOM     27  C   UNL     1      -2.764  -2.013  24.306  0.00  0.00    +0.004 A 
ATOM     28  C   UNL     1      -2.421  -1.268  24.401  0.00  0.00    -0.003 A 
BRANCH  26  29
ATOM     29  C   UNL     1      -3.851  -2.913  24.531  0.00  0.00    +0.419 C 
ATOM     30  F   UNL     1      -4.194  -3.656  24.436  0.00  0.00    -0.166 F 
ATOM     31  F   UNL     1      -3.520  -3.157  25.247  0.00  0.00    -0.166 F 
ATOM     32  F   UNL     1      -4.183  -2.668  23.817  0.00  0.00    -0.166 F 
ENDBRANCH  26  29
ENDBRANCH  22  23
ENDBRANCH  21  22
ENDBRANCH  15  17
TORSDOF 9
ENDMDL
MODEL 6
REMARK VINA RESULT:      -8.8      1.390      2.097
REMARK  Name = 
REMARK  9 active torsions:
REMARK  status: ('A' for Active; 'I' for Inactive)
REMARK    1  A    between atoms: O_2  and  C_3
REMARK    2  A    between atoms: C_3  and  C_4
REMARK    3  A    between atoms: C_4  and  N_5
REMARK    4  A    between atoms: N_5  and  C_6
REMARK    5  A    between atoms: C_9  and  C_12
REMARK    6  A    between atoms: C_15  and  C_17
REMARK    7  A    between atoms: N_21  and  C_22
REMARK    8  A    between atoms: C_22  and  C_23
REMARK    9  A    between atoms: C_26  and  C_29
REMARK                            x       y       z     vdW  Elec       q    Type
REMARK                         _______ _______ _______ _____ _____    ______ ____
ROOT
ATOM     12  C   UNL     1      -0.269   1.330  24.653  0.00  0.00    +0.205 A 
ATOM     13  N   UNL     1      -0.599   0.899  25.275  0.00  0.00    -0.056 NA
ATOM     14  O   UNL     1      -1.202   1.354  25.608  0.00  0.00    -0.336 OA
ATOM     15  C   UNL     1      -1.245   2.065  25.192  0.00  0.00    +0.251 A 
ATOM     16  N   UNL     1      -0.668   2.050  24.602  0.00  0.00    -0.190 NA
ENDROOT
BRANCH  12   9
ATOM      6  C   UNL     1       1.590   0.589  23.197  0.00  0.00    +0.148 A 
ATOM      7  C   UNL     1       0.912   0.123  23.270  0.00  0.00    +0.036 A 
ATOM      8  C   UNL     1       0.292   0.370  23.755  0.00  0.00    +0.008 A 
ATOM      9  C   UNL     1       0.350   1.083  24.168  0.00  0.00    +0.058 A 
ATOM     10  C   UNL     1       1.027   1.548  24.095  0.00  0.00    +0.103 A 
ATOM     11  N   UNL     1       1.647   1.301  23.609  0.00  0.00    -0.228 NA
BRANCH   6   5
ATOM      5  N   UNL     1       2.210   0.342  22.712  0.00  0.00    -0.218 NA
BRANCH   5   4
ATOM      4  C   UNL     1       2.965   0.656  22.816  0.00  0.00    +0.146 C 
BRANCH   4   3
ATOM      3  C   UNL     1       3.627   0.223  22.583  0.00  0.00    +0.166 C 
BRANCH   3   2
ATOM      1  C   UNL     1       4.986   0.188  23.025  0.00  0.00    +0.174 C 
ATOM      2  O   UNL     1       4.378   0.566  22.616  0.00  0.00    -0.349 OA
ENDBRANCH   3   2
ENDBRANCH   4   3
ENDBRANCH   5   4
ENDBRANCH   6   5
ENDBRANCH  12   9
BRANCH  15  17
ATOM     17  C   UNL     1      -1.771   2.682  25.340  0.00  0.00    +0.138 C 
ATOM     18  C   UNL     1      -1.603   3.372  25.760  0.00  0.00    +0.027 C 
ATOM     19  C   UNL     1      -2.286   3.836  25.774  0.00  0.00    +0.019 C 
ATOM     20  C   UNL     1      -2.876   3.432  25.362  0.00  0.00    +0.073 C 
ATOM     21  N   UNL     1      -2.558   2.719  25.094  0.00  0.00    -0.263 NA
BRANCH  21  22
ATOM     22  C   UNL     1      -2.956   2.144  24.657  0.00  0.00    +0.099 C 
BRANCH  22  23
ATOM     23  C   UNL     1      -3.777   2.081  24.710  0.00  0.00    -0.006 A 
ATOM     24  C   UNL     1      -4.259   2.582  24.266  0.00  0.00    -0.003 A 
ATOM     25  C   UNL     1      -5.079   2.518  24.319  0.00  0.00    +0.004 A 
ATOM     26  C   UNL     1      -5.419   1.954  24.816  0.00  0.00    +0.071 A 
ATOM     27  C   UNL     1      -4.937   1.453  25.261  0.00  0.00    +0.004 A 
ATOM     28  C   UNL     1      -4.116   1.517  25.208  0.00  0.00    -0.003 A 
BRANCH  26  29
ATOM     29  C   UNL     1      -6.240   1.891  24.869  0.00  0.00    +0.419 C 
ATOM     30  F   UNL     1      -7.060   1.827  24.922  0.00  0.00    -0.166 F 
ATOM     31  F   UNL     1      -6.210   1.172  24.465  0.00  0.00    -0.166 F 
ATOM     32  F   UNL     1      -6.269   2.609  25.273  0.00  0.00    -0.166 F 
ENDBRANCH  26  29
ENDBRANCH  22  23
ENDBRANCH  21  22
ENDBRANCH  15  17
TORSDOF 9
ENDMDL
MODEL 7
REMARK VINA RESULT:      -8.7      2.002      2.436
REMARK  Name = 
REMARK  9 active torsions:
REMARK  status: ('A' for Active; 'I' for Inactive)
REMARK    1  A    between atoms: O_2  and  C_3
REMARK    2  A    between atoms: C_3  and  C_4
REMARK    3  A    between atoms: C_4  and  N_5
REMARK    4  A    between atoms: N_5  and  C_6
REMARK    5  A    between atoms: C_9  and  C_12
REMARK    6  A    between atoms: C_15  and  C_17
REMARK    7  A    between atoms: N_21  and  C_22
REMARK    8  A    between atoms: C_22  and  C_23
REMARK    9  A    between atoms: C_26  and  C_29
REMARK                            x       y       z     vdW  Elec       q    Type
REMARK                         _______ _______ _______ _____ _____    ______ ____
ROOT
ATOM     12  C   UNL     1      -0.206   0.311  23.784  0.00  0.00    +0.205 A 
ATOM     13  N   UNL     1      -0.520  -0.228  24.325  0.00  0.00    -0.056 NA
ATOM     14  O   UNL     1      -1.286   0.016  24.512  0.00  0.00    -0.336 OA
ATOM     15  C   UNL     1      -1.446   0.704  24.086  0.00  0.00    +0.251 A 
ATOM     16  N   UNL     1      -0.778   0.887  23.636  0.00  0.00    -0.190 NA
ENDROOT
BRANCH  12   9
ATOM      6  C   UNL     1       2.055   0.215  22.781  0.00  0.00    +0.148 A 
ATOM      7  C   UNL     1       1.482  -0.338  22.562  0.00  0.00    +0.036 A 
ATOM      8  C   UNL     1       0.728  -0.306  22.896  0.00  0.00    +0.008 A 
ATOM      9  C   UNL     1       0.548   0.279  23.450  0.00  0.00    +0.058 A 
ATOM     10  C   UNL     1       1.120   0.830  23.669  0.00  0.00    +0.103 A 
ATOM     11  N   UNL     1       1.873   0.798  23.335  0.00  0.00    -0.228 NA
BRANCH   6   5
ATOM      5  N   UNL     1       2.808   0.182  22.447  0.00  0.00    -0.218 NA
BRANCH   5   4
ATOM      4  C   UNL     1       3.451   0.507  22.849  0.00  0.00    +0.146 C 
BRANCH   4   3
ATOM      3  C   UNL     1       4.219   0.285  22.644  0.00  0.00    +0.166 C 
BRANCH   3   2
ATOM      1  C   UNL     1       5.418   0.141  23.411  0.00  0.00    +0.174 C 
ATOM      2  O   UNL     1       4.864   0.623  23.034  0.00  0.00    -0.349 OA
ENDBRANCH   3   2
ENDBRANCH   4   3
ENDBRANCH   5   4
ENDBRANCH   6   5
ENDBRANCH  12   9
BRANCH  15  17
ATOM     17  C   UNL     1      -2.149   1.135  24.106  0.00  0.00    +0.138 C 
ATOM     18  C   UNL     1      -2.831   0.970  23.672  0.00  0.00    +0.027 C 
ATOM     19  C   UNL     1      -3.397   1.540  23.861  0.00  0.00    +0.019 C 
ATOM     20  C   UNL     1      -3.065   2.056  24.412  0.00  0.00    +0.073 C 
ATOM     21  N   UNL     1      -2.293   1.806  24.563  0.00  0.00    -0.263 NA
BRANCH  21  22
ATOM     22  C   UNL     1      -1.761   2.165  25.081  0.00  0.00    +0.099 C 
BRANCH  22  23
ATOM     23  C   UNL     1      -1.723   2.987  25.130  0.00  0.00    -0.006 A 
ATOM     24  C   UNL     1      -1.161   3.402  24.690  0.00  0.00    -0.003 A 
ATOM     25  C   UNL     1      -1.124   4.224  24.739  0.00  0.00    +0.004 A 
ATOM     26  C   UNL     1      -1.647   4.632  25.229  0.00  0.00    +0.071 A 
ATOM     27  C   UNL     1      -2.209   4.219  25.669  0.00  0.00    +0.004 A 
ATOM     28  C   UNL     1      -2.246   3.395  25.620  0.00  0.00    -0.003 A 
BRANCH  26  29
ATOM     29  C   UNL     1      -1.609   5.455  25.278  0.00  0.00    +0.419 C 
ATOM     30  F   UNL     1      -1.572   6.278  25.328  0.00  0.00    -0.166 F 
ATOM     31  F   UNL     1      -0.870   5.444  24.911  0.00  0.00    -0.166 F 
ATOM     32  F   UNL     1      -2.348   5.467  25.645  0.00  0.00    -0.166 F 
ENDBRANCH  26  29
ENDBRANCH  22  23
ENDBRANCH  21  22
ENDBRANCH  15  17
TORSDOF 9
ENDMDL
MODEL 8
REMARK VINA RESULT:      -8.2      2.884      5.809
REMARK  Name = 
REMARK  9 active torsions:
REMARK  status: ('A' for Active; 'I' for Inactive)
REMARK    1  A    between atoms: O_2  and  C_3
REMARK    2  A    between atoms: C_3  and  C_4
REMARK    3  A    between atoms: C_4  and  N_5
REMARK    4  A    between atoms: N_5  and  C_6
REMARK    5  A    between atoms: C_9  and  C_12
REMARK    6  A    between atoms: C_15  and  C_17
REMARK    7  A    between atoms: N_21  and  C_22
REMARK    8  A    between atoms: C_22  and  C_23
REMARK    9  A    between atoms: C_26  and  C_29
REMARK                            x       y       z     vdW  Elec       q    Type
REMARK                         _______ _______ _______ _____ _____    ______ ____
ROOT
ATOM     12  C   UNL     1      -1.106   2.194  24.849  0.00  0.00    +0.205 A 
ATOM     13  N   UNL     1      -0.334   2.317  25.114  0.00  0.00    -0.056 NA
ATOM     14  O   UNL     1       0.125   1.676  24.869  0.00  0.00    -0.336 OA
ATOM     15  C   UNL     1      -0.363   1.157  24.453  0.00  0.00    +0.251 A 
ATOM     16  N   UNL     1      -1.124   1.477  24.441  0.00  0.00    -0.190 NA
ENDROOT
BRANCH  12   9
ATOM      6  C   UNL     1      -3.028   3.708  25.216  0.00  0.00    +0.148 A 
ATOM      7  C   UNL     1      -2.467   3.601  25.812  0.00  0.00    +0.036 A 
ATOM      8  C   UNL     1      -1.826   3.096  25.690  0.00  0.00    +0.008 A 
ATOM      9  C   UNL     1      -1.747   2.699  24.971  0.00  0.00    +0.058 A 
ATOM     10  C   UNL     1      -2.307   2.805  24.376  0.00  0.00    +0.103 A 
ATOM     11  N   UNL     1      -2.947   3.310  24.498  0.00  0.00    -0.228 NA
BRANCH   6   5
ATOM      5  N   UNL     1      -3.669   4.213  25.339  0.00  0.00    -0.218 NA
BRANCH   5   4
ATOM      4  C   UNL     1      -4.367   3.921  25.666  0.00  0.00    +0.146 C 
BRANCH   4   3
ATOM      3  C   UNL     1      -5.096   4.193  25.393  0.00  0.00    +0.166 C 
BRANCH   3   2
ATOM      1  C   UNL     1      -6.138   3.265  25.705  0.00  0.00    +0.174 C 
ATOM      2  O   UNL     1      -5.788   4.005  25.803  0.00  0.00    -0.349 OA
ENDBRANCH   3   2
ENDBRANCH   4   3
ENDBRANCH   5   4
ENDBRANCH   6   5
ENDBRANCH  12   9
BRANCH  15  17
ATOM     17  C   UNL     1      -0.132   0.444  24.110  0.00  0.00    +0.138 C 
ATOM     18  C   UNL     1       0.383   0.358  23.471  0.00  0.00    +0.027 C 
ATOM     19  C   UNL     1       0.459  -0.448  23.311  0.00  0.00    +0.019 C 
ATOM     20  C   UNL     1      -0.010  -0.860  23.850  0.00  0.00    +0.073 C 
ATOM     21  N   UNL     1      -0.375  -0.309  24.344  0.00  0.00    -0.263 NA
BRANCH  21  22
ATOM     22  C   UNL     1      -0.892  -0.480  24.963  0.00  0.00    +0.099 C 
BRANCH  22  23
ATOM     23  C   UNL     1      -1.459  -1.072  24.876  0.00  0.00    -0.006 A 
ATOM     24  C   UNL     1      -2.238  -0.873  24.686  0.00  0.00    -0.003 A 
ATOM     25  C   UNL     1      -2.805  -1.465  24.598  0.00  0.00    +0.004 A 
ATOM     26  C   UNL     1      -2.595  -2.256  24.699  0.00  0.00    +0.071 A 
ATOM     27  C   UNL     1      -1.817  -2.456  24.888  0.00  0.00    +0.004 A 
ATOM     28  C   UNL     1      -1.249  -1.863  24.977  0.00  0.00    -0.003 A 
BRANCH  26  29
ATOM     29  C   UNL     1      -3.163  -2.849  24.611  0.00  0.00    +0.419 C 
ATOM     30  F   UNL     1      -3.730  -3.441  24.523  0.00  0.00    -0.166 F 
ATOM     31  F   UNL     1      -3.414  -2.724  25.388  0.00  0.00    -0.166 F 
ATOM     32  F   UNL     1      -2.912  -2.973  23.836  0.00  0.00    -0.166 F 
ENDBRANCH  26  29
ENDBRANCH  22  23
ENDBRANCH  21  22
ENDBRANCH  15  17
TORSDOF 9
ENDMDL
