MODEL 1
REMARK VINA RESULT:      -9.2      0.000      0.000
REMARK  Name = 
REMARK  6 active torsions:
REMARK  status: ('A' for Active; 'I' for Inactive)
REMARK    1  A    between atoms: C_6  and  C_7
REMARK    2  A    between atoms: C_7  and  N_8
REMARK    3  A    between atoms: N_8  and  C_9
REMARK    4  A    between atoms: C_12  and  C_13
REMARK    5  A    between atoms: C_13  and  N_14
REMARK    6  A    between atoms: C_15  and  C_17
REMARK                            x       y       z     vdW  Elec       q    Type
REMARK                         _______ _______ _______ _____ _____    ______ ____
ROOT
ATOM      9  C   UNL     1      -3.966   0.804  24.614  0.00  0.00    +0.136 C 
ATOM     10  C   UNL     1      -4.655   1.153  24.906  0.00  0.00    +0.162 C 
ATOM     11  O   UNL     1      -4.467   1.914  25.161  0.00  0.00    -0.350 OA
ATOM     12  C   UNL     1      -3.662   2.037  25.028  0.00  0.00    +0.169 C 
ATOM     24  C   UNL     1      -3.352   1.351  24.690  0.00  0.00    +0.199 C 
ATOM     25  O   UNL     1      -2.567   1.232  24.467  0.00  0.00    -0.219 OA
ENDROOT
BRANCH   9   8
ATOM      8  N   UNL     1      -3.902   0.043  24.303  0.00  0.00    -0.206 NA
BRANCH   8   7
ATOM      7  C   UNL     1      -4.031  -0.613  24.786  0.00  0.00    +0.152 C 
BRANCH   7   6
ATOM      1  C   UNL     1      -3.351  -2.064  25.594  0.00  0.00    +0.132 C 
ATOM      2  N   UNL     1      -3.683  -2.040  24.839  0.00  0.00    -0.311 N 
ATOM      3  C   UNL     1      -3.761  -2.679  24.323  0.00  0.00    +0.098 A 
ATOM      4  C   UNL     1      -4.121  -2.407  23.633  0.00  0.00    +0.119 A 
ATOM      5  N   UNL     1      -4.266  -1.600  23.722  0.00  0.00    -0.228 NA
ATOM      6  C   UNL     1      -3.996  -1.373  24.468  0.00  0.00    +0.138 A 
ENDBRANCH   7   6
ENDBRANCH   8   7
ENDBRANCH   9   8
BRANCH  12  13
ATOM     13  C   UNL     1      -3.241   2.724  25.202  0.00  0.00    +0.148 C 
BRANCH  13  14
ATOM     14  N   UNL     1      -3.523   3.247  25.775  0.00  0.00    -0.199 NA
ATOM     15  C   UNL     1      -3.074   3.905  25.989  0.00  0.00    +0.265 C 
ATOM     16  O   UNL     1      -3.357   4.427  26.563  0.00  0.00    -0.268 OA
BRANCH  15  17
ATOM     17  C   UNL     1      -2.345   4.042  25.631  0.00  0.00    +0.055 A 
ATOM     18  C   UNL     1      -1.664   3.686  25.933  0.00  0.00    +0.007 A 
ATOM     19  C   UNL     1      -0.934   3.822  25.574  0.00  0.00    +0.030 A 
ATOM     20  C   UNL     1      -0.883   4.315  24.915  0.00  0.00    +0.140 A 
ATOM     21  F   UNL     1      -0.153   4.452  24.556  0.00  0.00    -0.204 F 
ATOM     22  C   UNL     1      -1.564   4.671  24.613  0.00  0.00    +0.030 A 
ATOM     23  C   UNL     1      -2.294   4.534  24.971  0.00  0.00    +0.007 A 
ENDBRANCH  15  17
ENDBRANCH  13  14
ENDBRANCH  12  13
TORSDOF 6
ENDMDL
MODEL 2
REMARK VINA RESULT:      -9.2      2.485      5.775
REMARK  Name = 
REMARK  6 active torsions:
REMARK  status: ('A' for Active; 'I' for Inactive)
REMARK    1  A    between atoms: C_6  and  C_7
REMARK    2  A    between atoms: C_7  and  N_8
REMARK    3  A    between atoms: N_8  and  C_9
REMARK    4  A    between atoms: C_12  and  C_13
REMARK    5  A    between atoms: C_13  and  N_14
REMARK    6  A    between atoms: C_15  and  C_17
REMARK                            x       y       z     vdW  Elec       q    Type
REMARK                         _______ _______ _______ _____ _____    ______ ____
ROOT
ATOM      9  C   UNL     1      -1.205   1.710  25.157  0.00  0.00    +0.136 C 
ATOM     10  C   UNL     1      -0.736   1.387  25.755  0.00  0.00    +0.162 C 
ATOM     11  O   UNL     1      -0.860   0.572  25.764  0.00  0.00    -0.350 OA
ATOM     12  C   UNL     1      -1.405   0.390  25.172  0.00  0.00    +0.169 C 
ATOM     24  C   UNL     1      -1.619   1.093  24.797  0.00  0.00    +0.199 C 
ATOM     25  O   UNL     1      -2.152   1.167  24.172  0.00  0.00    -0.219 OA
ENDROOT
BRANCH   9   8
ATOM      8  N   UNL     1      -1.252   2.508  24.955  0.00  0.00    -0.206 NA
BRANCH   8   7
ATOM      7  C   UNL     1      -1.466   3.066  25.524  0.00  0.00    +0.152 C 
BRANCH   7   6
ATOM      1  C   UNL     1      -2.698   4.297  25.957  0.00  0.00    +0.132 C 
ATOM      2  N   UNL     1      -1.996   4.437  25.546  0.00  0.00    -0.311 N 
ATOM      3  C   UNL     1      -1.737   5.166  25.262  0.00  0.00    +0.098 A 
ATOM      4  C   UNL     1      -1.012   5.052  24.889  0.00  0.00    +0.119 A 
ATOM      5  N   UNL     1      -0.821   4.250  24.941  0.00  0.00    -0.228 NA
ATOM      6  C   UNL     1      -1.430   3.870  25.347  0.00  0.00    +0.138 A 
ENDBRANCH   7   6
ENDBRANCH   8   7
ENDBRANCH   9   8
BRANCH  12  13
ATOM     13  C   UNL     1      -1.687  -0.363  24.988  0.00  0.00    +0.148 C 
BRANCH  13  14
ATOM     14  N   UNL     1      -1.220  -1.027  25.137  0.00  0.00    -0.199 NA
ATOM     15  C   UNL     1      -1.540  -1.783  25.057  0.00  0.00    +0.265 C 
ATOM     16  O   UNL     1      -1.073  -2.446  25.207  0.00  0.00    -0.268 OA
BRANCH  15  17
ATOM     17  C   UNL     1      -2.327  -1.876  24.828  0.00  0.00    +0.055 A 
ATOM     18  C   UNL     1      -2.512  -2.011  24.035  0.00  0.00    +0.007 A 
ATOM     19  C   UNL     1      -3.298  -2.104  23.805  0.00  0.00    +0.030 A 
ATOM     20  C   UNL     1      -3.900  -2.063  24.367  0.00  0.00    +0.140 A 
ATOM     21  F   UNL     1      -4.687  -2.156  24.137  0.00  0.00    -0.204 F 
ATOM     22  C   UNL     1      -3.716  -1.928  25.160  0.00  0.00    +0.030 A 
ATOM     23  C   UNL     1      -2.929  -1.834  25.390  0.00  0.00    +0.007 A 
ENDBRANCH  15  17
ENDBRANCH  13  14
ENDBRANCH  12  13
TORSDOF 6
ENDMDL
MODEL 3
REMARK VINA RESULT:      -9.1      1.678      2.068
REMARK  Name = 
REMARK  6 active torsions:
REMARK  status: ('A' for Active; 'I' for Inactive)
REMARK    1  A    between atoms: C_6  and  C_7
REMARK    2  A    between atoms: C_7  and  N_8
REMARK    3  A    between atoms: N_8  and  C_9
REMARK    4  A    between atoms: C_12  and  C_13
REMARK    5  A    between atoms: C_13  and  N_14
REMARK    6  A    between atoms: C_15  and  C_17
REMARK                            x       y       z     vdW  Elec       q    Type
REMARK                         _______ _______ _______ _____ _____    ______ ____
ROOT
ATOM      9  C   UNL     1      -2.141  -0.108  24.891  0.00  0.00    +0.136 C 
ATOM     10  C   UNL     1      -1.609  -0.372  25.465  0.00  0.00    +0.162 C 
ATOM     11  O   UNL     1      -1.165   0.276  25.717  0.00  0.00    -0.350 OA
ATOM     12  C   UNL     1      -1.421   0.940  25.299  0.00  0.00    +0.169 C 
ATOM     24  C   UNL     1      -2.024   0.702  24.789  0.00  0.00    +0.199 C 
ATOM     25  O   UNL     1      -2.439   1.189  24.268  0.00  0.00    -0.219 OA
ENDROOT
BRANCH   9   8
ATOM      8  N   UNL     1      -2.691  -0.573  24.491  0.00  0.00    -0.206 NA
BRANCH   8   7
ATOM      7  C   UNL     1      -2.861  -1.335  24.758  0.00  0.00    +0.152 C 
BRANCH   7   6
ATOM      1  C   UNL     1      -3.155  -3.090  24.994  0.00  0.00    +0.132 C 
ATOM      2  N   UNL     1      -3.581  -2.590  24.495  0.00  0.00    -0.311 N 
ATOM      3  C   UNL     1      -4.216  -2.808  24.016  0.00  0.00    +0.098 A 
ATOM      4  C   UNL     1      -4.473  -2.137  23.613  0.00  0.00    +0.119 A 
ATOM      5  N   UNL     1      -3.997  -1.503  23.841  0.00  0.00    -0.228 NA
ATOM      6  C   UNL     1      -3.445  -1.783  24.387  0.00  0.00    +0.138 A 
ENDBRANCH   7   6
ENDBRANCH   8   7
ENDBRANCH   9   8
BRANCH  12  13
ATOM     13  C   UNL     1      -1.126   1.706  25.378  0.00  0.00    +0.148 C 
BRANCH  13  14
ATOM     14  N   UNL     1      -0.431   1.839  25.803  0.00  0.00    -0.199 NA
ATOM     15  C   UNL     1      -0.182   2.610  25.956  0.00  0.00    +0.265 C 
ATOM     16  O   UNL     1       0.513   2.742  26.380  0.00  0.00    -0.268 OA
BRANCH  15  17
ATOM     17  C   UNL     1      -0.628   3.249  25.686  0.00  0.00    +0.055 A 
ATOM     18  C   UNL     1      -0.406   3.645  24.996  0.00  0.00    +0.007 A 
ATOM     19  C   UNL     1      -0.852   4.283  24.726  0.00  0.00    +0.030 A 
ATOM     20  C   UNL     1      -1.520   4.527  25.144  0.00  0.00    +0.140 A 
ATOM     21  F   UNL     1      -1.966   5.167  24.873  0.00  0.00    -0.204 F 
ATOM     22  C   UNL     1      -1.742   4.132  25.833  0.00  0.00    +0.030 A 
ATOM     23  C   UNL     1      -1.296   3.493  26.104  0.00  0.00    +0.007 A 
ENDBRANCH  15  17
ENDBRANCH  13  14
ENDBRANCH  12  13
TORSDOF 6
ENDMDL
MODEL 4
REMARK VINA RESULT:      -8.7      3.900      5.645
REMARK  Name = 
REMARK  6 active torsions:
REMARK  status: ('A' for Active; 'I' for Inactive)
REMARK    1  A    between atoms: C_6  and  C_7
REMARK    2  A    between atoms: C_7  and  N_8
REMARK    3  A    between atoms: N_8  and  C_9
REMARK    4  A    between atoms: C_12  and  C_13
REMARK    5  A    between atoms: C_13  and  N_14
REMARK    6  A    between atoms: C_15  and  C_17
REMARK                            x       y       z     vdW  Elec       q    Type
REMARK                         _______ _______ _______ _____ _____    ______ ____
ROOT
ATOM      9  C   UNL     1      -0.269   0.437  23.947  0.00  0.00    +0.136 C 
ATOM     10  C   UNL     1      -0.745   1.089  23.777  0.00  0.00    +0.162 C 
ATOM     11  O   UNL     1      -1.518   0.905  23.996  0.00  0.00    -0.350 OA
ATOM     12  C   UNL     1      -1.521   0.139  24.303  0.00  0.00    +0.169 C 
ATOM     24  C   UNL     1      -0.749  -0.151  24.272  0.00  0.00    +0.199 C 
ATOM     25  O   UNL     1      -0.501  -0.896  24.522  0.00  0.00    -0.219 OA
ENDROOT
BRANCH   9   8
ATOM      8  N   UNL     1       0.543   0.381  23.816  0.00  0.00    -0.206 NA
BRANCH   8   7
ATOM      7  C   UNL     1       0.838   0.387  23.045  0.00  0.00    +0.152 C 
BRANCH   7   6
ATOM      1  C   UNL     1       1.718  -0.432  21.713  0.00  0.00    +0.132 C 
ATOM      2  N   UNL     1       2.057   0.035  22.302  0.00  0.00    -0.311 N 
ATOM      3  C   UNL     1       2.859   0.207  22.383  0.00  0.00    +0.098 A 
ATOM      4  C   UNL     1       2.950   0.690  23.045  0.00  0.00    +0.119 A 
ATOM      5  N   UNL     1       2.204   0.817  23.374  0.00  0.00    -0.228 NA
ATOM      6  C   UNL     1       1.652   0.412  22.915  0.00  0.00    +0.138 A 
ENDBRANCH   7   6
ENDBRANCH   8   7
ENDBRANCH   9   8
BRANCH  12  13
ATOM     13  C   UNL     1      -2.180  -0.266  24.589  0.00  0.00    +0.148 C 
BRANCH  13  14
ATOM     14  N   UNL     1      -2.803   0.151  24.933  0.00  0.00    -0.199 NA
ATOM     15  C   UNL     1      -3.522  -0.227  25.077  0.00  0.00    +0.265 C 
ATOM     16  O   UNL     1      -4.146   0.191  25.421  0.00  0.00    -0.268 OA
BRANCH  15  17
ATOM     17  C   UNL     1      -3.619  -1.021  24.878  0.00  0.00    +0.055 A 
ATOM     18  C   UNL     1      -3.939  -1.226  24.145  0.00  0.00    +0.007 A 
ATOM     19  C   UNL     1      -4.036  -2.021  23.946  0.00  0.00    +0.030 A 
ATOM     20  C   UNL     1      -3.812  -2.610  24.477  0.00  0.00    +0.140 A 
ATOM     21  F   UNL     1      -3.909  -3.405  24.278  0.00  0.00    -0.204 F 
ATOM     22  C   UNL     1      -3.492  -2.405  25.210  0.00  0.00    +0.030 A 
ATOM     23  C   UNL     1      -3.396  -1.610  25.409  0.00  0.00    +0.007 A 
ENDBRANCH  15  17
ENDBRANCH  13  14
ENDBRANCH  12  13
TORSDOF 6
ENDMDL
MODEL 5
REMARK VINA RESULT:      -8.6      1.985      5.453
REMARK  Name = 
REMARK  6 active torsions:
REMARK  status: ('A' for Active; 'I' for Inactive)
REMARK    1  A    between atoms: C_6  and  C_7
REMARK    2  A    between atoms: C_7  and  N_8
REMARK    3  A    between atoms: N_8  and  C_9
REMARK    4  A    between atoms: C_12  and  C_13
REMARK    5  A    between atoms: C_13  and  N_14
REMARK    6  A    between atoms: C_15  and  C_17
REMARK                            x       y       z     vdW  Elec       q    Type
REMARK                         _______ _______ _______ _____ _____    ______ ____
ROOT
ATOM      9  C   UNL     1      -3.200   1.865  24.367  0.00  0.00    +0.136 C 
ATOM     10  C   UNL     1      -4.025   1.827  24.342  0.00  0.00    +0.162 C 
ATOM     11  O   UNL     1      -4.242   1.032  24.317  0.00  0.00    -0.350 OA
ATOM     12  C   UNL     1      -3.552   0.578  24.328  0.00  0.00    +0.169 C 
ATOM     24  C   UNL     1      -2.909   1.093  24.359  0.00  0.00    +0.199 C 
ATOM     25  O   UNL     1      -2.113   0.876  24.379  0.00  0.00    -0.219 OA
ENDROOT
BRANCH   9   8
ATOM      8  N   UNL     1      -2.748   2.554  24.396  0.00  0.00    -0.206 NA
BRANCH   8   7
ATOM      7  C   UNL     1      -2.947   3.157  24.923  0.00  0.00    +0.152 C 
BRANCH   7   6
ATOM      1  C   UNL     1      -3.031   4.337  26.273  0.00  0.00    +0.132 C 
ATOM      2  N   UNL     1      -2.460   4.321  25.678  0.00  0.00    -0.311 N 
ATOM      3  C   UNL     1      -1.828   4.845  25.597  0.00  0.00    +0.098 A 
ATOM      4  C   UNL     1      -1.400   4.627  24.928  0.00  0.00    +0.119 A 
ATOM      5  N   UNL     1      -1.767   3.968  24.594  0.00  0.00    -0.228 NA
ATOM      6  C   UNL     1      -2.422   3.779  25.057  0.00  0.00    +0.138 A 
ENDBRANCH   7   6
ENDBRANCH   8   7
ENDBRANCH   9   8
BRANCH  12  13
ATOM     13  C   UNL     1      -3.514  -0.246  24.312  0.00  0.00    +0.148 C 
BRANCH  13  14
ATOM     14  N   UNL     1      -4.160  -0.684  24.046  0.00  0.00    -0.199 NA
ATOM     15  C   UNL     1      -4.142  -1.508  24.078  0.00  0.00    +0.265 C 
ATOM     16  O   UNL     1      -4.789  -1.945  23.813  0.00  0.00    -0.268 OA
BRANCH  15  17
ATOM     17  C   UNL     1      -3.477  -1.894  24.376  0.00  0.00    +0.055 A 
ATOM     18  C   UNL     1      -2.868  -2.120  23.866  0.00  0.00    +0.007 A 
ATOM     19  C   UNL     1      -2.203  -2.506  24.163  0.00  0.00    +0.030 A 
ATOM     20  C   UNL     1      -2.146  -2.668  24.970  0.00  0.00    +0.140 A 
ATOM     21  F   UNL     1      -1.480  -3.054  25.268  0.00  0.00    -0.204 F 
ATOM     22  C   UNL     1      -2.754  -2.442  25.480  0.00  0.00    +0.030 A 
ATOM     23  C   UNL     1      -3.419  -2.055  25.182  0.00  0.00    +0.007 A 
ENDBRANCH  15  17
ENDBRANCH  13  14
ENDBRANCH  12  13
TORSDOF 6
ENDMDL
