MODEL 1
REMARK VINA RESULT:     -10.6      0.000      0.000
REMARK  Name = 
REMARK  6 active torsions:
REMARK  status: ('A' for Active; 'I' for Inactive)
REMARK    1  A    between atoms: C_2  and  C_4
REMARK    2  A    between atoms: C_4  and  O_5
REMARK    3  A    between atoms: O_5  and  C_6
REMARK    4  A    between atoms: C_6  and  C_7
REMARK    5  A    between atoms: N_9  and  C_10
REMARK    6  A    between atoms: C_21  and  C_26
REMARK                            x       y       z     vdW  Elec       q    Type
REMARK                         _______ _______ _______ _____ _____    ______ ____
ROOT
ATOM     10  C   UNL     1      -0.405   0.349  23.801  0.00  0.00    +0.124 C 
ATOM     11  C   UNL     1      -0.454  -0.252  24.365  0.00  0.00    +0.045 C 
ATOM     12  C   UNL     1      -1.179  -0.179  24.751  0.00  0.00    +0.096 C 
ATOM     13  N   UNL     1      -1.578   0.466  24.427  0.00  0.00    -0.268 N 
ATOM     14  C   UNL     1      -1.099   0.793  23.840  0.00  0.00    +0.174 C 
ATOM     15  C   UNL     1      -1.250   1.444  23.357  0.00  0.00    +0.265 C 
ATOM     16  O   UNL     1      -0.655   1.635  22.818  0.00  0.00    -0.271 OA
ATOM     17  N   UNL     1      -1.916   1.930  23.341  0.00  0.00    -0.178 NA
ATOM     18  C   UNL     1      -2.598   1.884  23.805  0.00  0.00    +0.078 A 
ATOM     19  C   UNL     1      -3.135   2.479  23.611  0.00  0.00    +0.017 A 
ATOM     20  C   UNL     1      -3.855   2.533  24.011  0.00  0.00    +0.001 A 
ATOM     21  C   UNL     1      -4.036   1.990  24.606  0.00  0.00    +0.002 A 
ATOM     22  C   UNL     1      -3.499   1.395  24.799  0.00  0.00    +0.006 A 
ATOM     23  C   UNL     1      -2.779   1.341  24.399  0.00  0.00    +0.069 A 
ATOM     24  C   UNL     1      -2.326   0.710  24.676  0.00  0.00    +0.251 C 
ATOM     25  O   UNL     1      -2.665   0.265  25.282  0.00  0.00    -0.270 OA
ENDROOT
BRANCH  21  26
ATOM     26  C   UNL     1      -4.755   2.042  25.006  0.00  0.00    +0.028 A 
ATOM     27  C   UNL     1      -4.850   2.595  25.611  0.00  0.00    +0.142 A 
ATOM     28  F   UNL     1      -4.227   3.095  25.816  0.00  0.00    -0.204 F 
ATOM     29  C   UNL     1      -5.570   2.648  26.012  0.00  0.00    +0.059 A 
ATOM     30  C   UNL     1      -6.193   2.148  25.808  0.00  0.00    +0.142 A 
ATOM     31  F   UNL     1      -6.913   2.200  26.209  0.00  0.00    -0.204 F 
ATOM     32  C   UNL     1      -6.098   1.595  25.203  0.00  0.00    +0.030 A 
ATOM     33  C   UNL     1      -5.379   1.542  24.802  0.00  0.00    +0.005 A 
ENDBRANCH  21  26
BRANCH  10   9
ATOM      7  C   UNL     1       0.828  -0.079  23.219  0.00  0.00    +0.272 C 
ATOM      8  O   UNL     1       0.794  -0.776  23.660  0.00  0.00    -0.271 OA
ATOM      9  N   UNL     1       0.228   0.483  23.290  0.00  0.00    -0.203 NA
BRANCH   7   6
ATOM      6  C   UNL     1       1.460   0.054  22.707  0.00  0.00    +0.229 C 
BRANCH   6   5
ATOM      5  O   UNL     1       2.229   0.104  23.004  0.00  0.00    -0.333 OA
BRANCH   5   4
ATOM      4  C   UNL     1       2.852   0.304  22.504  0.00  0.00    +0.257 C 
BRANCH   4   2
ATOM      1  O   UNL     1       3.789   1.290  22.943  0.00  0.00    -0.243 OA
ATOM      2  C   UNL     1       3.589   0.500  22.820  0.00  0.00    +0.394 C 
ATOM      3  O   UNL     1       4.126  -0.096  23.012  0.00  0.00    -0.243 OA
ENDBRANCH   4   2
ENDBRANCH   5   4
ENDBRANCH   6   5
ENDBRANCH   7   6
ENDBRANCH  10   9
TORSDOF 6
ENDMDL
MODEL 2
REMARK VINA RESULT:      -7.3      3.101      4.489
REMARK  Name = 
REMARK  6 active torsions:
REMARK  status: ('A' for Active; 'I' for Inactive)
REMARK    1  A    between atoms: C_2  and  C_4
REMARK    2  A    between atoms: C_4  and  O_5
REMARK    3  A    between atoms: O_5  and  C_6
REMARK    4  A    between atoms: C_6  and  C_7
REMARK    5  A    between atoms: N_9  and  C_10
REMARK    6  A    between atoms: C_21  and  C_26
REMARK                            x       y       z     vdW  Elec       q    Type
REMARK                         _______ _______ _______ _____ _____    ______ ____
ROOT
ATOM     10  C   UNL     1      -0.755   1.978  24.857  0.00  0.00    +0.124 C 
ATOM     11  C   UNL     1      -0.117   1.573  24.523  0.00  0.00    +0.045 C 
ATOM     12  C   UNL     1      -0.365   0.806  24.350  0.00  0.00    +0.096 C 
ATOM     13  N   UNL     1      -1.155   0.735  24.576  0.00  0.00    -0.268 N 
ATOM     14  C   UNL     1      -1.396   1.459  24.889  0.00  0.00    +0.174 C 
ATOM     15  C   UNL     1      -2.135   1.669  25.192  0.00  0.00    +0.265 C 
ATOM     16  O   UNL     1      -2.202   2.444  25.467  0.00  0.00    -0.271 OA
ATOM     17  N   UNL     1      -2.815   1.207  25.255  0.00  0.00    -0.178 NA
ATOM     18  C   UNL     1      -2.925   0.420  25.031  0.00  0.00    +0.078 A 
ATOM     19  C   UNL     1      -3.693   0.166  25.191  0.00  0.00    +0.017 A 
ATOM     20  C   UNL     1      -3.919  -0.607  25.009  0.00  0.00    +0.001 A 
ATOM     21  C   UNL     1      -3.375  -1.125  24.667  0.00  0.00    +0.002 A 
ATOM     22  C   UNL     1      -2.607  -0.871  24.508  0.00  0.00    +0.006 A 
ATOM     23  C   UNL     1      -2.381  -0.098  24.690  0.00  0.00    +0.069 A 
ATOM     24  C   UNL     1      -1.593   0.042  24.487  0.00  0.00    +0.251 C 
ATOM     25  O   UNL     1      -1.192  -0.595  24.151  0.00  0.00    -0.270 OA
ENDROOT
BRANCH  21  26
ATOM     26  C   UNL     1      -3.599  -1.897  24.484  0.00  0.00    +0.028 A 
ATOM     27  C   UNL     1      -4.068  -2.044  23.821  0.00  0.00    +0.142 A 
ATOM     28  F   UNL     1      -4.313  -1.419  23.341  0.00  0.00    -0.204 F 
ATOM     29  C   UNL     1      -4.293  -2.817  23.639  0.00  0.00    +0.059 A 
ATOM     30  C   UNL     1      -4.049  -3.442  24.118  0.00  0.00    +0.142 A 
ATOM     31  F   UNL     1      -4.274  -4.215  23.936  0.00  0.00    -0.204 F 
ATOM     32  C   UNL     1      -3.580  -3.295  24.781  0.00  0.00    +0.030 A 
ATOM     33  C   UNL     1      -3.356  -2.523  24.964  0.00  0.00    +0.005 A 
ENDBRANCH  21  26
BRANCH  10   9
ATOM      7  C   UNL     1      -0.236   3.306  24.768  0.00  0.00    +0.272 C 
ATOM      8  O   UNL     1       0.275   3.066  24.167  0.00  0.00    -0.271 OA
ATOM      9  N   UNL     1      -0.751   2.761  25.113  0.00  0.00    -0.203 NA
BRANCH   7   6
ATOM      6  C   UNL     1      -0.232   4.090  25.024  0.00  0.00    +0.229 C 
BRANCH   6   5
ATOM      5  O   UNL     1      -0.744   4.639  24.682  0.00  0.00    -0.333 OA
BRANCH   5   4
ATOM      4  C   UNL     1      -0.859   5.374  25.037  0.00  0.00    +0.257 C 
BRANCH   4   2
ATOM      1  O   UNL     1      -2.160   5.665  25.552  0.00  0.00    -0.243 OA
ATOM      2  C   UNL     1      -1.586   5.758  24.967  0.00  0.00    +0.394 C 
ATOM      3  O   UNL     1      -1.739   6.234  24.311  0.00  0.00    -0.243 OA
ENDBRANCH   4   2
ENDBRANCH   5   4
ENDBRANCH   6   5
ENDBRANCH   7   6
ENDBRANCH  10   9
TORSDOF 6
ENDMDL
MODEL 3
REMARK VINA RESULT:      -7.2      3.224      4.910
REMARK  Name = 
REMARK  6 active torsions:
REMARK  status: ('A' for Active; 'I' for Inactive)
REMARK    1  A    between atoms: C_2  and  C_4
REMARK    2  A    between atoms: C_4  and  O_5
REMARK    3  A    between atoms: O_5  and  C_6
REMARK    4  A    between atoms: C_6  and  C_7
REMARK    5  A    between atoms: N_9  and  C_10
REMARK    6  A    between atoms: C_21  and  C_26
REMARK                            x       y       z     vdW  Elec       q    Type
REMARK                         _______ _______ _______ _____ _____    ______ ____
ROOT
ATOM     10  C   UNL     1      -3.826   2.921  25.004  0.00  0.00    +0.124 C 
ATOM     11  C   UNL     1      -4.546   2.849  25.402  0.00  0.00    +0.045 C 
ATOM     12  C   UNL     1      -4.742   2.049  25.429  0.00  0.00    +0.096 C 
ATOM     13  N   UNL     1      -4.145   1.626  25.048  0.00  0.00    -0.268 N 
ATOM     14  C   UNL     1      -3.579   2.165  24.786  0.00  0.00    +0.174 C 
ATOM     15  C   UNL     1      -2.878   2.017  24.376  0.00  0.00    +0.265 C 
ATOM     16  O   UNL     1      -2.425   2.681  24.190  0.00  0.00    -0.271 OA
ATOM     17  N   UNL     1      -2.571   1.293  24.127  0.00  0.00    -0.178 NA
ATOM     18  C   UNL     1      -2.888   0.538  24.227  0.00  0.00    +0.078 A 
ATOM     19  C   UNL     1      -2.403  -0.040  23.894  0.00  0.00    +0.017 A 
ATOM     20  C   UNL     1      -2.620  -0.835  23.933  0.00  0.00    +0.001 A 
ATOM     21  C   UNL     1      -3.323  -1.052  24.306  0.00  0.00    +0.002 A 
ATOM     22  C   UNL     1      -3.809  -0.474  24.640  0.00  0.00    +0.006 A 
ATOM     23  C   UNL     1      -3.591   0.321  24.601  0.00  0.00    +0.069 A 
ATOM     24  C   UNL     1      -4.151   0.805  24.966  0.00  0.00    +0.251 C 
ATOM     25  O   UNL     1      -4.801   0.417  25.292  0.00  0.00    -0.270 OA
ENDROOT
BRANCH  21  26
ATOM     26  C   UNL     1      -3.541  -1.846  24.346  0.00  0.00    +0.028 A 
ATOM     27  C   UNL     1      -4.049  -2.163  23.778  0.00  0.00    +0.142 A 
ATOM     28  F   UNL     1      -4.338  -1.686  23.170  0.00  0.00    -0.204 F 
ATOM     29  C   UNL     1      -4.267  -2.958  23.817  0.00  0.00    +0.059 A 
ATOM     30  C   UNL     1      -3.978  -3.435  24.425  0.00  0.00    +0.142 A 
ATOM     31  F   UNL     1      -4.196  -4.231  24.465  0.00  0.00    -0.204 F 
ATOM     32  C   UNL     1      -3.471  -3.118  24.993  0.00  0.00    +0.030 A 
ATOM     33  C   UNL     1      -3.253  -2.324  24.954  0.00  0.00    +0.005 A 
ENDBRANCH  21  26
BRANCH  10   9
ATOM      7  C   UNL     1      -3.329   4.184  25.451  0.00  0.00    +0.272 C 
ATOM      8  O   UNL     1      -3.635   4.038  26.203  0.00  0.00    -0.271 OA
ATOM      9  N   UNL     1      -3.425   3.625  24.852  0.00  0.00    -0.203 NA
BRANCH   7   6
ATOM      6  C   UNL     1      -2.929   4.889  25.299  0.00  0.00    +0.229 C 
BRANCH   6   5
ATOM      5  O   UNL     1      -2.125   4.954  25.476  0.00  0.00    -0.333 OA
BRANCH   5   4
ATOM      4  C   UNL     1      -1.658   5.505  25.080  0.00  0.00    +0.257 C 
BRANCH   4   2
ATOM      1  O   UNL     1      -0.381   5.926  24.597  0.00  0.00    -0.243 OA
ATOM      2  C   UNL     1      -0.851   5.366  24.978  0.00  0.00    +0.394 C 
ATOM      3  O   UNL     1      -0.515   4.667  25.259  0.00  0.00    -0.243 OA
ENDBRANCH   4   2
ENDBRANCH   5   4
ENDBRANCH   6   5
ENDBRANCH   7   6
ENDBRANCH  10   9
TORSDOF 6
ENDMDL
MODEL 4
REMARK VINA RESULT:      -7.0     14.408     14.929
REMARK  Name = 
REMARK  6 active torsions:
REMARK  status: ('A' for Active; 'I' for Inactive)
REMARK    1  A    between atoms: C_2  and  C_4
REMARK    2  A    between atoms: C_4  and  O_5
REMARK    3  A    between atoms: O_5  and  C_6
REMARK    4  A    between atoms: C_6  and  C_7
REMARK    5  A    between atoms: N_9  and  C_10
REMARK    6  A    between atoms: C_21  and  C_26
REMARK                            x       y       z     vdW  Elec       q    Type
REMARK                         _______ _______ _______ _____ _____    ______ ____
ROOT
ATOM     10  C   UNL     1      -3.519 -10.630  14.715  0.00  0.00    +0.124 C 
ATOM     11  C   UNL     1      -3.133 -10.633  15.445  0.00  0.00    +0.045 C 
ATOM     12  C   UNL     1      -3.702 -10.529  16.034  0.00  0.00    +0.096 C 
ATOM     13  N   UNL     1      -4.439 -10.461  15.669  0.00  0.00    -0.268 N 
ATOM     14  C   UNL     1      -4.326 -10.523  14.854  0.00  0.00    +0.174 C 
ATOM     15  C   UNL     1      -4.889 -10.491  14.252  0.00  0.00    +0.265 C 
ATOM     16  O   UNL     1      -4.598 -10.572  13.484  0.00  0.00    -0.271 OA
ATOM     17  N   UNL     1      -5.705 -10.387  14.317  0.00  0.00    -0.178 NA
ATOM     18  C   UNL     1      -6.159 -10.291  14.999  0.00  0.00    +0.078 A 
ATOM     19  C   UNL     1      -6.959 -10.204  14.820  0.00  0.00    +0.017 A 
ATOM     20  C   UNL     1      -7.510 -10.101  15.425  0.00  0.00    +0.001 A 
ATOM     21  C   UNL     1      -7.260 -10.084  16.211  0.00  0.00    +0.002 A 
ATOM     22  C   UNL     1      -6.460 -10.171  16.391  0.00  0.00    +0.006 A 
ATOM     23  C   UNL     1      -5.909 -10.275  15.785  0.00  0.00    +0.069 A 
ATOM     24  C   UNL     1      -5.143 -10.350  16.083  0.00  0.00    +0.251 C 
ATOM     25  O   UNL     1      -5.073 -10.309  16.904  0.00  0.00    -0.270 OA
ENDROOT
BRANCH  21  26
ATOM     26  C   UNL     1      -7.809  -9.981  16.817  0.00  0.00    +0.028 A 
ATOM     27  C   UNL     1      -8.048  -9.221  17.031  0.00  0.00    +0.142 A 
ATOM     28  F   UNL     1      -7.738  -8.564  16.639  0.00  0.00    -0.204 F 
ATOM     29  C   UNL     1      -8.599  -9.117  17.638  0.00  0.00    +0.059 A 
ATOM     30  C   UNL     1      -8.909  -9.773  18.030  0.00  0.00    +0.142 A 
ATOM     31  F   UNL     1      -9.459  -9.670  18.636  0.00  0.00    -0.204 F 
ATOM     32  C   UNL     1      -8.670 -10.533  17.815  0.00  0.00    +0.030 A 
ATOM     33  C   UNL     1      -8.120 -10.637  17.210  0.00  0.00    +0.005 A 
ENDBRANCH  21  26
BRANCH  10   9
ATOM      7  C   UNL     1      -2.340 -10.671  13.909  0.00  0.00    +0.272 C 
ATOM      8  O   UNL     1      -1.878 -10.537  14.579  0.00  0.00    -0.271 OA
ATOM      9  N   UNL     1      -3.161 -10.718  13.978  0.00  0.00    -0.203 NA
BRANCH   7   6
ATOM      6  C   UNL     1      -1.982 -10.759  13.172  0.00  0.00    +0.229 C 
BRANCH   6   5
ATOM      5  O   UNL     1      -1.737 -10.094  12.749  0.00  0.00    -0.333 OA
BRANCH   5   4
ATOM      4  C   UNL     1      -1.410 -10.179  11.998  0.00  0.00    +0.257 C 
BRANCH   4   2
ATOM      1  O   UNL     1      -1.914  -9.365  10.937  0.00  0.00    -0.243 OA
ATOM      2  C   UNL     1      -1.335  -9.524  11.502  0.00  0.00    +0.394 C 
ATOM      3  O   UNL     1      -0.681  -9.026  11.573  0.00  0.00    -0.243 OA
ENDBRANCH   4   2
ENDBRANCH   5   4
ENDBRANCH   6   5
ENDBRANCH   7   6
ENDBRANCH  10   9
TORSDOF 6
ENDMDL
MODEL 5
REMARK VINA RESULT:      -6.8      2.638      6.680
REMARK  Name = 
REMARK  6 active torsions:
REMARK  status: ('A' for Active; 'I' for Inactive)
REMARK    1  A    between atoms: C_2  and  C_4
REMARK    2  A    between atoms: C_4  and  O_5
REMARK    3  A    between atoms: O_5  and  C_6
REMARK    4  A    between atoms: C_6  and  C_7
REMARK    5  A    between atoms: N_9  and  C_10
REMARK    6  A    between atoms: C_21  and  C_26
REMARK                            x       y       z     vdW  Elec       q    Type
REMARK                         _______ _______ _______ _____ _____    ______ ____
ROOT
ATOM     10  C   UNL     1      -2.978   1.574  24.264  0.00  0.00    +0.124 C 
ATOM     11  C   UNL     1      -2.877   2.321  23.928  0.00  0.00    +0.045 C 
ATOM     12  C   UNL     1      -2.113   2.361  23.620  0.00  0.00    +0.096 C 
ATOM     13  N   UNL     1      -1.741   1.640  23.766  0.00  0.00    -0.268 N 
ATOM     14  C   UNL     1      -2.275   1.153  24.164  0.00  0.00    +0.174 C 
ATOM     15  C   UNL     1      -2.167   0.380  24.431  0.00  0.00    +0.265 C 
ATOM     16  O   UNL     1      -2.814   0.040  24.814  0.00  0.00    -0.271 OA
ATOM     17  N   UNL     1      -1.498  -0.098  24.366  0.00  0.00    -0.178 NA
ATOM     18  C   UNL     1      -0.771   0.080  24.018  0.00  0.00    +0.078 A 
ATOM     19  C   UNL     1      -0.248  -0.555  24.071  0.00  0.00    +0.017 A 
ATOM     20  C   UNL     1       0.512  -0.493  23.756  0.00  0.00    +0.001 A 
ATOM     21  C   UNL     1       0.749   0.206  23.387  0.00  0.00    +0.002 A 
ATOM     22  C   UNL     1       0.225   0.841  23.333  0.00  0.00    +0.006 A 
ATOM     23  C   UNL     1      -0.535   0.779  23.648  0.00  0.00    +0.069 A 
ATOM     24  C   UNL     1      -0.966   1.473  23.536  0.00  0.00    +0.251 C 
ATOM     25  O   UNL     1      -0.571   2.080  23.143  0.00  0.00    -0.270 OA
ENDROOT
BRANCH  21  26
ATOM     26  C   UNL     1       1.508   0.270  23.071  0.00  0.00    +0.028 A 
ATOM     27  C   UNL     1       1.684  -0.086  22.348  0.00  0.00    +0.142 A 
ATOM     28  F   UNL     1       1.102  -0.505  21.941  0.00  0.00    -0.204 F 
ATOM     29  C   UNL     1       2.444  -0.023  22.032  0.00  0.00    +0.059 A 
ATOM     30  C   UNL     1       3.027   0.396  22.439  0.00  0.00    +0.142 A 
ATOM     31  F   UNL     1       3.787   0.460  22.123  0.00  0.00    -0.204 F 
ATOM     32  C   UNL     1       2.850   0.752  23.162  0.00  0.00    +0.030 A 
ATOM     33  C   UNL     1       2.091   0.689  23.478  0.00  0.00    +0.005 A 
ENDBRANCH  21  26
BRANCH  10   9
ATOM      7  C   UNL     1      -4.365   1.722  24.572  0.00  0.00    +0.272 C 
ATOM      8  O   UNL     1      -4.387   2.422  24.137  0.00  0.00    -0.271 OA
ATOM      9  N   UNL     1      -3.660   1.298  24.635  0.00  0.00    -0.203 NA
BRANCH   7   6
ATOM      6  C   UNL     1      -5.048   1.445  24.943  0.00  0.00    +0.229 C 
BRANCH   6   5
ATOM      5  O   UNL     1      -5.420   1.905  25.518  0.00  0.00    -0.333 OA
BRANCH   5   4
ATOM      4  C   UNL     1      -6.170   1.698  25.790  0.00  0.00    +0.257 C 
BRANCH   4   2
ATOM      1  O   UNL     1      -6.932   1.476  26.979  0.00  0.00    -0.243 OA
ATOM      2  C   UNL     1      -6.425   1.949  26.534  0.00  0.00    +0.394 C 
ATOM      3  O   UNL     1      -6.170   2.675  26.832  0.00  0.00    -0.243 OA
ENDBRANCH   4   2
ENDBRANCH   5   4
ENDBRANCH   6   5
ENDBRANCH   7   6
ENDBRANCH  10   9
TORSDOF 6
ENDMDL
MODEL 6
REMARK VINA RESULT:      -6.6     15.371     16.426
REMARK  Name = 
REMARK  6 active torsions:
REMARK  status: ('A' for Active; 'I' for Inactive)
REMARK    1  A    between atoms: C_2  and  C_4
REMARK    2  A    between atoms: C_4  and  O_5
REMARK    3  A    between atoms: O_5  and  C_6
REMARK    4  A    between atoms: C_6  and  C_7
REMARK    5  A    between atoms: N_9  and  C_10
REMARK    6  A    between atoms: C_21  and  C_26
REMARK                            x       y       z     vdW  Elec       q    Type
REMARK                         _______ _______ _______ _____ _____    ______ ____
ROOT
ATOM     10  C   UNL     1      -5.550 -10.413  15.468  0.00  0.00    +0.124 C 
ATOM     11  C   UNL     1      -4.744 -10.580  15.527  0.00  0.00    +0.045 C 
ATOM     12  C   UNL     1      -4.404 -10.457  14.785  0.00  0.00    +0.096 C 
ATOM     13  N   UNL     1      -4.999 -10.214  14.268  0.00  0.00    -0.268 N 
ATOM     14  C   UNL     1      -5.707 -10.186  14.691  0.00  0.00    +0.174 C 
ATOM     15  C   UNL     1      -6.459  -9.976  14.422  0.00  0.00    +0.265 C 
ATOM     16  O   UNL     1      -7.061 -10.005  14.986  0.00  0.00    -0.271 OA
ATOM     17  N   UNL     1      -6.688  -9.742  13.666  0.00  0.00    -0.178 NA
ATOM     18  C   UNL     1      -6.221  -9.659  12.990  0.00  0.00    +0.078 A 
ATOM     19  C   UNL     1      -6.669  -9.411  12.343  0.00  0.00    +0.017 A 
ATOM     20  C   UNL     1      -6.308  -9.294  11.610  0.00  0.00    +0.001 A 
ATOM     21  C   UNL     1      -5.498  -9.425  11.525  0.00  0.00    +0.002 A 
ATOM     22  C   UNL     1      -5.050  -9.674  12.172  0.00  0.00    +0.006 A 
ATOM     23  C   UNL     1      -5.411  -9.791  12.905  0.00  0.00    +0.069 A 
ATOM     24  C   UNL     1      -4.867 -10.038  13.474  0.00  0.00    +0.251 C 
ATOM     25  O   UNL     1      -4.089 -10.119  13.213  0.00  0.00    -0.270 OA
ENDROOT
BRANCH  21  26
ATOM     26  C   UNL     1      -5.135  -9.309  10.794  0.00  0.00    +0.028 A 
ATOM     27  C   UNL     1      -4.926  -8.547  10.555  0.00  0.00    +0.142 A 
ATOM     28  F   UNL     1      -5.078  -7.903  11.047  0.00  0.00    -0.204 F 
ATOM     29  C   UNL     1      -4.563  -8.430   9.822  0.00  0.00    +0.059 A 
ATOM     30  C   UNL     1      -4.410  -9.075   9.330  0.00  0.00    +0.142 A 
ATOM     31  F   UNL     1      -4.048  -8.958   8.598  0.00  0.00    -0.204 F 
ATOM     32  C   UNL     1      -4.620  -9.835   9.569  0.00  0.00    +0.030 A 
ATOM     33  C   UNL     1      -4.982  -9.953  10.301  0.00  0.00    +0.005 A 
ENDBRANCH  21  26
BRANCH  10   9
ATOM      7  C   UNL     1      -5.853 -10.647  16.845  0.00  0.00    +0.272 C 
ATOM      8  O   UNL     1      -5.053 -10.781  16.998  0.00  0.00    -0.271 OA
ATOM      9  N   UNL     1      -6.100 -10.463  16.080  0.00  0.00    -0.203 NA
BRANCH   7   6
ATOM      6  C   UNL     1      -6.403 -10.698  17.457  0.00  0.00    +0.229 C 
BRANCH   6   5
ATOM      5  O   UNL     1      -6.223 -10.390  18.201  0.00  0.00    -0.333 OA
BRANCH   5   4
ATOM      4  C   UNL     1      -6.476 -10.781  18.881  0.00  0.00    +0.257 C 
BRANCH   4   2
ATOM      1  O   UNL     1      -6.128 -10.753  20.267  0.00  0.00    -0.243 OA
ATOM      2  C   UNL     1      -6.468 -10.392  19.609  0.00  0.00    +0.394 C 
ATOM      3  O   UNL     1      -6.802  -9.641  19.677  0.00  0.00    -0.243 OA
ENDBRANCH   4   2
ENDBRANCH   5   4
ENDBRANCH   6   5
ENDBRANCH   7   6
ENDBRANCH  10   9
TORSDOF 6
ENDMDL
