MODEL 1
REMARK VINA RESULT:     -14.4      0.000      0.000
REMARK  Name = 
REMARK  6 active torsions:
REMARK  status: ('A' for Active; 'I' for Inactive)
REMARK    1  A    between atoms: C_2  and  C_3
REMARK    2  A    between atoms: C_11  and  C_12
REMARK    3  A    between atoms: C_12  and  C_13
REMARK    4  A    between atoms: N_15  and  C_16
REMARK    5  A    between atoms: C_16  and  C_17
REMARK    6  A    between atoms: C_24  and  C_26
REMARK                            x       y       z     vdW  Elec       q    Type
REMARK                         _______ _______ _______ _____ _____    ______ ____
ROOT
ATOM      1  C   UNL     1      -5.488   3.268  25.584  0.00  0.00    +0.005 C 
ATOM      2  C   UNL     1      -4.902   2.814  25.220  0.00  0.00    +0.059 C 
ATOM      5  C   UNL     1      -4.617   3.571  25.059  0.00  0.00    +0.154 C 
ATOM      6  O   UNL     1      -5.033   4.233  25.322  0.00  0.00    -0.223 OA
ATOM      7  C   UNL     1      -3.917   3.664  24.634  0.00  0.00    +0.033 C 
ATOM      8  C   UNL     1      -3.502   3.003  24.371  0.00  0.00    +0.003 C 
ATOM      9  C   UNL     1      -3.786   2.246  24.533  0.00  0.00    +0.006 C 
ATOM     10  C   UNL     1      -3.086   2.339  24.108  0.00  0.00    +0.000 C 
ATOM     11  C   UNL     1      -3.371   1.583  24.270  0.00  0.00    +0.050 C 
ATOM     19  C   UNL     1      -3.656   0.827  24.432  0.00  0.00    +0.062 A 
ATOM     20  C   UNL     1      -4.357   0.732  24.857  0.00  0.00    +0.022 A 
ATOM     21  C   UNL     1      -4.773   1.394  25.120  0.00  0.00    +0.034 C 
ATOM     22  C   UNL     1      -4.487   2.152  24.958  0.00  0.00    +0.010 C 
ATOM     23  S   UNL     1      -4.503  -0.077  24.932  0.00  0.00    -0.071 S 
ATOM     24  C   UNL     1      -3.891  -0.482  24.554  0.00  0.00    +0.110 A 
ATOM     25  N   UNL     1      -3.368   0.076  24.245  0.00  0.00    -0.243 NA
ENDROOT
BRANCH  24  26
ATOM     26  C   UNL     1      -3.817  -1.301  24.496  0.00  0.00    +0.024 A 
ATOM     27  C   UNL     1      -3.373  -1.716  25.056  0.00  0.00    +0.002 A 
ATOM     28  C   UNL     1      -3.299  -2.535  24.998  0.00  0.00    +0.000 A 
ATOM     29  C   UNL     1      -3.667  -2.941  24.381  0.00  0.00    +0.000 A 
ATOM     30  C   UNL     1      -4.109  -2.527  23.822  0.00  0.00    +0.000 A 
ATOM     31  C   UNL     1      -4.184  -1.707  23.879  0.00  0.00    +0.002 A 
ENDBRANCH  24  26
BRANCH   2   3
ATOM      3  C   UNL     1      -5.391   2.214  25.509  0.00  0.00    +0.184 C 
ATOM      4  O   UNL     1      -6.052   2.405  25.963  0.00  0.00    -0.220 OA
ENDBRANCH   2   3
BRANCH  11  12
ATOM     12  C   UNL     1      -2.671   1.678  23.845  0.00  0.00    +0.093 C 
BRANCH  12  13
ATOM     13  C   UNL     1      -1.947   1.494  24.196  0.00  0.00    +0.243 C 
ATOM     14  O   UNL     1      -1.818   1.668  24.992  0.00  0.00    -0.273 OA
ATOM     15  N   UNL     1      -1.351   1.135  23.751  0.00  0.00    -0.191 NA
BRANCH  15  16
ATOM     16  C   UNL     1      -0.628   0.952  24.102  0.00  0.00    +0.191 C 
BRANCH  16  17
ATOM     17  C   UNL     1      -0.083   0.481  23.701  0.00  0.00    -0.054 C 
ATOM     18  C   UNL     1       0.463   0.009  23.300  0.00  0.00    -0.012 C 
ENDBRANCH  16  17
ENDBRANCH  15  16
ENDBRANCH  12  13
ENDBRANCH  11  12
TORSDOF 6
ENDMDL
MODEL 2
REMARK VINA RESULT:     -13.7      1.832      4.783
REMARK  Name = 
REMARK  6 active torsions:
REMARK  status: ('A' for Active; 'I' for Inactive)
REMARK    1  A    between atoms: C_2  and  C_3
REMARK    2  A    between atoms: C_11  and  C_12
REMARK    3  A    between atoms: C_12  and  C_13
REMARK    4  A    between atoms: N_15  and  C_16
REMARK    5  A    between atoms: C_16  and  C_17
REMARK    6  A    between atoms: C_24  and  C_26
REMARK                            x       y       z     vdW  Elec       q    Type
REMARK                         _______ _______ _______ _____ _____    ______ ____
ROOT
ATOM      1  C   UNL     1      -2.620  -2.727  24.554  0.00  0.00    +0.005 C 
ATOM      2  C   UNL     1      -2.877  -1.943  24.514  0.00  0.00    +0.059 C 
ATOM      5  C   UNL     1      -3.579  -2.334  24.328  0.00  0.00    +0.154 C 
ATOM      6  O   UNL     1      -3.598  -3.158  24.298  0.00  0.00    -0.223 OA
ATOM      7  C   UNL     1      -4.262  -1.899  24.172  0.00  0.00    +0.033 C 
ATOM      8  C   UNL     1      -4.244  -1.076  24.202  0.00  0.00    +0.003 C 
ATOM      9  C   UNL     1      -3.541  -0.685  24.388  0.00  0.00    +0.006 C 
ATOM     10  C   UNL     1      -4.225  -0.251  24.232  0.00  0.00    +0.000 C 
ATOM     11  C   UNL     1      -3.522   0.139  24.418  0.00  0.00    +0.050 C 
ATOM     19  C   UNL     1      -2.820   0.528  24.604  0.00  0.00    +0.062 A 
ATOM     20  C   UNL     1      -2.136   0.095  24.760  0.00  0.00    +0.022 A 
ATOM     21  C   UNL     1      -2.155  -0.730  24.730  0.00  0.00    +0.034 C 
ATOM     22  C   UNL     1      -2.858  -1.120  24.544  0.00  0.00    +0.010 C 
ATOM     23  S   UNL     1      -1.528   0.627  24.927  0.00  0.00    -0.071 S 
ATOM     24  C   UNL     1      -1.837   1.391  24.874  0.00  0.00    +0.110 A 
ATOM     25  N   UNL     1      -2.635   1.330  24.675  0.00  0.00    -0.243 NA
ENDROOT
BRANCH  24  26
ATOM     26  C   UNL     1      -1.420   2.091  24.999  0.00  0.00    +0.024 A 
ATOM     27  C   UNL     1      -1.332   2.387  25.765  0.00  0.00    +0.002 A 
ATOM     28  C   UNL     1      -0.914   3.088  25.890  0.00  0.00    +0.000 A 
ATOM     29  C   UNL     1      -0.586   3.493  25.251  0.00  0.00    +0.000 A 
ATOM     30  C   UNL     1      -0.674   3.197  24.486  0.00  0.00    +0.000 A 
ATOM     31  C   UNL     1      -1.091   2.496  24.360  0.00  0.00    +0.002 A 
ENDBRANCH  24  26
BRANCH   2   3
ATOM      3  C   UNL     1      -2.085  -1.826  24.714  0.00  0.00    +0.184 C 
ATOM      4  O   UNL     1      -1.574  -2.471  24.773  0.00  0.00    -0.220 OA
ENDBRANCH   2   3
BRANCH  11  12
ATOM     12  C   UNL     1      -4.206   0.573  24.262  0.00  0.00    +0.093 C 
BRANCH  12  13
ATOM     13  C   UNL     1      -4.612   0.941  24.879  0.00  0.00    +0.243 C 
ATOM     14  O   UNL     1      -4.727   0.542  25.592  0.00  0.00    -0.273 OA
ATOM     15  N   UNL     1      -4.902   1.707  24.784  0.00  0.00    -0.191 NA
BRANCH  15  16
ATOM     16  C   UNL     1      -5.308   2.074  25.401  0.00  0.00    +0.191 C 
BRANCH  16  17
ATOM     17  C   UNL     1      -5.360   2.896  25.429  0.00  0.00    -0.054 C 
ATOM     18  C   UNL     1      -5.412   3.720  25.456  0.00  0.00    -0.012 C 
ENDBRANCH  16  17
ENDBRANCH  15  16
ENDBRANCH  12  13
ENDBRANCH  11  12
TORSDOF 6
ENDMDL
MODEL 3
REMARK VINA RESULT:     -13.4      1.743      4.198
REMARK  Name = 
REMARK  6 active torsions:
REMARK  status: ('A' for Active; 'I' for Inactive)
REMARK    1  A    between atoms: C_2  and  C_3
REMARK    2  A    between atoms: C_11  and  C_12
REMARK    3  A    between atoms: C_12  and  C_13
REMARK    4  A    between atoms: N_15  and  C_16
REMARK    5  A    between atoms: C_16  and  C_17
REMARK    6  A    between atoms: C_24  and  C_26
REMARK                            x       y       z     vdW  Elec       q    Type
REMARK                         _______ _______ _______ _____ _____    ______ ____
ROOT
ATOM      1  C   UNL     1      -3.963  -2.713  23.963  0.00  0.00    +0.005 C 
ATOM      2  C   UNL     1      -3.604  -2.049  24.298  0.00  0.00    +0.059 C 
ATOM      5  C   UNL     1      -3.034  -2.621  24.468  0.00  0.00    +0.154 C 
ATOM      6  O   UNL     1      -3.151  -3.403  24.232  0.00  0.00    -0.223 OA
ATOM      7  C   UNL     1      -2.347  -2.410  24.873  0.00  0.00    +0.033 C 
ATOM      8  C   UNL     1      -2.230  -1.629  25.108  0.00  0.00    +0.003 C 
ATOM      9  C   UNL     1      -2.800  -1.057  24.939  0.00  0.00    +0.006 C 
ATOM     10  C   UNL     1      -2.113  -0.846  25.344  0.00  0.00    +0.000 C 
ATOM     11  C   UNL     1      -2.683  -0.275  25.174  0.00  0.00    +0.050 C 
ATOM     19  C   UNL     1      -3.253   0.296  25.004  0.00  0.00    +0.062 A 
ATOM     20  C   UNL     1      -3.940   0.087  24.599  0.00  0.00    +0.022 A 
ATOM     21  C   UNL     1      -4.057  -0.695  24.363  0.00  0.00    +0.034 C 
ATOM     22  C   UNL     1      -3.487  -1.268  24.533  0.00  0.00    +0.010 C 
ATOM     23  S   UNL     1      -4.402   0.765  24.509  0.00  0.00    -0.071 S 
ATOM     24  C   UNL     1      -3.999   1.395  24.860  0.00  0.00    +0.110 A 
ATOM     25  N   UNL     1      -3.290   1.106  25.165  0.00  0.00    -0.243 NA
ENDROOT
BRANCH  24  26
ATOM     26  C   UNL     1      -4.261   2.176  24.897  0.00  0.00    +0.024 A 
ATOM     27  C   UNL     1      -4.834   2.392  25.451  0.00  0.00    +0.002 A 
ATOM     28  C   UNL     1      -5.096   3.173  25.489  0.00  0.00    +0.000 A 
ATOM     29  C   UNL     1      -4.786   3.738  24.973  0.00  0.00    +0.000 A 
ATOM     30  C   UNL     1      -4.215   3.522  24.420  0.00  0.00    +0.000 A 
ATOM     31  C   UNL     1      -3.952   2.741  24.382  0.00  0.00    +0.002 A 
ENDBRANCH  24  26
BRANCH   2   3
ATOM      3  C   UNL     1      -4.299  -1.708  24.012  0.00  0.00    +0.184 C 
ATOM      4  O   UNL     1      -4.841  -2.167  23.593  0.00  0.00    -0.220 OA
ENDBRANCH   2   3
BRANCH  11  12
ATOM     12  C   UNL     1      -1.996  -0.064  25.579  0.00  0.00    +0.093 C 
BRANCH  12  13
ATOM     13  C   UNL     1      -1.428   0.408  25.211  0.00  0.00    +0.243 C 
ATOM     14  O   UNL     1      -1.257   0.299  24.412  0.00  0.00    -0.273 OA
ATOM     15  N   UNL     1      -1.031   0.988  25.643  0.00  0.00    -0.191 NA
BRANCH  15  16
ATOM     16  C   UNL     1      -0.463   1.460  25.275  0.00  0.00    +0.191 C 
BRANCH  16  17
ATOM     17  C   UNL     1      -0.156   2.117  25.667  0.00  0.00    -0.054 C 
ATOM     18  C   UNL     1       0.151   2.776  26.059  0.00  0.00    -0.012 C 
ENDBRANCH  16  17
ENDBRANCH  15  16
ENDBRANCH  12  13
ENDBRANCH  11  12
TORSDOF 6
ENDMDL
MODEL 4
REMARK VINA RESULT:     -12.6      1.095      2.971
REMARK  Name = 
REMARK  6 active torsions:
REMARK  status: ('A' for Active; 'I' for Inactive)
REMARK    1  A    between atoms: C_2  and  C_3
REMARK    2  A    between atoms: C_11  and  C_12
REMARK    3  A    between atoms: C_12  and  C_13
REMARK    4  A    between atoms: N_15  and  C_16
REMARK    5  A    between atoms: C_16  and  C_17
REMARK    6  A    between atoms: C_24  and  C_26
REMARK                            x       y       z     vdW  Elec       q    Type
REMARK                         _______ _______ _______ _____ _____    ______ ____
ROOT
ATOM      1  C   UNL     1      -4.442   3.766  25.581  0.00  0.00    +0.005 C 
ATOM      2  C   UNL     1      -4.281   3.007  25.296  0.00  0.00    +0.059 C 
ATOM      5  C   UNL     1      -5.103   2.968  25.352  0.00  0.00    +0.154 C 
ATOM      6  O   UNL     1      -5.531   3.620  25.621  0.00  0.00    -0.223 OA
ATOM      7  C   UNL     1      -5.498   2.276  25.138  0.00  0.00    +0.033 C 
ATOM      8  C   UNL     1      -5.071   1.624  24.869  0.00  0.00    +0.003 C 
ATOM      9  C   UNL     1      -4.249   1.663  24.814  0.00  0.00    +0.006 C 
ATOM     10  C   UNL     1      -4.643   0.971  24.600  0.00  0.00    +0.000 C 
ATOM     11  C   UNL     1      -3.821   1.011  24.545  0.00  0.00    +0.050 C 
ATOM     19  C   UNL     1      -3.000   1.051  24.490  0.00  0.00    +0.062 A 
ATOM     20  C   UNL     1      -2.604   1.743  24.703  0.00  0.00    +0.022 A 
ATOM     21  C   UNL     1      -3.032   2.395  24.972  0.00  0.00    +0.034 C 
ATOM     22  C   UNL     1      -3.855   2.356  25.028  0.00  0.00    +0.010 C 
ATOM     23  S   UNL     1      -1.796   1.621  24.591  0.00  0.00    -0.071 S 
ATOM     24  C   UNL     1      -1.692   0.852  24.308  0.00  0.00    +0.110 A 
ATOM     25  N   UNL     1      -2.435   0.500  24.245  0.00  0.00    -0.243 NA
ENDROOT
BRANCH  24  26
ATOM     26  C   UNL     1      -0.970   0.499  24.121  0.00  0.00    +0.024 A 
ATOM     27  C   UNL     1      -0.732  -0.186  24.516  0.00  0.00    +0.002 A 
ATOM     28  C   UNL     1      -0.010  -0.539  24.329  0.00  0.00    +0.000 A 
ATOM     29  C   UNL     1       0.473  -0.208  23.748  0.00  0.00    +0.000 A 
ATOM     30  C   UNL     1       0.235   0.476  23.354  0.00  0.00    +0.000 A 
ATOM     31  C   UNL     1      -0.487   0.830  23.540  0.00  0.00    +0.002 A 
ENDBRANCH  24  26
BRANCH   2   3
ATOM      3  C   UNL     1      -3.515   3.311  25.340  0.00  0.00    +0.184 C 
ATOM      4  O   UNL     1      -3.388   4.068  25.640  0.00  0.00    -0.220 OA
ENDBRANCH   2   3
BRANCH  11  12
ATOM     12  C   UNL     1      -4.216   0.319  24.331  0.00  0.00    +0.093 C 
BRANCH  12  13
ATOM     13  C   UNL     1      -4.138  -0.360  24.793  0.00  0.00    +0.243 C 
ATOM     14  O   UNL     1      -4.142  -0.302  25.615  0.00  0.00    -0.273 OA
ATOM     15  N   UNL     1      -4.055  -1.098  24.432  0.00  0.00    -0.191 NA
BRANCH  15  16
ATOM     16  C   UNL     1      -3.977  -1.777  24.893  0.00  0.00    +0.191 C 
BRANCH  16  17
ATOM     17  C   UNL     1      -3.717  -2.480  24.551  0.00  0.00    -0.054 C 
ATOM     18  C   UNL     1      -3.456  -3.185  24.209  0.00  0.00    -0.012 C 
ENDBRANCH  16  17
ENDBRANCH  15  16
ENDBRANCH  12  13
ENDBRANCH  11  12
TORSDOF 6
ENDMDL
