MODEL 1
REMARK VINA RESULT:     -11.9      0.000      0.000
REMARK  Name = 
REMARK  8 active torsions:
REMARK  status: ('A' for Active; 'I' for Inactive)
REMARK    1  A    between atoms: O_2  and  C_3
REMARK    2  A    between atoms: C_3  and  C_4
REMARK    3  A    between atoms: C_4  and  N_5
REMARK    4  A    between atoms: C_6  and  C_8
REMARK    5  A    between atoms: N_12  and  C_13
REMARK    6  A    between atoms: C_13  and  C_14
REMARK    7  A    between atoms: C_26  and  C_27
REMARK    8  A    between atoms: C_27  and  C_28
REMARK                            x       y       z     vdW  Elec       q    Type
REMARK                         _______ _______ _______ _____ _____    ______ ____
ROOT
ATOM      8  C   UNL     1      -2.016   0.014  24.819  0.00  0.00    +0.155 C 
ATOM      9  C   UNL     1      -2.015   0.838  24.820  0.00  0.00    +0.055 C 
ATOM     10  C   UNL     1      -2.658   1.355  24.865  0.00  0.00    -0.002 A 
ATOM     11  C   UNL     1      -2.582   2.176  24.862  0.00  0.00    +0.072 A 
ATOM     12  N   UNL     1      -3.338   2.502  24.914  0.00  0.00    -0.320 N 
ATOM     20  C   UNL     1      -3.881   1.881  24.950  0.00  0.00    +0.060 A 
ATOM     21  C   UNL     1      -3.460   1.172  24.920  0.00  0.00    +0.011 A 
ATOM     22  C   UNL     1      -3.819   0.430  24.943  0.00  0.00    -0.005 A 
ATOM     23  C   UNL     1      -4.686   0.442  25.002  0.00  0.00    -0.003 A 
ATOM     24  C   UNL     1      -5.106   1.151  25.032  0.00  0.00    +0.001 A 
ATOM     25  C   UNL     1      -4.704   1.871  25.006  0.00  0.00    +0.017 A 
ATOM     26  C   UNL     1      -3.463  -0.314  24.917  0.00  0.00    +0.095 C 
ATOM     31  N   UNL     1      -2.661  -0.499  24.862  0.00  0.00    -0.207 NA
ENDROOT
BRANCH   8   6
ATOM      5  N   UNL     1      -0.826  -0.269  24.081  0.00  0.00    -0.202 NA
ATOM      6  C   UNL     1      -1.276  -0.346  24.767  0.00  0.00    +0.258 C 
ATOM      7  O   UNL     1      -0.985  -0.782  25.404  0.00  0.00    -0.272 OA
BRANCH   5   4
ATOM      4  C   UNL     1      -0.085  -0.629  24.029  0.00  0.00    +0.147 C 
BRANCH   4   3
ATOM      3  C   UNL     1       0.350  -0.581  23.331  0.00  0.00    +0.166 C 
BRANCH   3   2
ATOM      1  C   UNL     1       1.510  -0.140  22.624  0.00  0.00    +0.174 C 
ATOM      2  O   UNL     1       1.070  -0.179  23.319  0.00  0.00    -0.349 OA
ENDBRANCH   3   2
ENDBRANCH   4   3
ENDBRANCH   5   4
ENDBRANCH   8   6
BRANCH  12  13
ATOM     13  C   UNL     1      -3.520   3.306  24.929  0.00  0.00    +0.155 C 
BRANCH  13  14
ATOM     14  C   UNL     1      -2.972   3.848  25.224  0.00  0.00    +0.123 A 
ATOM     15  N   UNL     1      -2.875   4.056  26.016  0.00  0.00    -0.080 NA
ATOM     16  O   UNL     1      -2.267   4.613  26.061  0.00  0.00    -0.358 OA
ATOM     17  C   UNL     1      -1.989   4.748  25.296  0.00  0.00    +0.155 A 
ATOM     18  C   UNL     1      -1.382   5.266  25.085  0.00  0.00    +0.075 C 
ATOM     19  C   UNL     1      -2.424   4.275  24.779  0.00  0.00    +0.056 A 
ENDBRANCH  13  14
ENDBRANCH  12  13
BRANCH  26  27
ATOM     27  C   UNL     1      -3.978  -0.958  24.950  0.00  0.00    +0.022 C 
BRANCH  27  28
ATOM     28  C   UNL     1      -3.811  -1.643  24.523  0.00  0.00    +0.002 C 
ATOM     29  C   UNL     1      -3.964  -1.672  23.713  0.00  0.00    +0.000 C 
ATOM     30  C   UNL     1      -3.489  -2.300  24.906  0.00  0.00    +0.000 C 
ENDBRANCH  27  28
ENDBRANCH  26  27
TORSDOF 8
ENDMDL
MODEL 2
REMARK VINA RESULT:     -10.9      1.382      4.096
REMARK  Name = 
REMARK  8 active torsions:
REMARK  status: ('A' for Active; 'I' for Inactive)
REMARK    1  A    between atoms: O_2  and  C_3
REMARK    2  A    between atoms: C_3  and  C_4
REMARK    3  A    between atoms: C_4  and  N_5
REMARK    4  A    between atoms: C_6  and  C_8
REMARK    5  A    between atoms: N_12  and  C_13
REMARK    6  A    between atoms: C_13  and  C_14
REMARK    7  A    between atoms: C_26  and  C_27
REMARK    8  A    between atoms: C_27  and  C_28
REMARK                            x       y       z     vdW  Elec       q    Type
REMARK                         _______ _______ _______ _____ _____    ______ ____
ROOT
ATOM      8  C   UNL     1      -1.402   1.947  24.868  0.00  0.00    +0.155 C 
ATOM      9  C   UNL     1      -1.809   1.231  24.823  0.00  0.00    +0.055 C 
ATOM     10  C   UNL     1      -2.623   1.104  24.772  0.00  0.00    -0.002 A 
ATOM     11  C   UNL     1      -2.964   0.354  24.730  0.00  0.00    +0.072 A 
ATOM     12  N   UNL     1      -3.782   0.448  24.685  0.00  0.00    -0.320 N 
ATOM     20  C   UNL     1      -3.946   1.257  24.700  0.00  0.00    +0.060 A 
ATOM     21  C   UNL     1      -3.230   1.662  24.753  0.00  0.00    +0.011 A 
ATOM     22  C   UNL     1      -3.174   2.484  24.781  0.00  0.00    -0.005 A 
ATOM     23  C   UNL     1      -3.933   2.905  24.750  0.00  0.00    -0.003 A 
ATOM     24  C   UNL     1      -4.650   2.501  24.697  0.00  0.00    +0.001 A 
ATOM     25  C   UNL     1      -4.656   1.676  24.671  0.00  0.00    +0.017 A 
ATOM     26  C   UNL     1      -2.497   2.952  24.835  0.00  0.00    +0.095 C 
ATOM     31  N   UNL     1      -1.708   2.713  24.873  0.00  0.00    -0.207 NA
ENDROOT
BRANCH   8   6
ATOM      5  N   UNL     1      -0.136   1.764  24.230  0.00  0.00    -0.202 NA
ATOM      6  C   UNL     1      -0.580   1.890  24.913  0.00  0.00    +0.258 C 
ATOM      7  O   UNL     1      -0.202   1.959  25.644  0.00  0.00    -0.272 OA
BRANCH   5   4
ATOM      4  C   UNL     1       0.686   1.707  24.276  0.00  0.00    +0.147 C 
BRANCH   4   3
ATOM      3  C   UNL     1       1.106   1.314  23.686  0.00  0.00    +0.166 C 
BRANCH   3   2
ATOM      1  C   UNL     1       2.378   0.904  23.180  0.00  0.00    +0.174 C 
ATOM      2  O   UNL     1       1.917   1.443  23.600  0.00  0.00    -0.349 OA
ENDBRANCH   3   2
ENDBRANCH   4   3
ENDBRANCH   5   4
ENDBRANCH   8   6
BRANCH  12  13
ATOM     13  C   UNL     1      -4.338  -0.159  24.635  0.00  0.00    +0.155 C 
BRANCH  13  14
ATOM     14  C   UNL     1      -4.101  -0.944  24.725  0.00  0.00    +0.123 A 
ATOM     15  N   UNL     1      -3.849  -1.297  25.427  0.00  0.00    -0.080 NA
ATOM     16  O   UNL     1      -3.666  -2.085  25.265  0.00  0.00    -0.358 OA
ATOM     17  C   UNL     1      -3.805  -2.219  24.463  0.00  0.00    +0.155 A 
ATOM     18  C   UNL     1      -3.695  -2.933  24.064  0.00  0.00    +0.075 C 
ATOM     19  C   UNL     1      -4.074  -1.514  24.129  0.00  0.00    +0.056 A 
ENDBRANCH  13  14
ENDBRANCH  12  13
BRANCH  26  27
ATOM     27  C   UNL     1      -2.625   3.767  24.852  0.00  0.00    +0.022 C 
BRANCH  27  28
ATOM     28  C   UNL     1      -2.195   4.242  25.370  0.00  0.00    +0.002 C 
ATOM     29  C   UNL     1      -2.363   4.230  26.177  0.00  0.00    +0.000 C 
ATOM     30  C   UNL     1      -1.595   4.730  25.082  0.00  0.00    +0.000 C 
ENDBRANCH  27  28
ENDBRANCH  26  27
TORSDOF 8
ENDMDL
MODEL 3
REMARK VINA RESULT:     -10.3      1.954      3.381
REMARK  Name = 
REMARK  8 active torsions:
REMARK  status: ('A' for Active; 'I' for Inactive)
REMARK    1  A    between atoms: O_2  and  C_3
REMARK    2  A    between atoms: C_3  and  C_4
REMARK    3  A    between atoms: C_4  and  N_5
REMARK    4  A    between atoms: C_6  and  C_8
REMARK    5  A    between atoms: N_12  and  C_13
REMARK    6  A    between atoms: C_13  and  C_14
REMARK    7  A    between atoms: C_26  and  C_27
REMARK    8  A    between atoms: C_27  and  C_28
REMARK                            x       y       z     vdW  Elec       q    Type
REMARK                         _______ _______ _______ _____ _____    ______ ____
ROOT
ATOM      8  C   UNL     1      -3.936   0.715  24.891  0.00  0.00    +0.155 C 
ATOM      9  C   UNL     1      -3.141   0.930  24.870  0.00  0.00    +0.055 C 
ATOM     10  C   UNL     1      -2.814   1.685  24.794  0.00  0.00    -0.002 A 
ATOM     11  C   UNL     1      -2.002   1.828  24.781  0.00  0.00    +0.072 A 
ATOM     12  N   UNL     1      -1.888   2.641  24.699  0.00  0.00    -0.320 N 
ATOM     20  C   UNL     1      -2.631   3.000  24.662  0.00  0.00    +0.060 A 
ATOM     21  C   UNL     1      -3.203   2.408  24.721  0.00  0.00    +0.011 A 
ATOM     22  C   UNL     1      -4.013   2.558  24.705  0.00  0.00    -0.005 A 
ATOM     23  C   UNL     1      -4.232   3.394  24.620  0.00  0.00    -0.003 A 
ATOM     24  C   UNL     1      -3.660   3.986  24.561  0.00  0.00    +0.001 A 
ATOM     25  C   UNL     1      -2.859   3.788  24.582  0.00  0.00    +0.017 A 
ATOM     26  C   UNL     1      -4.637   2.019  24.759  0.00  0.00    +0.095 C 
ATOM     31  N   UNL     1      -4.603   1.199  24.842  0.00  0.00    -0.207 NA
ENDROOT
BRANCH   8   6
ATOM      5  N   UNL     1      -4.139  -0.572  24.304  0.00  0.00    -0.202 NA
ATOM      6  C   UNL     1      -4.087  -0.093  24.972  0.00  0.00    +0.258 C 
ATOM      7  O   UNL     1      -4.186  -0.420  25.723  0.00  0.00    -0.272 OA
BRANCH   5   4
ATOM      4  C   UNL     1      -4.290  -1.380  24.385  0.00  0.00    +0.147 C 
BRANCH   4   3
ATOM      3  C   UNL     1      -4.084  -1.901  23.781  0.00  0.00    +0.166 C 
BRANCH   3   2
ATOM      1  C   UNL     1      -3.713  -3.275  23.905  0.00  0.00    +0.174 C 
ATOM      2  O   UNL     1      -4.296  -2.697  23.832  0.00  0.00    -0.349 OA
ENDBRANCH   3   2
ENDBRANCH   4   3
ENDBRANCH   5   4
ENDBRANCH   8   6
BRANCH  12  13
ATOM     13  C   UNL     1      -1.161   3.028  24.660  0.00  0.00    +0.155 C 
BRANCH  13  14
ATOM     14  C   UNL     1      -0.532   2.770  25.128  0.00  0.00    +0.123 A 
ATOM     15  N   UNL     1       0.099   2.300  24.877  0.00  0.00    -0.080 NA
ATOM     16  O   UNL     1       0.597   2.177  25.522  0.00  0.00    -0.358 OA
ATOM     17  C   UNL     1       0.275   2.570  26.172  0.00  0.00    +0.155 A 
ATOM     18  C   UNL     1       0.595   2.592  26.933  0.00  0.00    +0.075 C 
ATOM     19  C   UNL     1      -0.422   2.936  25.928  0.00  0.00    +0.056 A 
ENDBRANCH  13  14
ENDBRANCH  12  13
BRANCH  26  27
ATOM     27  C   UNL     1      -5.395   2.345  24.725  0.00  0.00    +0.022 C 
BRANCH  27  28
ATOM     28  C   UNL     1      -6.001   2.026  25.184  0.00  0.00    +0.002 C 
ATOM     29  C   UNL     1      -6.016   2.159  25.998  0.00  0.00    +0.000 C 
ATOM     30  C   UNL     1      -6.593   1.575  24.829  0.00  0.00    +0.000 C 
ENDBRANCH  27  28
ENDBRANCH  26  27
TORSDOF 8
ENDMDL
MODEL 4
REMARK VINA RESULT:     -10.1      1.695      5.413
REMARK  Name = 
REMARK  8 active torsions:
REMARK  status: ('A' for Active; 'I' for Inactive)
REMARK    1  A    between atoms: O_2  and  C_3
REMARK    2  A    between atoms: C_3  and  C_4
REMARK    3  A    between atoms: C_4  and  N_5
REMARK    4  A    between atoms: C_6  and  C_8
REMARK    5  A    between atoms: N_12  and  C_13
REMARK    6  A    between atoms: C_13  and  C_14
REMARK    7  A    between atoms: C_26  and  C_27
REMARK    8  A    between atoms: C_27  and  C_28
REMARK                            x       y       z     vdW  Elec       q    Type
REMARK                         _______ _______ _______ _____ _____    ______ ____
ROOT
ATOM      8  C   UNL     1      -2.888   2.648  24.746  0.00  0.00    +0.155 C 
ATOM      9  C   UNL     1      -2.622   1.890  24.563  0.00  0.00    +0.055 C 
ATOM     10  C   UNL     1      -1.867   1.570  24.664  0.00  0.00    -0.002 A 
ATOM     11  C   UNL     1      -1.670   0.797  24.457  0.00  0.00    +0.072 A 
ATOM     12  N   UNL     1      -0.874   0.680  24.638  0.00  0.00    -0.320 N 
ATOM     20  C   UNL     1      -0.579   1.382  24.956  0.00  0.00    +0.060 A 
ATOM     21  C   UNL     1      -1.193   1.932  24.972  0.00  0.00    +0.011 A 
ATOM     22  C   UNL     1      -1.106   2.701  25.256  0.00  0.00    -0.005 A 
ATOM     23  C   UNL     1      -0.310   2.900  25.543  0.00  0.00    -0.003 A 
ATOM     24  C   UNL     1       0.304   2.350  25.527  0.00  0.00    +0.001 A 
ATOM     25  C   UNL     1       0.169   1.590  25.233  0.00  0.00    +0.017 A 
ATOM     26  C   UNL     1      -1.673   3.300  25.301  0.00  0.00    +0.095 C 
ATOM     31  N   UNL     1      -2.465   3.276  25.074  0.00  0.00    -0.207 NA
ENDROOT
BRANCH   8   6
ATOM      5  N   UNL     1      -4.261   2.641  25.142  0.00  0.00    -0.202 NA
ATOM      6  C   UNL     1      -3.681   2.800  24.578  0.00  0.00    +0.258 C 
ATOM      7  O   UNL     1      -3.895   3.112  23.844  0.00  0.00    -0.272 OA
BRANCH   5   4
ATOM      4  C   UNL     1      -5.054   2.793  24.974  0.00  0.00    +0.147 C 
BRANCH   4   3
ATOM      3  C   UNL     1      -5.619   2.745  25.572  0.00  0.00    +0.166 C 
BRANCH   3   2
ATOM      1  C   UNL     1      -6.533   1.916  26.293  0.00  0.00    +0.174 C 
ATOM      2  O   UNL     1      -6.149   2.113  25.591  0.00  0.00    -0.349 OA
ENDBRANCH   3   2
ENDBRANCH   4   3
ENDBRANCH   5   4
ENDBRANCH   8   6
BRANCH  12  13
ATOM     13  C   UNL     1      -0.447  -0.016  24.521  0.00  0.00    +0.155 C 
BRANCH  13  14
ATOM     14  C   UNL     1      -0.778  -0.743  24.730  0.00  0.00    +0.123 A 
ATOM     15  N   UNL     1      -0.789  -1.070  25.487  0.00  0.00    -0.080 NA
ATOM     16  O   UNL     1      -1.173  -1.799  25.444  0.00  0.00    -0.358 OA
ATOM     17  C   UNL     1      -1.399  -1.922  24.660  0.00  0.00    +0.155 A 
ATOM     18  C   UNL     1      -1.800  -2.582  24.368  0.00  0.00    +0.075 C 
ATOM     19  C   UNL     1      -1.155  -1.269  24.219  0.00  0.00    +0.056 A 
ENDBRANCH  13  14
ENDBRANCH  12  13
BRANCH  26  27
ATOM     27  C   UNL     1      -1.411   4.017  25.616  0.00  0.00    +0.022 C 
BRANCH  27  28
ATOM     28  C   UNL     1      -1.655   4.728  25.278  0.00  0.00    +0.002 C 
ATOM     29  C   UNL     1      -1.273   5.020  24.608  0.00  0.00    +0.000 C 
ATOM     30  C   UNL     1      -2.282   5.149  25.611  0.00  0.00    +0.000 C 
ENDBRANCH  27  28
ENDBRANCH  26  27
TORSDOF 8
ENDMDL
MODEL 5
REMARK VINA RESULT:      -9.8      1.885      2.905
REMARK  Name = 
REMARK  8 active torsions:
REMARK  status: ('A' for Active; 'I' for Inactive)
REMARK    1  A    between atoms: O_2  and  C_3
REMARK    2  A    between atoms: C_3  and  C_4
REMARK    3  A    between atoms: C_4  and  N_5
REMARK    4  A    between atoms: C_6  and  C_8
REMARK    5  A    between atoms: N_12  and  C_13
REMARK    6  A    between atoms: C_13  and  C_14
REMARK    7  A    between atoms: C_26  and  C_27
REMARK    8  A    between atoms: C_27  and  C_28
REMARK                            x       y       z     vdW  Elec       q    Type
REMARK                         _______ _______ _______ _____ _____    ______ ____
ROOT
ATOM      8  C   UNL     1      -1.587   0.969  24.779  0.00  0.00    +0.155 C 
ATOM      9  C   UNL     1      -2.299   1.381  24.823  0.00  0.00    +0.055 C 
ATOM     10  C   UNL     1      -3.068   1.088  24.762  0.00  0.00    -0.002 A 
ATOM     11  C   UNL     1      -3.741   1.562  24.816  0.00  0.00    +0.072 A 
ATOM     12  N   UNL     1      -4.402   1.077  24.729  0.00  0.00    -0.320 N 
ATOM     20  C   UNL     1      -4.138   0.303  24.621  0.00  0.00    +0.060 A 
ATOM     21  C   UNL     1      -3.314   0.310  24.642  0.00  0.00    +0.011 A 
ATOM     22  C   UNL     1      -2.852  -0.367  24.553  0.00  0.00    -0.005 A 
ATOM     23  C   UNL     1      -3.297  -1.103  24.434  0.00  0.00    -0.003 A 
ATOM     24  C   UNL     1      -4.121  -1.111  24.414  0.00  0.00    +0.001 A 
ATOM     25  C   UNL     1      -4.542  -0.407  24.508  0.00  0.00    +0.017 A 
ATOM     26  C   UNL     1      -2.029  -0.433  24.562  0.00  0.00    +0.095 C 
ATOM     31  N   UNL     1      -1.466   0.161  24.663  0.00  0.00    -0.207 NA
ENDROOT
BRANCH   8   6
ATOM      5  N   UNL     1      -0.687   1.714  25.603  0.00  0.00    -0.202 NA
ATOM      6  C   UNL     1      -0.903   1.424  24.862  0.00  0.00    +0.258 C 
ATOM      7  O   UNL     1      -0.436   1.589  24.202  0.00  0.00    -0.272 OA
BRANCH   5   4
ATOM      4  C   UNL     1      -0.004   2.169  25.686  0.00  0.00    +0.147 C 
BRANCH   4   3
ATOM      3  C   UNL     1       0.127   2.596  26.379  0.00  0.00    +0.166 C 
BRANCH   3   2
ATOM      1  C   UNL     1       0.948   2.687  27.545  0.00  0.00    +0.174 C 
ATOM      2  O   UNL     1       0.874   2.598  26.728  0.00  0.00    -0.349 OA
ENDBRANCH   3   2
ENDBRANCH   4   3
ENDBRANCH   5   4
ENDBRANCH   8   6
BRANCH  12  13
ATOM     13  C   UNL     1      -5.190   1.323  24.747  0.00  0.00    +0.155 C 
BRANCH  13  14
ATOM     14  C   UNL     1      -5.410   1.969  25.211  0.00  0.00    +0.123 A 
ATOM     15  N   UNL     1      -5.660   1.938  25.997  0.00  0.00    -0.080 NA
ATOM     16  O   UNL     1      -5.824   2.709  26.242  0.00  0.00    -0.358 OA
ATOM     17  C   UNL     1      -5.674   3.215  25.608  0.00  0.00    +0.155 A 
ATOM     18  C   UNL     1      -5.765   4.036  25.610  0.00  0.00    +0.075 C 
ATOM     19  C   UNL     1      -5.419   2.758  24.971  0.00  0.00    +0.056 A 
ENDBRANCH  13  14
ENDBRANCH  12  13
BRANCH  26  27
ATOM     27  C   UNL     1      -1.730  -1.196  24.457  0.00  0.00    +0.022 C 
BRANCH  27  28
ATOM     28  C   UNL     1      -1.002  -1.402  24.784  0.00  0.00    +0.002 C 
ATOM     29  C   UNL     1      -0.942  -1.565  25.590  0.00  0.00    +0.000 C 
ATOM     30  C   UNL     1      -0.332  -1.445  24.304  0.00  0.00    +0.000 C 
ENDBRANCH  27  28
ENDBRANCH  26  27
TORSDOF 8
ENDMDL
MODEL 6
REMARK VINA RESULT:      -9.7      0.917      4.261
REMARK  Name = 
REMARK  8 active torsions:
REMARK  status: ('A' for Active; 'I' for Inactive)
REMARK    1  A    between atoms: O_2  and  C_3
REMARK    2  A    between atoms: C_3  and  C_4
REMARK    3  A    between atoms: C_4  and  N_5
REMARK    4  A    between atoms: C_6  and  C_8
REMARK    5  A    between atoms: N_12  and  C_13
REMARK    6  A    between atoms: C_13  and  C_14
REMARK    7  A    between atoms: C_26  and  C_27
REMARK    8  A    between atoms: C_27  and  C_28
REMARK                            x       y       z     vdW  Elec       q    Type
REMARK                         _______ _______ _______ _____ _____    ______ ____
ROOT
ATOM      8  C   UNL     1      -3.352   2.173  24.665  0.00  0.00    +0.155 C 
ATOM      9  C   UNL     1      -2.698   1.704  24.486  0.00  0.00    +0.055 C 
ATOM     10  C   UNL     1      -2.632   0.882  24.514  0.00  0.00    -0.002 A 
ATOM     11  C   UNL     1      -1.941   0.475  24.320  0.00  0.00    +0.072 A 
ATOM     12  N   UNL     1      -2.086  -0.332  24.413  0.00  0.00    -0.320 N 
ATOM     20  C   UNL     1      -2.867  -0.423  24.665  0.00  0.00    +0.060 A 
ATOM     21  C   UNL     1      -3.204   0.327  24.727  0.00  0.00    +0.011 A 
ATOM     22  C   UNL     1      -3.983   0.456  24.965  0.00  0.00    -0.005 A 
ATOM     23  C   UNL     1      -4.435  -0.262  25.150  0.00  0.00    -0.003 A 
ATOM     24  C   UNL     1      -4.098  -1.012  25.088  0.00  0.00    +0.001 A 
ATOM     25  C   UNL     1      -3.314  -1.093  24.845  0.00  0.00    +0.017 A 
ATOM     26  C   UNL     1      -4.382   1.173  25.049  0.00  0.00    +0.095 C 
ATOM     31  N   UNL     1      -4.102   1.938  24.916  0.00  0.00    -0.207 NA
ENDROOT
BRANCH   8   6
ATOM      5  N   UNL     1      -2.760   3.395  25.113  0.00  0.00    -0.202 NA
ATOM      6  C   UNL     1      -3.242   2.987  24.583  0.00  0.00    +0.258 C 
ATOM      7  O   UNL     1      -3.616   3.393  23.970  0.00  0.00    -0.272 OA
BRANCH   5   4
ATOM      4  C   UNL     1      -2.650   4.208  25.030  0.00  0.00    +0.147 C 
BRANCH   4   3
ATOM      3  C   UNL     1      -2.047   4.588  25.445  0.00  0.00    +0.166 C 
BRANCH   3   2
ATOM      1  C   UNL     1      -0.917   5.325  24.973  0.00  0.00    +0.174 C 
ATOM      2  O   UNL     1      -1.721   5.287  25.153  0.00  0.00    -0.349 OA
ENDBRANCH   3   2
ENDBRANCH   4   3
ENDBRANCH   5   4
ENDBRANCH   8   6
BRANCH  12  13
ATOM     13  C   UNL     1      -1.546  -0.941  24.278  0.00  0.00    +0.155 C 
BRANCH  13  14
ATOM     14  C   UNL     1      -0.749  -0.765  24.156  0.00  0.00    +0.123 A 
ATOM     15  N   UNL     1      -0.170  -0.707  24.741  0.00  0.00    -0.080 NA
ATOM     16  O   UNL     1       0.545  -0.523  24.374  0.00  0.00    -0.358 OA
ATOM     17  C   UNL     1       0.409  -0.467  23.562  0.00  0.00    +0.155 A 
ATOM     18  C   UNL     1       0.973  -0.292  22.986  0.00  0.00    +0.075 C 
ATOM     19  C   UNL     1      -0.392  -0.617  23.427  0.00  0.00    +0.056 A 
ENDBRANCH  13  14
ENDBRANCH  12  13
BRANCH  26  27
ATOM     27  C   UNL     1      -5.167   1.118  25.300  0.00  0.00    +0.022 C 
BRANCH  27  28
ATOM     28  C   UNL     1      -5.633   1.797  25.347  0.00  0.00    +0.002 C 
ATOM     29  C   UNL     1      -5.662   2.230  26.048  0.00  0.00    +0.000 C 
ATOM     30  C   UNL     1      -6.071   2.042  24.692  0.00  0.00    +0.000 C 
ENDBRANCH  27  28
ENDBRANCH  26  27
TORSDOF 8
ENDMDL
MODEL 7
REMARK VINA RESULT:      -9.7      1.807      3.680
REMARK  Name = 
REMARK  8 active torsions:
REMARK  status: ('A' for Active; 'I' for Inactive)
REMARK    1  A    between atoms: O_2  and  C_3
REMARK    2  A    between atoms: C_3  and  C_4
REMARK    3  A    between atoms: C_4  and  N_5
REMARK    4  A    between atoms: C_6  and  C_8
REMARK    5  A    between atoms: N_12  and  C_13
REMARK    6  A    between atoms: C_13  and  C_14
REMARK    7  A    between atoms: C_26  and  C_27
REMARK    8  A    between atoms: C_27  and  C_28
REMARK                            x       y       z     vdW  Elec       q    Type
REMARK                         _______ _______ _______ _____ _____    ______ ____
ROOT
ATOM      8  C   UNL     1      -3.462   0.044  24.568  0.00  0.00    +0.155 C 
ATOM      9  C   UNL     1      -2.930   0.674  24.572  0.00  0.00    +0.055 C 
ATOM     10  C   UNL     1      -2.105   0.651  24.578  0.00  0.00    -0.002 A 
ATOM     11  C   UNL     1      -1.631   1.327  24.581  0.00  0.00    +0.072 A 
ATOM     12  N   UNL     1      -0.843   1.085  24.587  0.00  0.00    -0.320 N 
ATOM     20  C   UNL     1      -0.829   0.260  24.587  0.00  0.00    +0.060 A 
ATOM     21  C   UNL     1      -1.609  -0.008  24.581  0.00  0.00    +0.011 A 
ATOM     22  C   UNL     1      -1.814  -0.806  24.580  0.00  0.00    -0.005 A 
ATOM     23  C   UNL     1      -1.144  -1.359  24.585  0.00  0.00    -0.003 A 
ATOM     24  C   UNL     1      -0.364  -1.091  24.591  0.00  0.00    +0.001 A 
ATOM     25  C   UNL     1      -0.206  -0.281  24.592  0.00  0.00    +0.017 A 
ATOM     26  C   UNL     1      -2.568  -1.144  24.574  0.00  0.00    +0.095 C 
ATOM     31  N   UNL     1      -3.301  -0.765  24.569  0.00  0.00    -0.207 NA
ENDROOT
BRANCH   8   6
ATOM      5  N   UNL     1      -4.548   0.807  25.097  0.00  0.00    -0.202 NA
ATOM      6  C   UNL     1      -4.261   0.250  24.562  0.00  0.00    +0.258 C 
ATOM      7  O   UNL     1      -4.773  -0.103  24.019  0.00  0.00    -0.272 OA
BRANCH   5   4
ATOM      4  C   UNL     1      -5.347   1.012  25.091  0.00  0.00    +0.147 C 
BRANCH   4   3
ATOM      3  C   UNL     1      -5.625   1.604  25.593  0.00  0.00    +0.166 C 
BRANCH   3   2
ATOM      1  C   UNL     1      -5.877   3.006  25.701  0.00  0.00    +0.174 C 
ATOM      2  O   UNL     1      -5.936   2.301  25.279  0.00  0.00    -0.349 OA
ENDBRANCH   3   2
ENDBRANCH   4   3
ENDBRANCH   5   4
ENDBRANCH   8   6
BRANCH  12  13
ATOM     13  C   UNL     1      -0.184   1.581  24.592  0.00  0.00    +0.155 C 
BRANCH  13  14
ATOM     14  C   UNL     1      -0.238   2.336  24.921  0.00  0.00    +0.123 A 
ATOM     15  N   UNL     1      -0.124   2.528  25.715  0.00  0.00    -0.080 NA
ATOM     16  O   UNL     1      -0.232   3.342  25.798  0.00  0.00    -0.358 OA
ATOM     17  C   UNL     1      -0.412   3.653  25.055  0.00  0.00    +0.155 A 
ATOM     18  C   UNL     1      -0.561   4.446  24.884  0.00  0.00    +0.075 C 
ATOM     19  C   UNL     1      -0.416   3.031  24.513  0.00  0.00    +0.056 A 
ENDBRANCH  13  14
ENDBRANCH  12  13
BRANCH  26  27
ATOM     27  C   UNL     1      -2.590  -1.969  24.574  0.00  0.00    +0.022 C 
BRANCH  27  28
ATOM     28  C   UNL     1      -3.242  -2.363  24.889  0.00  0.00    +0.002 C 
ATOM     29  C   UNL     1      -3.343  -2.408  25.706  0.00  0.00    +0.000 C 
ATOM     30  C   UNL     1      -3.795  -2.713  24.386  0.00  0.00    +0.000 C 
ENDBRANCH  27  28
ENDBRANCH  26  27
TORSDOF 8
ENDMDL
MODEL 8
REMARK VINA RESULT:      -9.7      1.847      3.657
REMARK  Name = 
REMARK  8 active torsions:
REMARK  status: ('A' for Active; 'I' for Inactive)
REMARK    1  A    between atoms: O_2  and  C_3
REMARK    2  A    between atoms: C_3  and  C_4
REMARK    3  A    between atoms: C_4  and  N_5
REMARK    4  A    between atoms: C_6  and  C_8
REMARK    5  A    between atoms: N_12  and  C_13
REMARK    6  A    between atoms: C_13  and  C_14
REMARK    7  A    between atoms: C_26  and  C_27
REMARK    8  A    between atoms: C_27  and  C_28
REMARK                            x       y       z     vdW  Elec       q    Type
REMARK                         _______ _______ _______ _____ _____    ______ ____
ROOT
ATOM      8  C   UNL     1      -1.662   1.412  24.571  0.00  0.00    +0.155 C 
ATOM      9  C   UNL     1      -2.476   1.519  24.508  0.00  0.00    +0.055 C 
ATOM     10  C   UNL     1      -2.931   2.165  24.747  0.00  0.00    -0.002 A 
ATOM     11  C   UNL     1      -3.750   2.205  24.653  0.00  0.00    +0.072 A 
ATOM     12  N   UNL     1      -4.006   2.928  24.956  0.00  0.00    -0.320 N 
ATOM     20  C   UNL     1      -3.345   3.335  25.238  0.00  0.00    +0.060 A 
ATOM     21  C   UNL     1      -2.682   2.863  25.109  0.00  0.00    +0.011 A 
ATOM     22  C   UNL     1      -1.917   3.088  25.320  0.00  0.00    -0.005 A 
ATOM     23  C   UNL     1      -1.854   3.870  25.695  0.00  0.00    -0.003 A 
ATOM     24  C   UNL     1      -2.518   4.341  25.824  0.00  0.00    +0.001 A 
ATOM     25  C   UNL     1      -3.264   4.074  25.595  0.00  0.00    +0.017 A 
ATOM     26  C   UNL     1      -1.212   2.670  25.222  0.00  0.00    +0.095 C 
ATOM     31  N   UNL     1      -1.098   1.924  24.889  0.00  0.00    -0.207 NA
ENDROOT
BRANCH   8   6
ATOM      5  N   UNL     1      -1.490  -0.001  24.696  0.00  0.00    -0.202 NA
ATOM      6  C   UNL     1      -1.370   0.698  24.277  0.00  0.00    +0.258 C 
ATOM      7  O   UNL     1      -0.957   0.685  23.563  0.00  0.00    -0.272 OA
BRANCH   5   4
ATOM      4  C   UNL     1      -1.198  -0.715  24.402  0.00  0.00    +0.147 C 
BRANCH   4   3
ATOM      3  C   UNL     1      -1.362  -1.421  24.795  0.00  0.00    +0.166 C 
BRANCH   3   2
ATOM      1  C   UNL     1      -1.980  -2.676  24.501  0.00  0.00    +0.174 C 
ATOM      2  O   UNL     1      -1.371  -2.133  24.378  0.00  0.00    -0.349 OA
ENDBRANCH   3   2
ENDBRANCH   4   3
ENDBRANCH   5   4
ENDBRANCH   8   6
BRANCH  12  13
ATOM     13  C   UNL     1      -4.786   3.197  24.974  0.00  0.00    +0.155 C 
BRANCH  13  14
ATOM     14  C   UNL     1      -5.393   2.687  25.203  0.00  0.00    +0.123 A 
ATOM     15  N   UNL     1      -5.844   2.213  24.699  0.00  0.00    -0.080 NA
ATOM     16  O   UNL     1      -6.385   1.795  25.160  0.00  0.00    -0.358 OA
ATOM     17  C   UNL     1      -6.269   2.010  25.949  0.00  0.00    +0.155 A 
ATOM     18  C   UNL     1      -6.692   1.724  26.597  0.00  0.00    +0.075 C 
ATOM     19  C   UNL     1      -5.655   2.561  25.974  0.00  0.00    +0.056 A 
ENDBRANCH  13  14
ENDBRANCH  12  13
BRANCH  26  27
ATOM     27  C   UNL     1      -0.531   3.049  25.494  0.00  0.00    +0.022 C 
BRANCH  27  28
ATOM     28  C   UNL     1       0.080   2.608  25.828  0.00  0.00    +0.002 C 
ATOM     29  C   UNL     1       0.044   2.385  26.621  0.00  0.00    +0.000 C 
ATOM     30  C   UNL     1       0.730   2.390  25.368  0.00  0.00    +0.000 C 
ENDBRANCH  27  28
ENDBRANCH  26  27
TORSDOF 8
ENDMDL
