MODEL 1
REMARK VINA RESULT:     -10.8      0.000      0.000
REMARK  Name = 
REMARK  3 active torsions:
REMARK  status: ('A' for Active; 'I' for Inactive)
REMARK    1  A    between atoms: C_4  and  C_17
REMARK    2  A    between atoms: C_5  and  N_6
REMARK    3  A    between atoms: C_7  and  C_9
REMARK                            x       y       z     vdW  Elec       q    Type
REMARK                         _______ _______ _______ _____ _____    ______ ____
ROOT
ATOM      1  O   UNL     1      -5.524   2.854  25.456  0.00  0.00    -0.220 OA
ATOM      2  C   UNL     1      -4.967   2.373  25.081  0.00  0.00    +0.184 C 
ATOM      3  C   UNL     1      -4.265   2.628  24.731  0.00  0.00    +0.042 C 
ATOM      4  C   UNL     1      -3.879   1.966  24.425  0.00  0.00    +0.049 C 
ATOM      5  C   UNL     1      -4.342   1.302  24.586  0.00  0.00    +0.132 C 
ATOM     15  C   UNL     1      -5.015   1.554  24.992  0.00  0.00    +0.202 C 
ATOM     16  O   UNL     1      -5.628   1.071  25.261  0.00  0.00    -0.219 OA
ENDROOT
BRANCH   4  17
ATOM     17  C   UNL     1      -3.156   1.967  24.027  0.00  0.00    -0.002 A 
ATOM     18  C   UNL     1      -3.139   1.943  23.203  0.00  0.00    -0.001 A 
ATOM     19  C   UNL     1      -2.416   1.944  22.805  0.00  0.00    +0.020 A 
ATOM     20  C   UNL     1      -1.711   1.969  23.231  0.00  0.00    +0.099 A 
ATOM     21  N   UNL     1      -1.727   1.993  24.056  0.00  0.00    -0.243 NA
ATOM     22  C   UNL     1      -2.451   1.992  24.454  0.00  0.00    +0.095 A 
ENDBRANCH   4  17
BRANCH   5   6
ATOM      6  N   UNL     1      -4.164   0.524  24.378  0.00  0.00    -0.204 NA
ATOM      7  C   UNL     1      -4.191  -0.071  24.949  0.00  0.00    +0.241 C 
ATOM      8  O   UNL     1      -4.395   0.111  25.726  0.00  0.00    -0.273 OA
BRANCH   7   9
ATOM      9  C   UNL     1      -4.012  -0.850  24.740  0.00  0.00    +0.083 C 
ATOM     10  C   UNL     1      -4.355  -1.186  24.070  0.00  0.00    +0.041 C 
ATOM     11  C   UNL     1      -4.177  -1.965  23.862  0.00  0.00    +0.143 C 
ATOM     12  O   UNL     1      -3.656  -2.406  24.325  0.00  0.00    -0.354 OA
ATOM     13  C   UNL     1      -3.313  -2.070  24.996  0.00  0.00    +0.143 C 
ATOM     14  C   UNL     1      -3.491  -1.292  25.203  0.00  0.00    +0.041 C 
ENDBRANCH   7   9
ENDBRANCH   5   6
TORSDOF 3
ENDMDL
MODEL 2
REMARK VINA RESULT:     -10.4      1.664      3.276
REMARK  Name = 
REMARK  3 active torsions:
REMARK  status: ('A' for Active; 'I' for Inactive)
REMARK    1  A    between atoms: C_4  and  C_17
REMARK    2  A    between atoms: C_5  and  N_6
REMARK    3  A    between atoms: C_7  and  C_9
REMARK                            x       y       z     vdW  Elec       q    Type
REMARK                         _______ _______ _______ _____ _____    ______ ____
ROOT
ATOM      1  O   UNL     1      -5.594   2.000  24.829  0.00  0.00    -0.220 OA
ATOM      2  C   UNL     1      -4.950   1.483  24.855  0.00  0.00    +0.184 C 
ATOM      3  C   UNL     1      -4.990   0.660  24.840  0.00  0.00    +0.042 C 
ATOM      4  C   UNL     1      -4.219   0.368  24.876  0.00  0.00    +0.049 C 
ATOM      5  C   UNL     1      -3.704   1.011  24.914  0.00  0.00    +0.132 C 
ATOM     15  C   UNL     1      -4.156   1.701  24.901  0.00  0.00    +0.202 C 
ATOM     16  O   UNL     1      -3.864   2.473  24.928  0.00  0.00    -0.219 OA
ENDROOT
BRANCH   4  17
ATOM     17  C   UNL     1      -4.001  -0.428  24.875  0.00  0.00    -0.002 A 
ATOM     18  C   UNL     1      -4.047  -0.866  24.178  0.00  0.00    -0.001 A 
ATOM     19  C   UNL     1      -3.829  -1.663  24.177  0.00  0.00    +0.020 A 
ATOM     20  C   UNL     1      -3.566  -2.019  24.872  0.00  0.00    +0.099 A 
ATOM     21  N   UNL     1      -3.520  -1.580  25.570  0.00  0.00    -0.243 NA
ATOM     22  C   UNL     1      -3.738  -0.784  25.571  0.00  0.00    +0.095 A 
ENDBRANCH   4  17
BRANCH   5   6
ATOM      6  N   UNL     1      -2.880   0.971  24.957  0.00  0.00    -0.204 NA
ATOM      7  C   UNL     1      -2.419   1.411  24.433  0.00  0.00    +0.241 C 
ATOM      8  O   UNL     1      -2.779   1.890  23.867  0.00  0.00    -0.273 OA
BRANCH   7   9
ATOM      9  C   UNL     1      -1.596   1.371  24.476  0.00  0.00    +0.083 C 
ATOM     10  C   UNL     1      -1.204   1.651  25.145  0.00  0.00    +0.041 C 
ATOM     11  C   UNL     1      -0.380   1.611  25.188  0.00  0.00    +0.143 C 
ATOM     12  O   UNL     1       0.050   1.291  24.562  0.00  0.00    -0.354 OA
ATOM     13  C   UNL     1      -0.342   1.011  23.892  0.00  0.00    +0.143 C 
ATOM     14  C   UNL     1      -1.165   1.051  23.849  0.00  0.00    +0.041 C 
ENDBRANCH   7   9
ENDBRANCH   5   6
TORSDOF 3
ENDMDL
MODEL 3
REMARK VINA RESULT:     -10.1      1.499      2.453
REMARK  Name = 
REMARK  3 active torsions:
REMARK  status: ('A' for Active; 'I' for Inactive)
REMARK    1  A    between atoms: C_4  and  C_17
REMARK    2  A    between atoms: C_5  and  N_6
REMARK    3  A    between atoms: C_7  and  C_9
REMARK                            x       y       z     vdW  Elec       q    Type
REMARK                         _______ _______ _______ _____ _____    ______ ____
ROOT
ATOM      1  O   UNL     1      -2.806   3.127  22.976  0.00  0.00    -0.220 OA
ATOM      2  C   UNL     1      -3.282   2.646  23.449  0.00  0.00    +0.184 C 
ATOM      3  C   UNL     1      -3.896   2.901  23.936  0.00  0.00    +0.042 C 
ATOM      4  C   UNL     1      -4.221   2.238  24.305  0.00  0.00    +0.049 C 
ATOM      5  C   UNL     1      -3.806   1.573  24.046  0.00  0.00    +0.132 C 
ATOM     15  C   UNL     1      -3.225   1.826  23.516  0.00  0.00    +0.202 C 
ATOM     16  O   UNL     1      -2.685   1.342  23.124  0.00  0.00    -0.219 OA
ENDROOT
BRANCH   4  17
ATOM     17  C   UNL     1      -4.850   2.239  24.840  0.00  0.00    -0.002 A 
ATOM     18  C   UNL     1      -5.581   1.931  24.615  0.00  0.00    -0.001 A 
ATOM     19  C   UNL     1      -6.210   1.933  25.150  0.00  0.00    +0.020 A 
ATOM     20  C   UNL     1      -6.107   2.241  25.907  0.00  0.00    +0.099 A 
ATOM     21  N   UNL     1      -5.375   2.549  26.132  0.00  0.00    -0.243 NA
ATOM     22  C   UNL     1      -4.746   2.548  25.597  0.00  0.00    +0.095 A 
ENDBRANCH   4  17
BRANCH   5   6
ATOM      6  N   UNL     1      -3.948   0.793  24.276  0.00  0.00    -0.204 NA
ATOM      7  C   UNL     1      -3.321   0.317  24.521  0.00  0.00    +0.241 C 
ATOM      8  O   UNL     1      -2.554   0.618  24.536  0.00  0.00    -0.273 OA
BRANCH   7   9
ATOM      9  C   UNL     1      -3.462  -0.463  24.751  0.00  0.00    +0.083 C 
ATOM     10  C   UNL     1      -3.793  -0.997  24.217  0.00  0.00    +0.041 C 
ATOM     11  C   UNL     1      -3.935  -1.777  24.447  0.00  0.00    +0.143 C 
ATOM     12  O   UNL     1      -3.745  -2.023  25.211  0.00  0.00    -0.354 OA
ATOM     13  C   UNL     1      -3.414  -1.488  25.746  0.00  0.00    +0.143 C 
ATOM     14  C   UNL     1      -3.273  -0.709  25.515  0.00  0.00    +0.041 C 
ENDBRANCH   7   9
ENDBRANCH   5   6
TORSDOF 3
ENDMDL
MODEL 4
REMARK VINA RESULT:     -10.0      2.092      3.874
REMARK  Name = 
REMARK  3 active torsions:
REMARK  status: ('A' for Active; 'I' for Inactive)
REMARK    1  A    between atoms: C_4  and  C_17
REMARK    2  A    between atoms: C_5  and  N_6
REMARK    3  A    between atoms: C_7  and  C_9
REMARK                            x       y       z     vdW  Elec       q    Type
REMARK                         _______ _______ _______ _____ _____    ______ ____
ROOT
ATOM      1  O   UNL     1      -6.119   3.206  25.758  0.00  0.00    -0.220 OA
ATOM      2  C   UNL     1      -5.383   2.964  25.471  0.00  0.00    +0.184 C 
ATOM      3  C   UNL     1      -5.204   2.220  25.165  0.00  0.00    +0.042 C 
ATOM      4  C   UNL     1      -4.408   2.221  24.944  0.00  0.00    +0.049 C 
ATOM      5  C   UNL     1      -4.097   2.966  25.114  0.00  0.00    +0.132 C 
ATOM     15  C   UNL     1      -4.700   3.426  25.440  0.00  0.00    +0.202 C 
ATOM     16  O   UNL     1      -4.631   4.209  25.690  0.00  0.00    -0.219 OA
ENDROOT
BRANCH   4  17
ATOM     17  C   UNL     1      -3.996   1.588  24.612  0.00  0.00    -0.002 A 
ATOM     18  C   UNL     1      -3.831   0.920  25.067  0.00  0.00    -0.001 A 
ATOM     19  C   UNL     1      -3.419   0.287  24.734  0.00  0.00    +0.020 A 
ATOM     20  C   UNL     1      -3.173   0.322  23.948  0.00  0.00    +0.099 A 
ATOM     21  N   UNL     1      -3.339   0.990  23.493  0.00  0.00    -0.243 NA
ATOM     22  C   UNL     1      -3.751   1.623  23.825  0.00  0.00    +0.095 A 
ENDBRANCH   4  17
BRANCH   5   6
ATOM      6  N   UNL     1      -3.319   3.208  24.982  0.00  0.00    -0.204 NA
ATOM      7  C   UNL     1      -2.895   3.576  25.585  0.00  0.00    +0.241 C 
ATOM      8  O   UNL     1      -3.246   3.702  26.321  0.00  0.00    -0.273 OA
BRANCH   7   9
ATOM      9  C   UNL     1      -2.117   3.818  25.453  0.00  0.00    +0.083 C 
ATOM     10  C   UNL     1      -1.491   3.309  25.623  0.00  0.00    +0.041 C 
ATOM     11  C   UNL     1      -0.714   3.552  25.490  0.00  0.00    +0.143 C 
ATOM     12  O   UNL     1      -0.562   4.304  25.188  0.00  0.00    -0.354 OA
ATOM     13  C   UNL     1      -1.188   4.814  25.018  0.00  0.00    +0.143 C 
ATOM     14  C   UNL     1      -1.965   4.571  25.151  0.00  0.00    +0.041 C 
ENDBRANCH   7   9
ENDBRANCH   5   6
TORSDOF 3
ENDMDL
