MODEL 1
REMARK VINA RESULT:     -13.8      0.000      0.000
REMARK  Name = 
REMARK  7 active torsions:
REMARK  status: ('A' for Active; 'I' for Inactive)
REMARK    1  A    between atoms: C_2  and  C_3
REMARK    2  A    between atoms: C_2  and  C_25
REMARK    3  A    between atoms: C_10  and  N_11
REMARK    4  A    between atoms: C_12  and  C_14
REMARK    5  A    between atoms: N_27  and  C_28
REMARK    6  A    between atoms: C_28  and  C_29
REMARK    7  A    between atoms: C_29  and  N_30
REMARK                            x       y       z     vdW  Elec       q    Type
REMARK                         _______ _______ _______ _____ _____    ______ ____
ROOT
ATOM      3  C   UNL     1      -4.058   3.259  24.737  0.00  0.00    +0.039 C 
ATOM      4  C   UNL     1      -4.702   3.355  25.246  0.00  0.00    +0.003 C 
ATOM      5  C   UNL     1      -5.148   2.700  25.472  0.00  0.00    +0.000 C 
ATOM      6  C   UNL     1      -4.953   1.950  25.191  0.00  0.00    +0.002 C 
ATOM      7  C   UNL     1      -5.595   2.045  25.699  0.00  0.00    +0.000 C 
ATOM      8  C   UNL     1      -5.400   1.294  25.418  0.00  0.00    +0.002 C 
ATOM      9  C   UNL     1      -5.205   0.543  25.137  0.00  0.00    +0.022 C 
ATOM     10  C   UNL     1      -4.561   0.448  24.628  0.00  0.00    +0.096 C 
ATOM     20  C   UNL     1      -4.115   1.104  24.401  0.00  0.00    +0.022 C 
ATOM     21  C   UNL     1      -3.472   1.009  23.893  0.00  0.00    +0.002 C 
ATOM     22  C   UNL     1      -4.310   1.855  24.682  0.00  0.00    +0.032 C 
ATOM     23  C   UNL     1      -3.863   2.509  24.456  0.00  0.00    +0.152 C 
ATOM     24  O   UNL     1      -3.220   2.414  23.947  0.00  0.00    -0.223 OA
ENDROOT
BRANCH  10  11
ATOM     11  N   UNL     1      -4.366  -0.302  24.346  0.00  0.00    -0.203 NA
ATOM     12  C   UNL     1      -4.149  -0.897  24.874  0.00  0.00    +0.265 C 
ATOM     13  O   UNL     1      -4.126  -0.741  25.685  0.00  0.00    -0.268 OA
BRANCH  12  14
ATOM     14  C   UNL     1      -3.953  -1.647  24.593  0.00  0.00    +0.055 A 
ATOM     15  C   UNL     1      -4.341  -1.956  23.934  0.00  0.00    +0.005 A 
ATOM     16  C   UNL     1      -4.145  -2.706  23.653  0.00  0.00    +0.000 A 
ATOM     17  C   UNL     1      -3.561  -3.149  24.032  0.00  0.00    +0.000 A 
ATOM     18  C   UNL     1      -3.173  -2.841  24.692  0.00  0.00    +0.000 A 
ATOM     19  C   UNL     1      -3.369  -2.090  24.972  0.00  0.00    +0.005 A 
ENDBRANCH  12  14
ENDBRANCH  10  11
BRANCH   3   2
ATOM      1  C   UNL     1      -3.793   4.316  23.812  0.00  0.00    +0.010 C 
ATOM      2  C   UNL     1      -3.611   3.915  24.510  0.00  0.00    +0.081 C 
BRANCH   2  25
ATOM     25  C   UNL     1      -2.984   4.170  24.980  0.00  0.00    +0.241 C 
ATOM     26  O   UNL     1      -3.133   4.590  25.676  0.00  0.00    -0.273 OA
ATOM     27  N   UNL     1      -2.207   4.006  24.757  0.00  0.00    -0.204 NA
BRANCH  27  28
ATOM     28  C   UNL     1      -1.579   4.260  25.227  0.00  0.00    +0.132 C 
BRANCH  28  29
ATOM     29  C   UNL     1      -0.802   4.159  24.970  0.00  0.00    +0.096 C 
BRANCH  29  30
ATOM     30  N   UNL     1      -0.390   3.470  25.162  0.00  0.00    -0.267 NA
ATOM     31  C   UNL     1      -0.091   2.988  24.563  0.00  0.00    +0.105 C 
ATOM     32  C   UNL     1       0.320   2.300  24.754  0.00  0.00    +0.159 C 
ATOM     33  O   UNL     1       0.434   2.093  25.546  0.00  0.00    -0.351 OA
ATOM     34  C   UNL     1       0.135   2.575  26.144  0.00  0.00    +0.159 C 
ATOM     35  C   UNL     1      -0.277   3.264  25.953  0.00  0.00    +0.105 C 
ENDBRANCH  29  30
ENDBRANCH  28  29
ENDBRANCH  27  28
ENDBRANCH   2  25
ENDBRANCH   3   2
TORSDOF 7
ENDMDL
MODEL 2
REMARK VINA RESULT:     -12.8      2.482      4.702
REMARK  Name = 
REMARK  7 active torsions:
REMARK  status: ('A' for Active; 'I' for Inactive)
REMARK    1  A    between atoms: C_2  and  C_3
REMARK    2  A    between atoms: C_2  and  C_25
REMARK    3  A    between atoms: C_10  and  N_11
REMARK    4  A    between atoms: C_12  and  C_14
REMARK    5  A    between atoms: N_27  and  C_28
REMARK    6  A    between atoms: C_28  and  C_29
REMARK    7  A    between atoms: C_29  and  N_30
REMARK                            x       y       z     vdW  Elec       q    Type
REMARK                         _______ _______ _______ _____ _____    ______ ____
ROOT
ATOM      3  C   UNL     1      -1.791  -1.212  24.763  0.00  0.00    +0.039 C 
ATOM      4  C   UNL     1      -2.281  -1.777  24.412  0.00  0.00    +0.003 C 
ATOM      5  C   UNL     1      -3.086  -1.625  24.322  0.00  0.00    +0.000 C 
ATOM      6  C   UNL     1      -3.402  -0.910  24.581  0.00  0.00    +0.002 C 
ATOM      7  C   UNL     1      -3.891  -1.473  24.231  0.00  0.00    +0.000 C 
ATOM      8  C   UNL     1      -4.208  -0.757  24.490  0.00  0.00    +0.002 C 
ATOM      9  C   UNL     1      -4.526  -0.041  24.750  0.00  0.00    +0.022 C 
ATOM     10  C   UNL     1      -4.036   0.524  25.101  0.00  0.00    +0.096 C 
ATOM     20  C   UNL     1      -3.230   0.371  25.192  0.00  0.00    +0.022 C 
ATOM     21  C   UNL     1      -2.741   0.935  25.542  0.00  0.00    +0.002 C 
ATOM     22  C   UNL     1      -2.913  -0.345  24.932  0.00  0.00    +0.032 C 
ATOM     23  C   UNL     1      -2.108  -0.497  25.023  0.00  0.00    +0.152 C 
ATOM     24  O   UNL     1      -1.618   0.067  25.374  0.00  0.00    -0.223 OA
ENDROOT
BRANCH  10  11
ATOM     11  N   UNL     1      -4.353   1.239  25.361  0.00  0.00    -0.203 NA
ATOM     12  C   UNL     1      -4.742   1.735  24.829  0.00  0.00    +0.265 C 
ATOM     13  O   UNL     1      -4.814   1.515  24.036  0.00  0.00    -0.268 OA
BRANCH  12  14
ATOM     14  C   UNL     1      -5.059   2.451  25.089  0.00  0.00    +0.055 A 
ATOM     15  C   UNL     1      -4.658   3.157  24.943  0.00  0.00    +0.005 A 
ATOM     16  C   UNL     1      -4.975   3.873  25.202  0.00  0.00    +0.000 A 
ATOM     17  C   UNL     1      -5.694   3.883  25.608  0.00  0.00    +0.000 A 
ATOM     18  C   UNL     1      -6.095   3.177  25.753  0.00  0.00    +0.000 A 
ATOM     19  C   UNL     1      -5.777   2.461  25.494  0.00  0.00    +0.005 A 
ENDBRANCH  12  14
ENDBRANCH  10  11
BRANCH   3   2
ATOM      1  C   UNL     1      -0.684  -1.559  25.597  0.00  0.00    +0.010 C 
ATOM      2  C   UNL     1      -0.985  -1.365  24.854  0.00  0.00    +0.081 C 
BRANCH   2  25
ATOM     25  C   UNL     1      -0.481  -1.324  24.203  0.00  0.00    +0.241 C 
ATOM     26  O   UNL     1      -0.477  -1.932  23.645  0.00  0.00    -0.273 OA
ATOM     27  N   UNL     1       0.020  -0.674  24.108  0.00  0.00    -0.204 NA
BRANCH  27  28
ATOM     28  C   UNL     1       0.523  -0.633  23.457  0.00  0.00    +0.132 C 
BRANCH  28  29
ATOM     29  C   UNL     1       0.832   0.094  23.219  0.00  0.00    +0.096 C 
BRANCH  29  30
ATOM     30  N   UNL     1       1.558   0.127  22.830  0.00  0.00    -0.267 NA
ATOM     31  C   UNL     1       1.644  -0.219  22.086  0.00  0.00    +0.105 C 
ATOM     32  C   UNL     1       2.370  -0.187  21.696  0.00  0.00    +0.159 C 
ATOM     33  O   UNL     1       3.012   0.194  22.051  0.00  0.00    -0.351 OA
ATOM     34  C   UNL     1       2.926   0.540  22.794  0.00  0.00    +0.159 C 
ATOM     35  C   UNL     1       2.200   0.507  23.184  0.00  0.00    +0.105 C 
ENDBRANCH  29  30
ENDBRANCH  28  29
ENDBRANCH  27  28
ENDBRANCH   2  25
ENDBRANCH   3   2
TORSDOF 7
ENDMDL
MODEL 3
REMARK VINA RESULT:     -12.3      3.223      4.987
REMARK  Name = 
REMARK  7 active torsions:
REMARK  status: ('A' for Active; 'I' for Inactive)
REMARK    1  A    between atoms: C_2  and  C_3
REMARK    2  A    between atoms: C_2  and  C_25
REMARK    3  A    between atoms: C_10  and  N_11
REMARK    4  A    between atoms: C_12  and  C_14
REMARK    5  A    between atoms: N_27  and  C_28
REMARK    6  A    between atoms: C_28  and  C_29
REMARK    7  A    between atoms: C_29  and  N_30
REMARK                            x       y       z     vdW  Elec       q    Type
REMARK                         _______ _______ _______ _____ _____    ______ ____
ROOT
ATOM      3  C   UNL     1       0.038  -0.039  23.601  0.00  0.00    +0.039 C 
ATOM      4  C   UNL     1       0.116  -0.637  24.166  0.00  0.00    +0.003 C 
ATOM      5  C   UNL     1      -0.451  -0.720  24.759  0.00  0.00    +0.000 C 
ATOM      6  C   UNL     1      -1.095  -0.207  24.789  0.00  0.00    +0.002 C 
ATOM      7  C   UNL     1      -1.017  -0.803  25.352  0.00  0.00    +0.000 C 
ATOM      8  C   UNL     1      -1.663  -0.290  25.382  0.00  0.00    +0.002 C 
ATOM      9  C   UNL     1      -2.308   0.223  25.412  0.00  0.00    +0.022 C 
ATOM     10  C   UNL     1      -2.386   0.821  24.847  0.00  0.00    +0.096 C 
ATOM     20  C   UNL     1      -1.819   0.904  24.254  0.00  0.00    +0.022 C 
ATOM     21  C   UNL     1      -1.897   1.501  23.690  0.00  0.00    +0.002 C 
ATOM     22  C   UNL     1      -1.174   0.391  24.224  0.00  0.00    +0.032 C 
ATOM     23  C   UNL     1      -0.607   0.474  23.631  0.00  0.00    +0.152 C 
ATOM     24  O   UNL     1      -0.685   1.071  23.067  0.00  0.00    -0.223 OA
ENDROOT
BRANCH  10  11
ATOM     11  N   UNL     1      -3.031   1.334  24.877  0.00  0.00    -0.203 NA
ATOM     12  C   UNL     1      -3.778   1.046  25.073  0.00  0.00    +0.265 C 
ATOM     13  O   UNL     1      -3.881   0.244  25.240  0.00  0.00    -0.268 OA
BRANCH  12  14
ATOM     14  C   UNL     1      -4.424   1.560  25.103  0.00  0.00    +0.055 A 
ATOM     15  C   UNL     1      -4.326   2.331  25.375  0.00  0.00    +0.005 A 
ATOM     16  C   UNL     1      -4.971   2.844  25.405  0.00  0.00    +0.000 A 
ATOM     17  C   UNL     1      -5.716   2.585  25.162  0.00  0.00    +0.000 A 
ATOM     18  C   UNL     1      -5.814   1.812  24.888  0.00  0.00    +0.000 A 
ATOM     19  C   UNL     1      -5.168   1.300  24.859  0.00  0.00    +0.005 A 
ENDBRANCH  12  14
ENDBRANCH  10  11
BRANCH   3   2
ATOM      1  C   UNL     1       0.425  -0.173  22.233  0.00  0.00    +0.010 C 
ATOM      2  C   UNL     1       0.605   0.044  23.008  0.00  0.00    +0.081 C 
BRANCH   2  25
ATOM     25  C   UNL     1       1.351   0.343  23.189  0.00  0.00    +0.241 C 
ATOM     26  O   UNL     1       1.422   1.023  23.652  0.00  0.00    -0.273 OA
ATOM     27  N   UNL     1       2.028  -0.036  22.909  0.00  0.00    -0.204 NA
BRANCH  27  28
ATOM     28  C   UNL     1       2.775   0.263  23.090  0.00  0.00    +0.132 C 
BRANCH  28  29
ATOM     29  C   UNL     1       3.445  -0.049  22.724  0.00  0.00    +0.096 C 
BRANCH  29  30
ATOM     30  N   UNL     1       4.164  -0.071  23.128  0.00  0.00    -0.267 NA
ATOM     31  C   UNL     1       4.375  -0.744  23.557  0.00  0.00    +0.105 C 
ATOM     32  C   UNL     1       5.093  -0.766  23.961  0.00  0.00    +0.159 C 
ATOM     33  O   UNL     1       5.602  -0.116  23.936  0.00  0.00    -0.351 OA
ATOM     34  C   UNL     1       5.391   0.556  23.507  0.00  0.00    +0.159 C 
ATOM     35  C   UNL     1       4.672   0.579  23.102  0.00  0.00    +0.105 C 
ENDBRANCH  29  30
ENDBRANCH  28  29
ENDBRANCH  27  28
ENDBRANCH   2  25
ENDBRANCH   3   2
TORSDOF 7
ENDMDL
MODEL 4
REMARK VINA RESULT:     -12.1      1.530      4.934
REMARK  Name = 
REMARK  7 active torsions:
REMARK  status: ('A' for Active; 'I' for Inactive)
REMARK    1  A    between atoms: C_2  and  C_3
REMARK    2  A    between atoms: C_2  and  C_25
REMARK    3  A    between atoms: C_10  and  N_11
REMARK    4  A    between atoms: C_12  and  C_14
REMARK    5  A    between atoms: N_27  and  C_28
REMARK    6  A    between atoms: C_28  and  C_29
REMARK    7  A    between atoms: C_29  and  N_30
REMARK                            x       y       z     vdW  Elec       q    Type
REMARK                         _______ _______ _______ _____ _____    ______ ____
ROOT
ATOM      3  C   UNL     1      -4.425   0.307  24.640  0.00  0.00    +0.039 C 
ATOM      4  C   UNL     1      -5.098   0.512  25.073  0.00  0.00    +0.003 C 
ATOM      5  C   UNL     1      -5.196   1.285  25.343  0.00  0.00    +0.000 C 
ATOM      6  C   UNL     1      -4.621   1.853  25.182  0.00  0.00    +0.002 C 
ATOM      7  C   UNL     1      -5.293   2.057  25.614  0.00  0.00    +0.000 C 
ATOM      8  C   UNL     1      -4.718   2.627  25.452  0.00  0.00    +0.002 C 
ATOM      9  C   UNL     1      -4.143   3.197  25.291  0.00  0.00    +0.022 C 
ATOM     10  C   UNL     1      -3.470   2.992  24.858  0.00  0.00    +0.096 C 
ATOM     20  C   UNL     1      -3.373   2.218  24.587  0.00  0.00    +0.022 C 
ATOM     21  C   UNL     1      -2.701   2.014  24.155  0.00  0.00    +0.002 C 
ATOM     22  C   UNL     1      -3.948   1.649  24.749  0.00  0.00    +0.032 C 
ATOM     23  C   UNL     1      -3.851   0.876  24.479  0.00  0.00    +0.152 C 
ATOM     24  O   UNL     1      -3.179   0.672  24.046  0.00  0.00    -0.223 OA
ENDROOT
BRANCH  10  11
ATOM     11  N   UNL     1      -2.895   3.561  24.696  0.00  0.00    -0.203 NA
ATOM     12  C   UNL     1      -2.515   3.950  25.315  0.00  0.00    +0.265 C 
ATOM     13  O   UNL     1      -2.710   3.771  26.097  0.00  0.00    -0.268 OA
BRANCH  12  14
ATOM     14  C   UNL     1      -1.940   4.520  25.154  0.00  0.00    +0.055 A 
ATOM     15  C   UNL     1      -2.146   5.317  25.122  0.00  0.00    +0.005 A 
ATOM     16  C   UNL     1      -1.571   5.887  24.960  0.00  0.00    +0.000 A 
ATOM     17  C   UNL     1      -0.789   5.657  24.831  0.00  0.00    +0.000 A 
ATOM     18  C   UNL     1      -0.582   4.859  24.864  0.00  0.00    +0.000 A 
ATOM     19  C   UNL     1      -1.158   4.290  25.025  0.00  0.00    +0.005 A 
ENDBRANCH  12  14
ENDBRANCH  10  11
BRANCH   3   2
ATOM      1  C   UNL     1      -4.699  -0.709  23.674  0.00  0.00    +0.010 C 
ATOM      2  C   UNL     1      -4.329  -0.466  24.370  0.00  0.00    +0.081 C 
BRANCH   2  25
ATOM     25  C   UNL     1      -3.862  -0.997  24.795  0.00  0.00    +0.241 C 
ATOM     26  O   UNL     1      -4.018  -1.134  25.594  0.00  0.00    -0.273 OA
ATOM     27  N   UNL     1      -3.240  -1.391  24.422  0.00  0.00    -0.204 NA
BRANCH  27  28
ATOM     28  C   UNL     1      -2.774  -1.922  24.847  0.00  0.00    +0.132 C 
BRANCH  28  29
ATOM     29  C   UNL     1      -2.124  -2.280  24.487  0.00  0.00    +0.096 C 
BRANCH  29  30
ATOM     30  N   UNL     1      -1.361  -2.015  24.655  0.00  0.00    -0.267 NA
ATOM     31  C   UNL     1      -1.004  -2.209  25.373  0.00  0.00    +0.105 C 
ATOM     32  C   UNL     1      -0.242  -1.944  25.540  0.00  0.00    +0.159 C 
ATOM     33  O   UNL     1       0.165  -1.484  24.989  0.00  0.00    -0.351 OA
ATOM     34  C   UNL     1      -0.191  -1.290  24.271  0.00  0.00    +0.159 C 
ATOM     35  C   UNL     1      -0.954  -1.555  24.103  0.00  0.00    +0.105 C 
ENDBRANCH  29  30
ENDBRANCH  28  29
ENDBRANCH  27  28
ENDBRANCH   2  25
ENDBRANCH   3   2
TORSDOF 7
ENDMDL
MODEL 5
REMARK VINA RESULT:     -11.2      1.623      3.648
REMARK  Name = 
REMARK  7 active torsions:
REMARK  status: ('A' for Active; 'I' for Inactive)
REMARK    1  A    between atoms: C_2  and  C_3
REMARK    2  A    between atoms: C_2  and  C_25
REMARK    3  A    between atoms: C_10  and  N_11
REMARK    4  A    between atoms: C_12  and  C_14
REMARK    5  A    between atoms: N_27  and  C_28
REMARK    6  A    between atoms: C_28  and  C_29
REMARK    7  A    between atoms: C_29  and  N_30
REMARK                            x       y       z     vdW  Elec       q    Type
REMARK                         _______ _______ _______ _____ _____    ______ ____
ROOT
ATOM      3  C   UNL     1      -0.223   2.041  25.278  0.00  0.00    +0.039 C 
ATOM      4  C   UNL     1       0.307   2.017  24.644  0.00  0.00    +0.003 C 
ATOM      5  C   UNL     1       0.331   1.356  24.153  0.00  0.00    +0.000 C 
ATOM      6  C   UNL     1      -0.172   0.718  24.294  0.00  0.00    +0.002 C 
ATOM      7  C   UNL     1       0.356   0.694  23.662  0.00  0.00    +0.000 C 
ATOM      8  C   UNL     1      -0.148   0.056  23.802  0.00  0.00    +0.002 C 
ATOM      9  C   UNL     1      -0.652  -0.582  23.942  0.00  0.00    +0.022 C 
ATOM     10  C   UNL     1      -1.182  -0.558  24.576  0.00  0.00    +0.096 C 
ATOM     20  C   UNL     1      -1.206   0.104  25.067  0.00  0.00    +0.022 C 
ATOM     21  C   UNL     1      -1.735   0.129  25.700  0.00  0.00    +0.002 C 
ATOM     22  C   UNL     1      -0.702   0.743  24.927  0.00  0.00    +0.032 C 
ATOM     23  C   UNL     1      -0.727   1.404  25.418  0.00  0.00    +0.152 C 
ATOM     24  O   UNL     1      -1.256   1.428  26.051  0.00  0.00    -0.223 OA
ENDROOT
BRANCH  10  11
ATOM     11  N   UNL     1      -1.685  -1.195  24.716  0.00  0.00    -0.203 NA
ATOM     12  C   UNL     1      -2.282  -1.376  24.177  0.00  0.00    +0.265 C 
ATOM     13  O   UNL     1      -2.375  -0.919  23.495  0.00  0.00    -0.268 OA
BRANCH  12  14
ATOM     14  C   UNL     1      -2.787  -2.014  24.317  0.00  0.00    +0.055 A 
ATOM     15  C   UNL     1      -2.490  -2.712  24.639  0.00  0.00    +0.005 A 
ATOM     16  C   UNL     1      -2.994  -3.350  24.780  0.00  0.00    +0.000 A 
ATOM     17  C   UNL     1      -3.796  -3.289  24.597  0.00  0.00    +0.000 A 
ATOM     18  C   UNL     1      -4.094  -2.589  24.274  0.00  0.00    +0.000 A 
ATOM     19  C   UNL     1      -3.589  -1.953  24.134  0.00  0.00    +0.005 A 
ENDBRANCH  12  14
ENDBRANCH  10  11
BRANCH   3   2
ATOM      1  C   UNL     1       0.148   2.695  26.493  0.00  0.00    +0.010 C 
ATOM      2  C   UNL     1      -0.248   2.704  25.769  0.00  0.00    +0.081 C 
BRANCH   2  25
ATOM     25  C   UNL     1      -0.667   3.375  25.537  0.00  0.00    +0.241 C 
ATOM     26  O   UNL     1      -0.299   3.953  25.077  0.00  0.00    -0.273 OA
ATOM     27  N   UNL     1      -1.455   3.469  25.765  0.00  0.00    -0.204 NA
BRANCH  27  28
ATOM     28  C   UNL     1      -1.874   4.140  25.533  0.00  0.00    +0.132 C 
BRANCH  28  29
ATOM     29  C   UNL     1      -2.607   4.307  25.874  0.00  0.00    +0.096 C 
BRANCH  29  30
ATOM     30  N   UNL     1      -3.301   4.061  25.502  0.00  0.00    -0.267 NA
ATOM     31  C   UNL     1      -3.395   4.169  24.690  0.00  0.00    +0.105 C 
ATOM     32  C   UNL     1      -4.089   3.923  24.318  0.00  0.00    +0.159 C 
ATOM     33  O   UNL     1      -4.690   3.567  24.760  0.00  0.00    -0.351 OA
ATOM     34  C   UNL     1      -4.595   3.459  25.572  0.00  0.00    +0.159 C 
ATOM     35  C   UNL     1      -3.901   3.705  25.944  0.00  0.00    +0.105 C 
ENDBRANCH  29  30
ENDBRANCH  28  29
ENDBRANCH  27  28
ENDBRANCH   2  25
ENDBRANCH   3   2
TORSDOF 7
ENDMDL
MODEL 6
REMARK VINA RESULT:     -11.1      1.876      2.709
REMARK  Name = 
REMARK  7 active torsions:
REMARK  status: ('A' for Active; 'I' for Inactive)
REMARK    1  A    between atoms: C_2  and  C_3
REMARK    2  A    between atoms: C_2  and  C_25
REMARK    3  A    between atoms: C_10  and  N_11
REMARK    4  A    between atoms: C_12  and  C_14
REMARK    5  A    between atoms: N_27  and  C_28
REMARK    6  A    between atoms: C_28  and  C_29
REMARK    7  A    between atoms: C_29  and  N_30
REMARK                            x       y       z     vdW  Elec       q    Type
REMARK                         _______ _______ _______ _____ _____    ______ ____
ROOT
ATOM      3  C   UNL     1      -1.360   2.637  25.259  0.00  0.00    +0.039 C 
ATOM      4  C   UNL     1      -2.010   3.145  25.291  0.00  0.00    +0.003 C 
ATOM      5  C   UNL     1      -2.764   2.861  25.114  0.00  0.00    +0.000 C 
ATOM      6  C   UNL     1      -2.868   2.071  24.904  0.00  0.00    +0.002 C 
ATOM      7  C   UNL     1      -3.517   2.577  24.936  0.00  0.00    +0.000 C 
ATOM      8  C   UNL     1      -3.622   1.786  24.726  0.00  0.00    +0.002 C 
ATOM      9  C   UNL     1      -3.727   0.995  24.515  0.00  0.00    +0.022 C 
ATOM     10  C   UNL     1      -3.076   0.487  24.482  0.00  0.00    +0.096 C 
ATOM     20  C   UNL     1      -2.322   0.772  24.660  0.00  0.00    +0.022 C 
ATOM     21  C   UNL     1      -1.672   0.265  24.628  0.00  0.00    +0.002 C 
ATOM     22  C   UNL     1      -2.217   1.563  24.871  0.00  0.00    +0.032 C 
ATOM     23  C   UNL     1      -1.464   1.847  25.048  0.00  0.00    +0.152 C 
ATOM     24  O   UNL     1      -0.814   1.340  25.016  0.00  0.00    -0.223 OA
ENDROOT
BRANCH  10  11
ATOM     11  N   UNL     1      -3.180  -0.303  24.272  0.00  0.00    -0.203 NA
ATOM     12  C   UNL     1      -3.727  -0.768  24.676  0.00  0.00    +0.265 C 
ATOM     13  O   UNL     1      -4.171  -0.443  25.292  0.00  0.00    -0.268 OA
BRANCH  12  14
ATOM     14  C   UNL     1      -3.832  -1.560  24.466  0.00  0.00    +0.055 A 
ATOM     15  C   UNL     1      -4.294  -1.755  23.812  0.00  0.00    +0.005 A 
ATOM     16  C   UNL     1      -4.399  -2.547  23.602  0.00  0.00    +0.000 A 
ATOM     17  C   UNL     1      -4.040  -3.142  24.047  0.00  0.00    +0.000 A 
ATOM     18  C   UNL     1      -3.578  -2.946  24.702  0.00  0.00    +0.000 A 
ATOM     19  C   UNL     1      -3.474  -2.155  24.911  0.00  0.00    +0.005 A 
ENDBRANCH  12  14
ENDBRANCH  10  11
BRANCH   3   2
ATOM      1  C   UNL     1      -0.084   3.114  24.827  0.00  0.00    +0.010 C 
ATOM      2  C   UNL     1      -0.606   2.921  25.436  0.00  0.00    +0.081 C 
BRANCH   2  25
ATOM     25  C   UNL     1      -0.373   3.013  26.222  0.00  0.00    +0.241 C 
ATOM     26  O   UNL     1      -0.850   3.437  26.747  0.00  0.00    -0.273 OA
ATOM     27  N   UNL     1       0.335   2.681  26.485  0.00  0.00    -0.204 NA
BRANCH  27  28
ATOM     28  C   UNL     1       0.567   2.772  27.271  0.00  0.00    +0.132 C 
BRANCH  28  29
ATOM     29  C   UNL     1       1.178   2.310  27.578  0.00  0.00    +0.096 C 
BRANCH  29  30
ATOM     30  N   UNL     1       1.501   2.490  28.315  0.00  0.00    -0.267 NA
ATOM     31  C   UNL     1       2.220   2.891  28.365  0.00  0.00    +0.105 C 
ATOM     32  C   UNL     1       2.543   3.070  29.102  0.00  0.00    +0.159 C 
ATOM     33  O   UNL     1       2.146   2.848  29.791  0.00  0.00    -0.351 OA
ATOM     34  C   UNL     1       1.427   2.447  29.742  0.00  0.00    +0.159 C 
ATOM     35  C   UNL     1       1.104   2.267  29.005  0.00  0.00    +0.105 C 
ENDBRANCH  29  30
ENDBRANCH  28  29
ENDBRANCH  27  28
ENDBRANCH   2  25
ENDBRANCH   3   2
TORSDOF 7
ENDMDL
MODEL 7
REMARK VINA RESULT:     -10.9      2.390      4.218
REMARK  Name = 
REMARK  7 active torsions:
REMARK  status: ('A' for Active; 'I' for Inactive)
REMARK    1  A    between atoms: C_2  and  C_3
REMARK    2  A    between atoms: C_2  and  C_25
REMARK    3  A    between atoms: C_10  and  N_11
REMARK    4  A    between atoms: C_12  and  C_14
REMARK    5  A    between atoms: N_27  and  C_28
REMARK    6  A    between atoms: C_28  and  C_29
REMARK    7  A    between atoms: C_29  and  N_30
REMARK                            x       y       z     vdW  Elec       q    Type
REMARK                         _______ _______ _______ _____ _____    ______ ____
ROOT
ATOM      3  C   UNL     1      -0.563   2.968  25.262  0.00  0.00    +0.039 C 
ATOM      4  C   UNL     1      -0.548   3.794  25.227  0.00  0.00    +0.003 C 
ATOM      5  C   UNL     1      -1.253   4.216  25.164  0.00  0.00    +0.000 C 
ATOM      6  C   UNL     1      -1.972   3.816  25.136  0.00  0.00    +0.002 C 
ATOM      7  C   UNL     1      -1.957   4.639  25.101  0.00  0.00    +0.000 C 
ATOM      8  C   UNL     1      -2.678   4.238  25.072  0.00  0.00    +0.002 C 
ATOM      9  C   UNL     1      -3.399   3.838  25.044  0.00  0.00    +0.022 C 
ATOM     10  C   UNL     1      -3.414   3.013  25.079  0.00  0.00    +0.096 C 
ATOM     20  C   UNL     1      -2.708   2.590  25.142  0.00  0.00    +0.022 C 
ATOM     21  C   UNL     1      -2.723   1.766  25.176  0.00  0.00    +0.002 C 
ATOM     22  C   UNL     1      -1.988   2.991  25.170  0.00  0.00    +0.032 C 
ATOM     23  C   UNL     1      -1.283   2.568  25.234  0.00  0.00    +0.152 C 
ATOM     24  O   UNL     1      -1.298   1.744  25.268  0.00  0.00    -0.223 OA
ENDROOT
BRANCH  10  11
ATOM     11  N   UNL     1      -4.134   2.612  25.050  0.00  0.00    -0.203 NA
ATOM     12  C   UNL     1      -4.763   2.859  25.523  0.00  0.00    +0.265 C 
ATOM     13  O   UNL     1      -4.671   3.507  26.026  0.00  0.00    -0.268 OA
BRANCH  12  14
ATOM     14  C   UNL     1      -5.484   2.458  25.495  0.00  0.00    +0.055 A 
ATOM     15  C   UNL     1      -5.829   2.281  24.768  0.00  0.00    +0.005 A 
ATOM     16  C   UNL     1      -6.550   1.881  24.740  0.00  0.00    +0.000 A 
ATOM     17  C   UNL     1      -6.925   1.657  25.440  0.00  0.00    +0.000 A 
ATOM     18  C   UNL     1      -6.579   1.834  26.168  0.00  0.00    +0.000 A 
ATOM     19  C   UNL     1      -5.858   2.235  26.195  0.00  0.00    +0.005 A 
ENDBRANCH  12  14
ENDBRANCH  10  11
BRANCH   3   2
ATOM      1  C   UNL     1       0.436   2.342  26.069  0.00  0.00    +0.010 C 
ATOM      2  C   UNL     1       0.143   2.546  25.325  0.00  0.00    +0.081 C 
BRANCH   2  25
ATOM     25  C   UNL     1       0.556   2.327  24.646  0.00  0.00    +0.241 C 
ATOM     26  O   UNL     1       0.776   2.900  24.094  0.00  0.00    -0.273 OA
ATOM     27  N   UNL     1       0.749   1.535  24.517  0.00  0.00    -0.204 NA
BRANCH  27  28
ATOM     28  C   UNL     1       1.161   1.316  23.838  0.00  0.00    +0.132 C 
BRANCH  28  29
ATOM     29  C   UNL     1       1.327   0.520  23.693  0.00  0.00    +0.096 C 
BRANCH  29  30
ATOM     30  N   UNL     1       1.731   0.300  23.009  0.00  0.00    -0.267 NA
ATOM     31  C   UNL     1       2.540   0.452  22.940  0.00  0.00    +0.105 C 
ATOM     32  C   UNL     1       2.944   0.232  22.256  0.00  0.00    +0.159 C 
ATOM     33  O   UNL     1       2.540  -0.140  21.640  0.00  0.00    -0.351 OA
ATOM     34  C   UNL     1       1.733  -0.292  21.708  0.00  0.00    +0.159 C 
ATOM     35  C   UNL     1       1.328  -0.072  22.393  0.00  0.00    +0.105 C 
ENDBRANCH  29  30
ENDBRANCH  28  29
ENDBRANCH  27  28
ENDBRANCH   2  25
ENDBRANCH   3   2
TORSDOF 7
ENDMDL
MODEL 8
REMARK VINA RESULT:     -10.8      2.346      4.733
REMARK  Name = 
REMARK  7 active torsions:
REMARK  status: ('A' for Active; 'I' for Inactive)
REMARK    1  A    between atoms: C_2  and  C_3
REMARK    2  A    between atoms: C_2  and  C_25
REMARK    3  A    between atoms: C_10  and  N_11
REMARK    4  A    between atoms: C_12  and  C_14
REMARK    5  A    between atoms: N_27  and  C_28
REMARK    6  A    between atoms: C_28  and  C_29
REMARK    7  A    between atoms: C_29  and  N_30
REMARK                            x       y       z     vdW  Elec       q    Type
REMARK                         _______ _______ _______ _____ _____    ______ ____
ROOT
ATOM      3  C   UNL     1      -1.529   3.764  25.535  0.00  0.00    +0.039 C 
ATOM      4  C   UNL     1      -1.338   3.520  26.300  0.00  0.00    +0.003 C 
ATOM      5  C   UNL     1      -0.779   2.925  26.416  0.00  0.00    +0.000 C 
ATOM      6  C   UNL     1      -0.411   2.573  25.767  0.00  0.00    +0.002 C 
ATOM      7  C   UNL     1      -0.220   2.330  26.531  0.00  0.00    +0.000 C 
ATOM      8  C   UNL     1       0.149   1.978  25.882  0.00  0.00    +0.002 C 
ATOM      9  C   UNL     1       0.518   1.626  25.233  0.00  0.00    +0.022 C 
ATOM     10  C   UNL     1       0.326   1.870  24.468  0.00  0.00    +0.096 C 
ATOM     20  C   UNL     1      -0.233   2.465  24.353  0.00  0.00    +0.022 C 
ATOM     21  C   UNL     1      -0.424   2.709  23.588  0.00  0.00    +0.002 C 
ATOM     22  C   UNL     1      -0.602   2.818  25.002  0.00  0.00    +0.032 C 
ATOM     23  C   UNL     1      -1.161   3.413  24.886  0.00  0.00    +0.152 C 
ATOM     24  O   UNL     1      -1.351   3.656  24.122  0.00  0.00    -0.223 OA
ENDROOT
BRANCH  10  11
ATOM     11  N   UNL     1       0.695   1.518  23.819  0.00  0.00    -0.203 NA
ATOM     12  C   UNL     1       0.749   0.697  23.770  0.00  0.00    +0.265 C 
ATOM     13  O   UNL     1       0.434   0.226  24.372  0.00  0.00    -0.268 OA
BRANCH  12  14
ATOM     14  C   UNL     1       1.117   0.345  23.122  0.00  0.00    +0.055 A 
ATOM     15  C   UNL     1       1.927   0.444  23.002  0.00  0.00    +0.005 A 
ATOM     16  C   UNL     1       2.295   0.092  22.353  0.00  0.00    +0.000 A 
ATOM     17  C   UNL     1       1.853  -0.360  21.824  0.00  0.00    +0.000 A 
ATOM     18  C   UNL     1       1.042  -0.459  21.943  0.00  0.00    +0.000 A 
ATOM     19  C   UNL     1       0.675  -0.107  22.592  0.00  0.00    +0.005 A 
ENDBRANCH  12  14
ENDBRANCH  10  11
BRANCH   3   2
ATOM      1  C   UNL     1      -1.871   5.062  25.045  0.00  0.00    +0.010 C 
ATOM      2  C   UNL     1      -2.088   4.360  25.420  0.00  0.00    +0.081 C 
BRANCH   2  25
ATOM     25  C   UNL     1      -2.863   4.254  25.679  0.00  0.00    +0.241 C 
ATOM     26  O   UNL     1      -3.084   4.505  26.435  0.00  0.00    -0.273 OA
ATOM     27  N   UNL     1      -3.420   3.897  25.185  0.00  0.00    -0.204 NA
BRANCH  27  28
ATOM     28  C   UNL     1      -4.195   3.791  25.445  0.00  0.00    +0.132 C 
BRANCH  28  29
ATOM     29  C   UNL     1      -4.767   3.496  24.928  0.00  0.00    +0.096 C 
BRANCH  29  30
ATOM     30  N   UNL     1      -5.236   2.857  25.153  0.00  0.00    -0.267 NA
ATOM     31  C   UNL     1      -5.220   2.157  24.716  0.00  0.00    +0.105 C 
ATOM     32  C   UNL     1      -5.689   1.518  24.941  0.00  0.00    +0.159 C 
ATOM     33  O   UNL     1      -6.176   1.577  25.605  0.00  0.00    -0.351 OA
ATOM     34  C   UNL     1      -6.193   2.275  26.043  0.00  0.00    +0.159 C 
ATOM     35  C   UNL     1      -5.723   2.916  25.818  0.00  0.00    +0.105 C 
ENDBRANCH  29  30
ENDBRANCH  28  29
ENDBRANCH  27  28
ENDBRANCH   2  25
ENDBRANCH   3   2
TORSDOF 7
ENDMDL
MODEL 9
REMARK VINA RESULT:     -10.6      1.472      3.265
REMARK  Name = 
REMARK  7 active torsions:
REMARK  status: ('A' for Active; 'I' for Inactive)
REMARK    1  A    between atoms: C_2  and  C_3
REMARK    2  A    between atoms: C_2  and  C_25
REMARK    3  A    between atoms: C_10  and  N_11
REMARK    4  A    between atoms: C_12  and  C_14
REMARK    5  A    between atoms: N_27  and  C_28
REMARK    6  A    between atoms: C_28  and  C_29
REMARK    7  A    between atoms: C_29  and  N_30
REMARK                            x       y       z     vdW  Elec       q    Type
REMARK                         _______ _______ _______ _____ _____    ______ ____
ROOT
ATOM      3  C   UNL     1      -1.054   2.479  24.922  0.00  0.00    +0.039 C 
ATOM      4  C   UNL     1      -0.595   2.348  25.596  0.00  0.00    +0.003 C 
ATOM      5  C   UNL     1      -0.545   1.592  25.921  0.00  0.00    +0.000 C 
ATOM      6  C   UNL     1      -0.953   0.966  25.573  0.00  0.00    +0.002 C 
ATOM      7  C   UNL     1      -0.495   0.836  26.245  0.00  0.00    +0.000 C 
ATOM      8  C   UNL     1      -0.903   0.209  25.897  0.00  0.00    +0.002 C 
ATOM      9  C   UNL     1      -1.311  -0.418  25.549  0.00  0.00    +0.022 C 
ATOM     10  C   UNL     1      -1.770  -0.288  24.874  0.00  0.00    +0.096 C 
ATOM     20  C   UNL     1      -1.820   0.469  24.550  0.00  0.00    +0.022 C 
ATOM     21  C   UNL     1      -2.278   0.600  23.876  0.00  0.00    +0.002 C 
ATOM     22  C   UNL     1      -1.412   1.097  24.898  0.00  0.00    +0.032 C 
ATOM     23  C   UNL     1      -1.462   1.853  24.574  0.00  0.00    +0.152 C 
ATOM     24  O   UNL     1      -1.920   1.983  23.900  0.00  0.00    -0.223 OA
ENDROOT
BRANCH  10  11
ATOM     11  N   UNL     1      -2.178  -0.914  24.526  0.00  0.00    -0.203 NA
ATOM     12  C   UNL     1      -2.752  -1.322  24.955  0.00  0.00    +0.265 C 
ATOM     13  O   UNL     1      -2.918  -1.103  25.733  0.00  0.00    -0.268 OA
BRANCH  12  14
ATOM     14  C   UNL     1      -3.160  -1.948  24.606  0.00  0.00    +0.055 A 
ATOM     15  C   UNL     1      -2.850  -2.712  24.638  0.00  0.00    +0.005 A 
ATOM     16  C   UNL     1      -3.259  -3.339  24.290  0.00  0.00    +0.000 A 
ATOM     17  C   UNL     1      -3.978  -3.201  23.910  0.00  0.00    +0.000 A 
ATOM     18  C   UNL     1      -4.288  -2.437  23.877  0.00  0.00    +0.000 A 
ATOM     19  C   UNL     1      -3.879  -1.811  24.226  0.00  0.00    +0.005 A 
ENDBRANCH  12  14
ENDBRANCH  10  11
BRANCH   3   2
ATOM      1  C   UNL     1      -0.603   3.452  23.978  0.00  0.00    +0.010 C 
ATOM      2  C   UNL     1      -1.104   3.236  24.597  0.00  0.00    +0.081 C 
BRANCH   2  25
ATOM     25  C   UNL     1      -1.652   3.776  24.892  0.00  0.00    +0.241 C 
ATOM     26  O   UNL     1      -1.405   4.385  25.392  0.00  0.00    -0.273 OA
ATOM     27  N   UNL     1      -2.449   3.709  24.687  0.00  0.00    -0.204 NA
BRANCH  27  28
ATOM     28  C   UNL     1      -2.998   4.249  24.981  0.00  0.00    +0.132 C 
BRANCH  28  29
ATOM     29  C   UNL     1      -3.761   4.275  24.668  0.00  0.00    +0.096 C 
BRANCH  29  30
ATOM     30  N   UNL     1      -4.366   3.838  25.017  0.00  0.00    -0.267 NA
ATOM     31  C   UNL     1      -4.735   3.232  24.595  0.00  0.00    +0.105 C 
ATOM     32  C   UNL     1      -5.340   2.795  24.945  0.00  0.00    +0.159 C 
ATOM     33  O   UNL     1      -5.578   2.963  25.718  0.00  0.00    -0.351 OA
ATOM     34  C   UNL     1      -5.209   3.568  26.140  0.00  0.00    +0.159 C 
ATOM     35  C   UNL     1      -4.604   4.006  25.790  0.00  0.00    +0.105 C 
ENDBRANCH  29  30
ENDBRANCH  28  29
ENDBRANCH  27  28
ENDBRANCH   2  25
ENDBRANCH   3   2
TORSDOF 7
ENDMDL
MODEL 10
REMARK VINA RESULT:     -10.5      2.042      6.245
REMARK  Name = 
REMARK  7 active torsions:
REMARK  status: ('A' for Active; 'I' for Inactive)
REMARK    1  A    between atoms: C_2  and  C_3
REMARK    2  A    between atoms: C_2  and  C_25
REMARK    3  A    between atoms: C_10  and  N_11
REMARK    4  A    between atoms: C_12  and  C_14
REMARK    5  A    between atoms: N_27  and  C_28
REMARK    6  A    between atoms: C_28  and  C_29
REMARK    7  A    between atoms: C_29  and  N_30
REMARK                            x       y       z     vdW  Elec       q    Type
REMARK                         _______ _______ _______ _____ _____    ______ ____
ROOT
ATOM      3  C   UNL     1      -0.392  -0.905  24.791  0.00  0.00    +0.039 C 
ATOM      4  C   UNL     1       0.036  -0.920  24.085  0.00  0.00    +0.003 C 
ATOM      5  C   UNL     1       0.219  -0.216  23.699  0.00  0.00    +0.000 C 
ATOM      6  C   UNL     1      -0.025   0.505  24.017  0.00  0.00    +0.002 C 
ATOM      7  C   UNL     1       0.402   0.489  23.312  0.00  0.00    +0.000 C 
ATOM      8  C   UNL     1       0.158   1.210  23.631  0.00  0.00    +0.002 C 
ATOM      9  C   UNL     1      -0.086   1.932  23.949  0.00  0.00    +0.022 C 
ATOM     10  C   UNL     1      -0.514   1.947  24.655  0.00  0.00    +0.096 C 
ATOM     20  C   UNL     1      -0.697   1.241  25.042  0.00  0.00    +0.022 C 
ATOM     21  C   UNL     1      -1.124   1.257  25.747  0.00  0.00    +0.002 C 
ATOM     22  C   UNL     1      -0.453   0.520  24.723  0.00  0.00    +0.032 C 
ATOM     23  C   UNL     1      -0.636  -0.185  25.110  0.00  0.00    +0.152 C 
ATOM     24  O   UNL     1      -1.063  -0.169  25.815  0.00  0.00    -0.223 OA
ENDROOT
BRANCH  10  11
ATOM     11  N   UNL     1      -0.757   2.668  24.974  0.00  0.00    -0.203 NA
ATOM     12  C   UNL     1      -1.061   3.254  24.481  0.00  0.00    +0.265 C 
ATOM     13  O   UNL     1      -1.122   3.121  23.668  0.00  0.00    -0.268 OA
BRANCH  12  14
ATOM     14  C   UNL     1      -1.305   3.976  24.799  0.00  0.00    +0.055 A 
ATOM     15  C   UNL     1      -0.853   4.654  24.679  0.00  0.00    +0.005 A 
ATOM     16  C   UNL     1      -1.097   5.375  24.998  0.00  0.00    +0.000 A 
ATOM     17  C   UNL     1      -1.795   5.417  25.436  0.00  0.00    +0.000 A 
ATOM     18  C   UNL     1      -2.248   4.738  25.556  0.00  0.00    +0.000 A 
ATOM     19  C   UNL     1      -2.003   4.017  25.238  0.00  0.00    +0.005 A 
ENDBRANCH  12  14
ENDBRANCH  10  11
BRANCH   3   2
ATOM      1  C   UNL     1      -0.195  -1.804  25.884  0.00  0.00    +0.010 C 
ATOM      2  C   UNL     1      -0.575  -1.611  25.178  0.00  0.00    +0.081 C 
BRANCH   2  25
ATOM     25  C   UNL     1      -1.137  -2.122  24.859  0.00  0.00    +0.241 C 
ATOM     26  O   UNL     1      -0.921  -2.656  24.267  0.00  0.00    -0.273 OA
ATOM     27  N   UNL     1      -1.916  -2.102  25.131  0.00  0.00    -0.204 NA
BRANCH  27  28
ATOM     28  C   UNL     1      -2.478  -2.614  24.812  0.00  0.00    +0.132 C 
BRANCH  28  29
ATOM     29  C   UNL     1      -3.266  -2.565  25.055  0.00  0.00    +0.096 C 
BRANCH  29  30
ATOM     30  N   UNL     1      -3.831  -2.229  24.557  0.00  0.00    -0.267 NA
ATOM     31  C   UNL     1      -4.170  -2.678  23.954  0.00  0.00    +0.105 C 
ATOM     32  C   UNL     1      -4.735  -2.342  23.456  0.00  0.00    +0.159 C 
ATOM     33  O   UNL     1      -4.962  -1.555  23.562  0.00  0.00    -0.351 OA
ATOM     34  C   UNL     1      -4.624  -1.106  24.165  0.00  0.00    +0.159 C 
ATOM     35  C   UNL     1      -4.058  -1.442  24.663  0.00  0.00    +0.105 C 
ENDBRANCH  29  30
ENDBRANCH  28  29
ENDBRANCH  27  28
ENDBRANCH   2  25
ENDBRANCH   3   2
TORSDOF 7
ENDMDL
