MODEL 1
REMARK VINA RESULT:     -11.7      0.000      0.000
REMARK  Name = 
REMARK  7 active torsions:
REMARK  status: ('A' for Active; 'I' for Inactive)
REMARK    1  A    between atoms: C_5  and  C_6
REMARK    2  A    between atoms: C_6  and  C_7
REMARK    3  A    between atoms: C_10  and  C_11
REMARK    4  A    between atoms: C_11  and  N_12
REMARK    5  A    between atoms: C_20  and  C_21
REMARK    6  A    between atoms: C_21  and  N_22
REMARK    7  A    between atoms: C_23  and  C_25
REMARK                            x       y       z     vdW  Elec       q    Type
REMARK                         _______ _______ _______ _____ _____    ______ ____
ROOT
ATOM      1  O   UNL     1      -6.188   1.595  25.814  0.00  0.00    -0.220 OA
ATOM      2  C   UNL     1      -5.637   2.146  25.546  0.00  0.00    +0.181 C 
ATOM      3  C   UNL     1      -5.726   2.944  25.737  0.00  0.00    +0.038 C 
ATOM      4  C   UNL     1      -5.174   3.497  25.469  0.00  0.00    +0.033 C 
ATOM      5  C   UNL     1      -4.535   3.251  25.010  0.00  0.00    +0.121 C 
ATOM     19  O   UNL     1      -4.446   2.453  24.819  0.00  0.00    -0.354 OA
ATOM     20  C   UNL     1      -4.997   1.901  25.087  0.00  0.00    +0.167 C 
ENDROOT
BRANCH   5   6
ATOM      6  C   UNL     1      -3.983   3.804  24.742  0.00  0.00    +0.079 C 
BRANCH   6   7
ATOM      7  C   UNL     1      -3.255   3.878  25.122  0.00  0.00    +0.103 A 
ATOM      8  N   UNL     1      -3.139   3.972  25.934  0.00  0.00    -0.082 NA
ATOM      9  O   UNL     1      -2.327   4.023  26.071  0.00  0.00    -0.357 OA
ATOM     10  C   UNL     1      -1.942   3.960  25.344  0.00  0.00    +0.170 A 
ATOM     18  C   UNL     1      -2.515   3.871  24.758  0.00  0.00    +0.055 A 
BRANCH  10  11
ATOM     11  C   UNL     1      -1.125   3.984  25.225  0.00  0.00    +0.141 C 
BRANCH  11  12
ATOM     12  N   UNL     1      -0.688   3.285  25.223  0.00  0.00    -0.264 NA
ATOM     13  C   UNL     1      -0.483   2.925  25.937  0.00  0.00    +0.091 C 
ATOM     14  C   UNL     1      -0.046   2.225  25.935  0.00  0.00    +0.106 C 
ATOM     15  N   UNL     1       0.186   1.885  25.220  0.00  0.00    -0.215 NA
ATOM     16  C   UNL     1      -0.019   2.245  24.507  0.00  0.00    +0.106 C 
ATOM     17  C   UNL     1      -0.456   2.944  24.508  0.00  0.00    +0.091 C 
ENDBRANCH  11  12
ENDBRANCH  10  11
ENDBRANCH   6   7
ENDBRANCH   5   6
BRANCH  20  21
ATOM     21  C   UNL     1      -4.908   1.104  24.896  0.00  0.00    +0.147 C 
BRANCH  21  22
ATOM     22  N   UNL     1      -4.196   0.717  25.058  0.00  0.00    -0.199 NA
ATOM     23  C   UNL     1      -4.079  -0.057  24.798  0.00  0.00    +0.267 C 
ATOM     24  O   UNL     1      -4.672  -0.444  24.376  0.00  0.00    -0.268 OA
BRANCH  23  25
ATOM     25  C   UNL     1      -3.368  -0.443  24.960  0.00  0.00    +0.082 A 
ATOM     26  C   UNL     1      -3.305  -0.929  25.624  0.00  0.00    +0.145 A 
ATOM     27  F   UNL     1      -3.952  -1.030  26.125  0.00  0.00    -0.204 F 
ATOM     28  C   UNL     1      -2.594  -1.316  25.786  0.00  0.00    +0.030 A 
ATOM     29  C   UNL     1      -1.947  -1.215  25.285  0.00  0.00    +0.002 A 
ATOM     30  C   UNL     1      -2.010  -0.728  24.622  0.00  0.00    +0.000 A 
ATOM     31  C   UNL     1      -2.720  -0.342  24.460  0.00  0.00    +0.007 A 
ENDBRANCH  23  25
ENDBRANCH  21  22
ENDBRANCH  20  21
TORSDOF 7
ENDMDL
MODEL 2
REMARK VINA RESULT:     -11.6      1.519      4.188
REMARK  Name = 
REMARK  7 active torsions:
REMARK  status: ('A' for Active; 'I' for Inactive)
REMARK    1  A    between atoms: C_5  and  C_6
REMARK    2  A    between atoms: C_6  and  C_7
REMARK    3  A    between atoms: C_10  and  C_11
REMARK    4  A    between atoms: C_11  and  N_12
REMARK    5  A    between atoms: C_20  and  C_21
REMARK    6  A    between atoms: C_21  and  N_22
REMARK    7  A    between atoms: C_23  and  C_25
REMARK                            x       y       z     vdW  Elec       q    Type
REMARK                         _______ _______ _______ _____ _____    ______ ____
ROOT
ATOM      1  O   UNL     1      -5.770   3.437  26.012  0.00  0.00    -0.220 OA
ATOM      2  C   UNL     1      -5.410   2.846  25.565  0.00  0.00    +0.181 C 
ATOM      3  C   UNL     1      -5.866   2.245  25.231  0.00  0.00    +0.038 C 
ATOM      4  C   UNL     1      -5.505   1.652  24.783  0.00  0.00    +0.033 C 
ATOM      5  C   UNL     1      -4.688   1.662  24.670  0.00  0.00    +0.121 C 
ATOM     19  O   UNL     1      -4.232   2.263  25.004  0.00  0.00    -0.354 OA
ATOM     20  C   UNL     1      -4.592   2.854  25.450  0.00  0.00    +0.167 C 
ENDROOT
BRANCH   5   6
ATOM      6  C   UNL     1      -4.328   1.069  24.222  0.00  0.00    +0.079 C 
BRANCH   6   7
ATOM      7  C   UNL     1      -4.124   0.352  24.575  0.00  0.00    +0.103 A 
ATOM      8  N   UNL     1      -4.589  -0.330  24.591  0.00  0.00    -0.082 NA
ATOM      9  O   UNL     1      -4.172  -0.913  24.999  0.00  0.00    -0.357 OA
ATOM     10  C   UNL     1      -3.450  -0.592  25.235  0.00  0.00    +0.170 A 
ATOM     18  C   UNL     1      -3.420   0.190  24.973  0.00  0.00    +0.055 A 
BRANCH  10  11
ATOM     11  C   UNL     1      -2.860  -0.984  25.659  0.00  0.00    +0.141 C 
BRANCH  11  12
ATOM     12  N   UNL     1      -2.222  -1.323  25.262  0.00  0.00    -0.264 NA
ATOM     13  C   UNL     1      -2.316  -2.045  24.874  0.00  0.00    +0.091 C 
ATOM     14  C   UNL     1      -1.677  -2.384  24.477  0.00  0.00    +0.106 C 
ATOM     15  N   UNL     1      -0.945  -2.002  24.467  0.00  0.00    -0.215 NA
ATOM     16  C   UNL     1      -0.853  -1.280  24.856  0.00  0.00    +0.106 C 
ATOM     17  C   UNL     1      -1.491  -0.940  25.253  0.00  0.00    +0.091 C 
ENDBRANCH  11  12
ENDBRANCH  10  11
ENDBRANCH   6   7
ENDBRANCH   5   6
BRANCH  20  21
ATOM     21  C   UNL     1      -4.136   3.455  25.784  0.00  0.00    +0.147 C 
BRANCH  21  22
ATOM     22  N   UNL     1      -3.400   3.643  25.459  0.00  0.00    -0.199 NA
ATOM     23  C   UNL     1      -2.840   4.045  25.913  0.00  0.00    +0.267 C 
ATOM     24  O   UNL     1      -3.015   4.258  26.691  0.00  0.00    -0.268 OA
BRANCH  23  25
ATOM     25  C   UNL     1      -2.106   4.233  25.588  0.00  0.00    +0.082 A 
ATOM     26  C   UNL     1      -1.471   3.713  25.675  0.00  0.00    +0.145 A 
ATOM     27  F   UNL     1      -1.571   3.005  26.086  0.00  0.00    -0.204 F 
ATOM     28  C   UNL     1      -0.736   3.901  25.350  0.00  0.00    +0.030 A 
ATOM     29  C   UNL     1      -0.636   4.609  24.939  0.00  0.00    +0.002 A 
ATOM     30  C   UNL     1      -1.271   5.129  24.852  0.00  0.00    +0.000 A 
ATOM     31  C   UNL     1      -2.005   4.941  25.177  0.00  0.00    +0.007 A 
ENDBRANCH  23  25
ENDBRANCH  21  22
ENDBRANCH  20  21
TORSDOF 7
ENDMDL
MODEL 3
REMARK VINA RESULT:     -11.5      1.371      2.083
REMARK  Name = 
REMARK  7 active torsions:
REMARK  status: ('A' for Active; 'I' for Inactive)
REMARK    1  A    between atoms: C_5  and  C_6
REMARK    2  A    between atoms: C_6  and  C_7
REMARK    3  A    between atoms: C_10  and  C_11
REMARK    4  A    between atoms: C_11  and  N_12
REMARK    5  A    between atoms: C_20  and  C_21
REMARK    6  A    between atoms: C_21  and  N_22
REMARK    7  A    between atoms: C_23  and  C_25
REMARK                            x       y       z     vdW  Elec       q    Type
REMARK                         _______ _______ _______ _____ _____    ______ ____
ROOT
ATOM      1  O   UNL     1      -5.100   2.713  24.136  0.00  0.00    -0.220 OA
ATOM      2  C   UNL     1      -4.344   2.843  24.439  0.00  0.00    +0.181 C 
ATOM      3  C   UNL     1      -3.941   3.539  24.257  0.00  0.00    +0.038 C 
ATOM      4  C   UNL     1      -3.184   3.669  24.561  0.00  0.00    +0.033 C 
ATOM      5  C   UNL     1      -2.833   3.103  25.047  0.00  0.00    +0.121 C 
ATOM     19  O   UNL     1      -3.236   2.407  25.229  0.00  0.00    -0.354 OA
ATOM     20  C   UNL     1      -3.992   2.277  24.926  0.00  0.00    +0.167 C 
ENDROOT
BRANCH   5   6
ATOM      6  C   UNL     1      -2.076   3.233  25.351  0.00  0.00    +0.079 C 
BRANCH   6   7
ATOM      7  C   UNL     1      -1.418   2.907  24.974  0.00  0.00    +0.103 A 
ATOM      8  N   UNL     1      -1.118   3.135  24.239  0.00  0.00    -0.082 NA
ATOM      9  O   UNL     1      -0.460   2.666  24.077  0.00  0.00    -0.357 OA
ATOM     10  C   UNL     1      -0.353   2.148  24.711  0.00  0.00    +0.170 A 
ATOM     18  C   UNL     1      -0.945   2.298  25.265  0.00  0.00    +0.055 A 
BRANCH  10  11
ATOM     11  C   UNL     1       0.243   1.581  24.779  0.00  0.00    +0.141 C 
BRANCH  11  12
ATOM     12  N   UNL     1       0.191   0.876  24.354  0.00  0.00    -0.264 NA
ATOM     13  C   UNL     1      -0.270   0.255  24.641  0.00  0.00    +0.091 C 
ATOM     14  C   UNL     1      -0.322  -0.450  24.215  0.00  0.00    +0.106 C 
ATOM     15  N   UNL     1       0.088  -0.534  23.504  0.00  0.00    -0.215 NA
ATOM     16  C   UNL     1       0.549   0.087  23.218  0.00  0.00    +0.106 C 
ATOM     17  C   UNL     1       0.601   0.792  23.642  0.00  0.00    +0.091 C 
ENDBRANCH  11  12
ENDBRANCH  10  11
ENDBRANCH   6   7
ENDBRANCH   5   6
BRANCH  20  21
ATOM     21  C   UNL     1      -4.395   1.581  25.108  0.00  0.00    +0.147 C 
BRANCH  21  22
ATOM     22  N   UNL     1      -4.092   0.852  24.866  0.00  0.00    -0.199 NA
ATOM     23  C   UNL     1      -4.414   0.152  25.162  0.00  0.00    +0.267 C 
ATOM     24  O   UNL     1      -5.039   0.182  25.699  0.00  0.00    -0.268 OA
BRANCH  23  25
ATOM     25  C   UNL     1      -4.111  -0.575  24.920  0.00  0.00    +0.082 A 
ATOM     26  C   UNL     1      -3.712  -1.055  25.460  0.00  0.00    +0.145 A 
ATOM     27  F   UNL     1      -3.616  -0.808  26.241  0.00  0.00    -0.204 F 
ATOM     28  C   UNL     1      -3.408  -1.784  25.218  0.00  0.00    +0.030 A 
ATOM     29  C   UNL     1      -3.503  -2.031  24.437  0.00  0.00    +0.002 A 
ATOM     30  C   UNL     1      -3.902  -1.551  23.898  0.00  0.00    +0.000 A 
ATOM     31  C   UNL     1      -4.205  -0.824  24.139  0.00  0.00    +0.007 A 
ENDBRANCH  23  25
ENDBRANCH  21  22
ENDBRANCH  20  21
TORSDOF 7
ENDMDL
MODEL 4
REMARK VINA RESULT:     -11.4      1.498      3.665
REMARK  Name = 
REMARK  7 active torsions:
REMARK  status: ('A' for Active; 'I' for Inactive)
REMARK    1  A    between atoms: C_5  and  C_6
REMARK    2  A    between atoms: C_6  and  C_7
REMARK    3  A    between atoms: C_10  and  C_11
REMARK    4  A    between atoms: C_11  and  N_12
REMARK    5  A    between atoms: C_20  and  C_21
REMARK    6  A    between atoms: C_21  and  N_22
REMARK    7  A    between atoms: C_23  and  C_25
REMARK                            x       y       z     vdW  Elec       q    Type
REMARK                         _______ _______ _______ _____ _____    ______ ____
ROOT
ATOM      1  O   UNL     1       0.360   1.411  24.484  0.00  0.00    -0.220 OA
ATOM      2  C   UNL     1      -0.170   1.941  24.829  0.00  0.00    +0.181 C 
ATOM      3  C   UNL     1      -0.064   2.753  24.730  0.00  0.00    +0.038 C 
ATOM      4  C   UNL     1      -0.595   3.283  25.075  0.00  0.00    +0.033 C 
ATOM      5  C   UNL     1      -1.231   3.000  25.518  0.00  0.00    +0.121 C 
ATOM     19  O   UNL     1      -1.337   2.188  25.616  0.00  0.00    -0.354 OA
ATOM     20  C   UNL     1      -0.807   1.659  25.271  0.00  0.00    +0.167 C 
ENDROOT
BRANCH   5   6
ATOM      6  C   UNL     1      -1.762   3.531  25.862  0.00  0.00    +0.079 C 
BRANCH   6   7
ATOM      7  C   UNL     1      -2.492   3.674  25.506  0.00  0.00    +0.103 A 
ATOM      8  N   UNL     1      -2.611   3.943  24.735  0.00  0.00    -0.082 NA
ATOM      9  O   UNL     1      -3.423   4.008  24.611  0.00  0.00    -0.357 OA
ATOM     10  C   UNL     1      -3.807   3.780  25.305  0.00  0.00    +0.170 A 
ATOM     18  C   UNL     1      -3.231   3.574  25.858  0.00  0.00    +0.055 A 
BRANCH  10  11
ATOM     11  C   UNL     1      -4.623   3.762  25.425  0.00  0.00    +0.141 C 
BRANCH  11  12
ATOM     12  N   UNL     1      -5.036   3.053  25.347  0.00  0.00    -0.264 NA
ATOM     13  C   UNL     1      -5.410   2.720  26.003  0.00  0.00    +0.091 C 
ATOM     14  C   UNL     1      -5.823   2.010  25.925  0.00  0.00    +0.106 C 
ATOM     15  N   UNL     1      -5.862   1.632  25.191  0.00  0.00    -0.215 NA
ATOM     16  C   UNL     1      -5.487   1.966  24.537  0.00  0.00    +0.106 C 
ATOM     17  C   UNL     1      -5.074   2.675  24.614  0.00  0.00    +0.091 C 
ENDBRANCH  11  12
ENDBRANCH  10  11
ENDBRANCH   6   7
ENDBRANCH   5   6
BRANCH  20  21
ATOM     21  C   UNL     1      -0.913   0.847  25.370  0.00  0.00    +0.147 C 
BRANCH  21  22
ATOM     22  N   UNL     1      -1.639   0.499  25.185  0.00  0.00    -0.199 NA
ATOM     23  C   UNL     1      -1.774  -0.295  25.363  0.00  0.00    +0.267 C 
ATOM     24  O   UNL     1      -1.183  -0.742  25.725  0.00  0.00    -0.268 OA
BRANCH  23  25
ATOM     25  C   UNL     1      -2.499  -0.641  25.178  0.00  0.00    +0.082 A 
ATOM     26  C   UNL     1      -2.982  -0.932  25.780  0.00  0.00    +0.145 A 
ATOM     27  F   UNL     1      -2.740  -0.877  26.567  0.00  0.00    -0.204 F 
ATOM     28  C   UNL     1      -3.708  -1.279  25.596  0.00  0.00    +0.030 A 
ATOM     29  C   UNL     1      -3.950  -1.334  24.809  0.00  0.00    +0.002 A 
ATOM     30  C   UNL     1      -3.467  -1.043  24.207  0.00  0.00    +0.000 A 
ATOM     31  C   UNL     1      -2.742  -0.697  24.392  0.00  0.00    +0.007 A 
ENDBRANCH  23  25
ENDBRANCH  21  22
ENDBRANCH  20  21
TORSDOF 7
ENDMDL
MODEL 5
REMARK VINA RESULT:     -11.4      1.506      4.301
REMARK  Name = 
REMARK  7 active torsions:
REMARK  status: ('A' for Active; 'I' for Inactive)
REMARK    1  A    between atoms: C_5  and  C_6
REMARK    2  A    between atoms: C_6  and  C_7
REMARK    3  A    between atoms: C_10  and  C_11
REMARK    4  A    between atoms: C_11  and  N_12
REMARK    5  A    between atoms: C_20  and  C_21
REMARK    6  A    between atoms: C_21  and  N_22
REMARK    7  A    between atoms: C_23  and  C_25
REMARK                            x       y       z     vdW  Elec       q    Type
REMARK                         _______ _______ _______ _____ _____    ______ ____
ROOT
ATOM      1  O   UNL     1      -1.679   4.731  25.455  0.00  0.00    -0.220 OA
ATOM      2  C   UNL     1      -1.385   4.001  25.210  0.00  0.00    +0.181 C 
ATOM      3  C   UNL     1      -0.606   3.791  25.381  0.00  0.00    +0.038 C 
ATOM      4  C   UNL     1      -0.311   3.060  25.137  0.00  0.00    +0.033 C 
ATOM      5  C   UNL     1      -0.796   2.539  24.721  0.00  0.00    +0.121 C 
ATOM     19  O   UNL     1      -1.576   2.748  24.549  0.00  0.00    -0.354 OA
ATOM     20  C   UNL     1      -1.870   3.478  24.794  0.00  0.00    +0.167 C 
ENDROOT
BRANCH   5   6
ATOM      6  C   UNL     1      -0.502   1.807  24.476  0.00  0.00    +0.079 C 
BRANCH   6   7
ATOM      7  C   UNL     1      -0.732   1.118  24.866  0.00  0.00    +0.103 A 
ATOM      8  N   UNL     1      -0.710   0.992  25.681  0.00  0.00    -0.082 NA
ATOM      9  O   UNL     1      -0.990   0.230  25.828  0.00  0.00    -0.357 OA
ATOM     10  C   UNL     1      -1.184  -0.115  25.105  0.00  0.00    +0.170 A 
ATOM     18  C   UNL     1      -1.024   0.434  24.510  0.00  0.00    +0.055 A 
BRANCH  10  11
ATOM     11  C   UNL     1      -1.484  -0.875  24.995  0.00  0.00    +0.141 C 
BRANCH  11  12
ATOM     12  N   UNL     1      -2.297  -1.007  25.029  0.00  0.00    -0.264 NA
ATOM     13  C   UNL     1      -2.679  -1.045  25.760  0.00  0.00    +0.091 C 
ATOM     14  C   UNL     1      -3.492  -1.176  25.794  0.00  0.00    +0.106 C 
ATOM     15  N   UNL     1      -3.925  -1.269  25.097  0.00  0.00    -0.215 NA
ATOM     16  C   UNL     1      -3.544  -1.231  24.367  0.00  0.00    +0.106 C 
ATOM     17  C   UNL     1      -2.730  -1.100  24.332  0.00  0.00    +0.091 C 
ENDBRANCH  11  12
ENDBRANCH  10  11
ENDBRANCH   6   7
ENDBRANCH   5   6
BRANCH  20  21
ATOM     21  C   UNL     1      -2.649   3.687  24.623  0.00  0.00    +0.147 C 
BRANCH  21  22
ATOM     22  N   UNL     1      -3.273   3.249  24.939  0.00  0.00    -0.199 NA
ATOM     23  C   UNL     1      -4.033   3.328  24.626  0.00  0.00    +0.267 C 
ATOM     24  O   UNL     1      -4.168   3.844  23.997  0.00  0.00    -0.268 OA
BRANCH  23  25
ATOM     25  C   UNL     1      -4.656   2.890  24.942  0.00  0.00    +0.082 A 
ATOM     26  C   UNL     1      -4.916   2.207  24.559  0.00  0.00    +0.145 A 
ATOM     27  F   UNL     1      -4.553   1.962  23.860  0.00  0.00    -0.204 F 
ATOM     28  C   UNL     1      -5.540   1.769  24.876  0.00  0.00    +0.030 A 
ATOM     29  C   UNL     1      -5.903   2.014  25.575  0.00  0.00    +0.002 A 
ATOM     30  C   UNL     1      -5.642   2.697  25.958  0.00  0.00    +0.000 A 
ATOM     31  C   UNL     1      -5.019   3.134  25.642  0.00  0.00    +0.007 A 
ENDBRANCH  23  25
ENDBRANCH  21  22
ENDBRANCH  20  21
TORSDOF 7
ENDMDL
MODEL 6
REMARK VINA RESULT:     -11.3      1.400      3.591
REMARK  Name = 
REMARK  7 active torsions:
REMARK  status: ('A' for Active; 'I' for Inactive)
REMARK    1  A    between atoms: C_5  and  C_6
REMARK    2  A    between atoms: C_6  and  C_7
REMARK    3  A    between atoms: C_10  and  C_11
REMARK    4  A    between atoms: C_11  and  N_12
REMARK    5  A    between atoms: C_20  and  C_21
REMARK    6  A    between atoms: C_21  and  N_22
REMARK    7  A    between atoms: C_23  and  C_25
REMARK                            x       y       z     vdW  Elec       q    Type
REMARK                         _______ _______ _______ _____ _____    ______ ____
ROOT
ATOM      1  O   UNL     1      -4.663  -1.392  24.002  0.00  0.00    -0.220 OA
ATOM      2  C   UNL     1      -3.975  -1.210  24.419  0.00  0.00    +0.181 C 
ATOM      3  C   UNL     1      -3.349  -1.747  24.436  0.00  0.00    +0.038 C 
ATOM      4  C   UNL     1      -2.661  -1.566  24.853  0.00  0.00    +0.033 C 
ATOM      5  C   UNL     1      -2.599  -0.848  25.254  0.00  0.00    +0.121 C 
ATOM     19  O   UNL     1      -3.225  -0.311  25.237  0.00  0.00    -0.354 OA
ATOM     20  C   UNL     1      -3.913  -0.492  24.820  0.00  0.00    +0.167 C 
ENDROOT
BRANCH   5   6
ATOM      6  C   UNL     1      -1.910  -0.666  25.672  0.00  0.00    +0.079 C 
BRANCH   6   7
ATOM      7  C   UNL     1      -1.363  -0.137  25.355  0.00  0.00    +0.103 A 
ATOM      8  N   UNL     1      -1.042  -0.167  24.595  0.00  0.00    -0.082 NA
ATOM      9  O   UNL     1      -0.522   0.467  24.513  0.00  0.00    -0.357 OA
ATOM     10  C   UNL     1      -0.520   0.889  25.222  0.00  0.00    +0.170 A 
ATOM     18  C   UNL     1      -1.040   0.516  25.742  0.00  0.00    +0.055 A 
BRANCH  10  11
ATOM     11  C   UNL     1      -0.076   1.566  25.383  0.00  0.00    +0.141 C 
BRANCH  11  12
ATOM     12  N   UNL     1      -0.373   2.310  25.187  0.00  0.00    -0.264 NA
ATOM     13  C   UNL     1      -0.728   2.778  25.766  0.00  0.00    +0.091 C 
ATOM     14  C   UNL     1      -1.025   3.523  25.570  0.00  0.00    +0.106 C 
ATOM     15  N   UNL     1      -0.966   3.799  24.794  0.00  0.00    -0.215 NA
ATOM     16  C   UNL     1      -0.611   3.331  24.216  0.00  0.00    +0.106 C 
ATOM     17  C   UNL     1      -0.315   2.587  24.411  0.00  0.00    +0.091 C 
ENDBRANCH  11  12
ENDBRANCH  10  11
ENDBRANCH   6   7
ENDBRANCH   5   6
BRANCH  20  21
ATOM     21  C   UNL     1      -4.539   0.045  24.804  0.00  0.00    +0.147 C 
BRANCH  21  22
ATOM     22  N   UNL     1      -4.389   0.855  24.859  0.00  0.00    -0.199 NA
ATOM     23  C   UNL     1      -5.017   1.391  24.870  0.00  0.00    +0.267 C 
ATOM     24  O   UNL     1      -5.794   1.116  24.826  0.00  0.00    -0.268 OA
BRANCH  23  25
ATOM     25  C   UNL     1      -4.867   2.200  24.926  0.00  0.00    +0.082 A 
ATOM     26  C   UNL     1      -5.123   2.621  25.587  0.00  0.00    +0.145 A 
ATOM     27  F   UNL     1      -5.529   2.235  26.193  0.00  0.00    -0.204 F 
ATOM     28  C   UNL     1      -4.974   3.432  25.644  0.00  0.00    +0.030 A 
ATOM     29  C   UNL     1      -4.569   3.818  25.038  0.00  0.00    +0.002 A 
ATOM     30  C   UNL     1      -4.313   3.396  24.377  0.00  0.00    +0.000 A 
ATOM     31  C   UNL     1      -4.462   2.588  24.321  0.00  0.00    +0.007 A 
ENDBRANCH  23  25
ENDBRANCH  21  22
ENDBRANCH  20  21
TORSDOF 7
ENDMDL
MODEL 7
REMARK VINA RESULT:     -11.3      1.750      4.609
REMARK  Name = 
REMARK  7 active torsions:
REMARK  status: ('A' for Active; 'I' for Inactive)
REMARK    1  A    between atoms: C_5  and  C_6
REMARK    2  A    between atoms: C_6  and  C_7
REMARK    3  A    between atoms: C_10  and  C_11
REMARK    4  A    between atoms: C_11  and  N_12
REMARK    5  A    between atoms: C_20  and  C_21
REMARK    6  A    between atoms: C_21  and  N_22
REMARK    7  A    between atoms: C_23  and  C_25
REMARK                            x       y       z     vdW  Elec       q    Type
REMARK                         _______ _______ _______ _____ _____    ______ ____
ROOT
ATOM      1  O   UNL     1      -0.713  -1.716  25.243  0.00  0.00    -0.220 OA
ATOM      2  C   UNL     1      -1.465  -1.492  24.992  0.00  0.00    +0.181 C 
ATOM      3  C   UNL     1      -2.104  -2.003  25.097  0.00  0.00    +0.038 C 
ATOM      4  C   UNL     1      -2.858  -1.779  24.845  0.00  0.00    +0.033 C 
ATOM      5  C   UNL     1      -2.971  -1.044  24.488  0.00  0.00    +0.121 C 
ATOM     19  O   UNL     1      -2.332  -0.533  24.382  0.00  0.00    -0.354 OA
ATOM     20  C   UNL     1      -1.580  -0.757  24.634  0.00  0.00    +0.167 C 
ENDROOT
BRANCH   5   6
ATOM      6  C   UNL     1      -3.725  -0.820  24.236  0.00  0.00    +0.079 C 
BRANCH   6   7
ATOM      7  C   UNL     1      -4.128  -0.216  24.626  0.00  0.00    +0.103 A 
ATOM      8  N   UNL     1      -4.266  -0.172  25.439  0.00  0.00    -0.082 NA
ATOM      9  O   UNL     1      -4.687   0.521  25.588  0.00  0.00    -0.357 OA
ATOM     10  C   UNL     1      -4.809   0.905  24.868  0.00  0.00    +0.170 A 
ATOM     18  C   UNL     1      -4.464   0.450  24.274  0.00  0.00    +0.055 A 
BRANCH  10  11
ATOM     11  C   UNL     1      -5.208   1.620  24.761  0.00  0.00    +0.141 C 
BRANCH  11  12
ATOM     12  N   UNL     1      -4.808   2.334  24.863  0.00  0.00    -0.264 NA
ATOM     13  C   UNL     1      -4.419   2.683  24.224  0.00  0.00    +0.091 C 
ATOM     14  C   UNL     1      -4.020   3.398  24.325  0.00  0.00    +0.106 C 
ATOM     15  N   UNL     1      -4.008   3.764  25.065  0.00  0.00    -0.215 NA
ATOM     16  C   UNL     1      -4.397   3.414  25.703  0.00  0.00    +0.106 C 
ATOM     17  C   UNL     1      -4.797   2.700  25.603  0.00  0.00    +0.091 C 
ENDBRANCH  11  12
ENDBRANCH  10  11
ENDBRANCH   6   7
ENDBRANCH   5   6
BRANCH  20  21
ATOM     21  C   UNL     1      -0.941  -0.246  24.529  0.00  0.00    +0.147 C 
BRANCH  21  22
ATOM     22  N   UNL     1      -0.967   0.518  24.840  0.00  0.00    -0.199 NA
ATOM     23  C   UNL     1      -0.403   1.075  24.614  0.00  0.00    +0.267 C 
ATOM     24  O   UNL     1       0.189   0.868  24.077  0.00  0.00    -0.268 OA
BRANCH  23  25
ATOM     25  C   UNL     1      -0.429   1.838  24.925  0.00  0.00    +0.082 A 
ATOM     26  C   UNL     1      -0.589   2.480  24.431  0.00  0.00    +0.145 A 
ATOM     27  F   UNL     1      -0.721   2.358  23.626  0.00  0.00    -0.204 F 
ATOM     28  C   UNL     1      -0.616   3.244  24.742  0.00  0.00    +0.030 A 
ATOM     29  C   UNL     1      -0.483   3.366  25.547  0.00  0.00    +0.002 A 
ATOM     30  C   UNL     1      -0.324   2.725  26.041  0.00  0.00    +0.000 A 
ATOM     31  C   UNL     1      -0.297   1.962  25.730  0.00  0.00    +0.007 A 
ENDBRANCH  23  25
ENDBRANCH  21  22
ENDBRANCH  20  21
TORSDOF 7
ENDMDL
MODEL 8
REMARK VINA RESULT:      -8.7     15.939     18.665
REMARK  Name = 
REMARK  7 active torsions:
REMARK  status: ('A' for Active; 'I' for Inactive)
REMARK    1  A    between atoms: C_5  and  C_6
REMARK    2  A    between atoms: C_6  and  C_7
REMARK    3  A    between atoms: C_10  and  C_11
REMARK    4  A    between atoms: C_11  and  N_12
REMARK    5  A    between atoms: C_20  and  C_21
REMARK    6  A    between atoms: C_21  and  N_22
REMARK    7  A    between atoms: C_23  and  C_25
REMARK                            x       y       z     vdW  Elec       q    Type
REMARK                         _______ _______ _______ _____ _____    ______ ____
ROOT
ATOM      1  O   UNL     1      14.178   7.290  16.561  0.00  0.00    -0.220 OA
ATOM      2  C   UNL     1      13.765   7.740  17.114  0.00  0.00    +0.181 C 
ATOM      3  C   UNL     1      13.156   8.239  16.868  0.00  0.00    +0.038 C 
ATOM      4  C   UNL     1      12.742   8.690  17.422  0.00  0.00    +0.033 C 
ATOM      5  C   UNL     1      12.938   8.641  18.222  0.00  0.00    +0.121 C 
ATOM     19  O   UNL     1      13.547   8.142  18.468  0.00  0.00    -0.354 OA
ATOM     20  C   UNL     1      13.960   7.692  17.915  0.00  0.00    +0.167 C 
ENDROOT
BRANCH   5   6
ATOM      6  C   UNL     1      12.524   9.093  18.776  0.00  0.00    +0.079 C 
BRANCH   6   7
ATOM      7  C   UNL     1      11.965   8.734  19.265  0.00  0.00    +0.103 A 
ATOM      8  N   UNL     1      11.270   8.364  19.016  0.00  0.00    -0.082 NA
ATOM      9  O   UNL     1      10.877   8.085  19.685  0.00  0.00    -0.357 OA
ATOM     10  C   UNL     1      11.329   8.281  20.347  0.00  0.00    +0.170 A 
ATOM     18  C   UNL     1      12.001   8.682  20.087  0.00  0.00    +0.055 A 
BRANCH  10  11
ATOM     11  C   UNL     1      11.141   8.107  21.132  0.00  0.00    +0.141 C 
BRANCH  11  12
ATOM     12  N   UNL     1      11.098   7.322  21.380  0.00  0.00    -0.264 NA
ATOM     13  C   UNL     1      10.398   7.032  21.709  0.00  0.00    +0.091 C 
ATOM     14  C   UNL     1      10.354   6.247  21.958  0.00  0.00    +0.106 C 
ATOM     15  N   UNL     1      11.009   5.751  21.879  0.00  0.00    -0.215 NA
ATOM     16  C   UNL     1      11.708   6.042  21.551  0.00  0.00    +0.106 C 
ATOM     17  C   UNL     1      11.753   6.826  21.302  0.00  0.00    +0.091 C 
ENDBRANCH  11  12
ENDBRANCH  10  11
ENDBRANCH   6   7
ENDBRANCH   5   6
BRANCH  20  21
ATOM     21  C   UNL     1      14.569   7.193  18.161  0.00  0.00    +0.147 C 
BRANCH  21  22
ATOM     22  N   UNL     1      14.959   7.338  18.874  0.00  0.00    -0.199 NA
ATOM     23  C   UNL     1      15.511   6.795  19.160  0.00  0.00    +0.267 C 
ATOM     24  O   UNL     1      15.672   6.108  18.734  0.00  0.00    -0.268 OA
BRANCH  23  25
ATOM     25  C   UNL     1      15.900   6.940  19.872  0.00  0.00    +0.082 A 
ATOM     26  C   UNL     1      15.626   6.596  20.570  0.00  0.00    +0.145 A 
ATOM     27  F   UNL     1      14.963   6.106  20.556  0.00  0.00    -0.204 F 
ATOM     28  C   UNL     1      16.016   6.741  21.283  0.00  0.00    +0.030 A 
ATOM     29  C   UNL     1      16.679   7.231  21.297  0.00  0.00    +0.002 A 
ATOM     30  C   UNL     1      16.953   7.576  20.600  0.00  0.00    +0.000 A 
ATOM     31  C   UNL     1      16.564   7.430  19.888  0.00  0.00    +0.007 A 
ENDBRANCH  23  25
ENDBRANCH  21  22
ENDBRANCH  20  21
TORSDOF 7
ENDMDL
