REMARK  Name = 
REMARK  7 active torsions:
REMARK  status: ('A' for Active; 'I' for Inactive)
REMARK    1  A    between atoms: N_7  and  C_10
REMARK    2  A    between atoms: C_12  and  C_16
REMARK    3  A    between atoms: C_19  and  C_21
REMARK    4  A    between atoms: N_25  and  C_26
REMARK    5  A    between atoms: C_26  and  C_27
REMARK    6  A    between atoms: C_27  and  C_28
REMARK    7  A    between atoms: C_28  and  C_29
REMARK                            x       y       z     vdW  Elec       q    Type
REMARK                         _______ _______ _______ _____ _____    ______ ____
ROOT
ATOM     16  C   UNL     1       3.215  -0.357   0.000  0.00  0.00    +0.203 A 
ATOM     17  N   UNL     1       2.547  -0.842   0.000  0.00  0.00    -0.056 NA
ATOM     18  O   UNL     1       2.802  -1.626   0.000  0.00  0.00    -0.336 OA
ATOM     19  C   UNL     1       3.627  -1.626   0.000  0.00  0.00    +0.251 A 
ATOM     20  N   UNL     1       3.882  -0.842   0.000  0.00  0.00    -0.190 NA
ENDROOT
BRANCH  16  12
ATOM     10  C   UNL     1       2.500   1.706   0.000  0.00  0.00    +0.132 A 
ATOM     11  C   UNL     1       2.500   0.881   0.000  0.00  0.00    +0.037 A 
ATOM     12  C   UNL     1       3.215   0.468   0.000  0.00  0.00    +0.043 A 
ATOM     13  C   UNL     1       3.929   0.881   0.000  0.00  0.00    +0.024 A 
ATOM     14  C   UNL     1       3.929   1.706   0.000  0.00  0.00    +0.100 A 
ATOM     15  N   UNL     1       3.215   2.118   0.000  0.00  0.00    -0.229 NA
BRANCH  10   7
ATOM      1  C   UNL     1      -1.072   2.943   0.000  0.00  0.00    +0.095 C 
ATOM      2  C   UNL     1      -0.358   3.356   0.000  0.00  0.00    +0.226 C 
ATOM      3  O   UNL     1      -0.358   4.181   0.000  0.00  0.00    -0.275 OA
ATOM      4  N   UNL     1       0.357   2.943   0.000  0.00  0.00    -0.276 N 
ATOM      5  C   UNL     1       1.071   3.356   0.000  0.00  0.00    +0.115 C 
ATOM      6  C   UNL     1       1.786   2.943   0.000  0.00  0.00    +0.114 C 
ATOM      7  N   UNL     1       1.786   2.118   0.000  0.00  0.00    -0.290 N 
ATOM      8  C   UNL     1       1.071   1.706   0.000  0.00  0.00    +0.114 C 
ATOM      9  C   UNL     1       0.357   2.118   0.000  0.00  0.00    +0.115 C 
ENDBRANCH  10   7
ENDBRANCH  16  12
BRANCH  19  21
ATOM     21  C   UNL     1       4.112  -2.294   0.000  0.00  0.00    +0.138 C 
ATOM     22  C   UNL     1       4.937  -2.294   0.000  0.00  0.00    +0.027 C 
ATOM     23  C   UNL     1       5.192  -3.078   0.000  0.00  0.00    +0.019 C 
ATOM     24  C   UNL     1       4.524  -3.563   0.000  0.00  0.00    +0.073 C 
ATOM     25  N   UNL     1       3.857  -3.078   0.000  0.00  0.00    -0.266 NA
BRANCH  25  26
ATOM     26  C   UNL     1       3.072  -3.333   0.000  0.00  0.00    +0.073 C 
BRANCH  26  27
ATOM     27  C   UNL     1       2.459  -2.781   0.000  0.00  0.00    +0.022 C 
BRANCH  27  28
ATOM     28  C   UNL     1       1.675  -3.036   0.000  0.00  0.00    +0.028 C 
BRANCH  28  29
ATOM     29  C   UNL     1       1.062  -2.484   0.000  0.00  0.00    -0.022 A 
ATOM     30  C   UNL     1       0.277  -2.739   0.000  0.00  0.00    -0.004 A 
ATOM     31  C   UNL     1      -0.336  -2.187   0.000  0.00  0.00    -0.000 A 
ATOM     32  C   UNL     1      -0.165  -1.380   0.000  0.00  0.00    -0.000 A 
ATOM     33  C   UNL     1       0.620  -1.125   0.000  0.00  0.00    -0.000 A 
ATOM     34  C   UNL     1       1.233  -1.677   0.000  0.00  0.00    -0.004 A 
ENDBRANCH  28  29
ENDBRANCH  27  28
ENDBRANCH  26  27
ENDBRANCH  25  26
ENDBRANCH  19  21
TORSDOF 7
