MODEL 1
REMARK VINA RESULT:     -10.2      0.000      0.000
REMARK  Name = 
REMARK  4 active torsions:
REMARK  status: ('A' for Active; 'I' for Inactive)
REMARK    1  A    between atoms: O_2  and  C_3
REMARK    2  A    between atoms: C_6  and  C_7
REMARK    3  A    between atoms: C_7  and  N_8
REMARK    4  A    between atoms: N_12  and  S_18
REMARK                            x       y       z     vdW  Elec       q    Type
REMARK                         _______ _______ _______ _____ _____    ______ ____
ROOT
ATOM      8  N   UNL     1      -4.158   1.186  24.932  0.00  0.00    -0.258 N 
ATOM      9  C   UNL     1      -3.355   1.274  25.105  0.00  0.00    +0.117 C 
ATOM     10  C   UNL     1      -3.154   2.064  24.980  0.00  0.00    +0.114 C 
ATOM     11  C   UNL     1      -2.441   2.471  25.062  0.00  0.00    +0.117 C 
ATOM     12  N   UNL     1      -2.405   3.278  24.894  0.00  0.00    -0.156 NA
ATOM     13  C   UNL     1      -3.082   3.678  24.645  0.00  0.00    +0.117 C 
ATOM     14  C   UNL     1      -3.795   3.271  24.563  0.00  0.00    +0.114 C 
ATOM     15  N   UNL     1      -3.831   2.464  24.731  0.00  0.00    -0.261 N 
ATOM     16  C   UNL     1      -4.451   1.921  24.701  0.00  0.00    +0.308 C 
ATOM     17  O   UNL     1      -5.229   2.085  24.479  0.00  0.00    -0.252 OA
ENDROOT
BRANCH  12  18
ATOM     18  S   UNL     1      -1.692   3.685  24.976  0.00  0.00    +0.046 S 
ATOM     19  C   UNL     1      -0.980   4.093  25.058  0.00  0.00    +0.196 C 
ATOM     20  O   UNL     1      -1.408   3.327  24.290  0.00  0.00    -0.157 OA
ATOM     21  O   UNL     1      -1.977   4.045  25.663  0.00  0.00    -0.157 OA
ENDBRANCH  12  18
BRANCH   8   7
ATOM      7  C   UNL     1      -4.590   0.485  24.982  0.00  0.00    +0.122 C 
BRANCH   7   6
ATOM      3  C   UNL     1      -3.475  -1.689  24.589  0.00  0.00    +0.139 A 
ATOM      4  C   UNL     1      -3.507  -1.374  25.350  0.00  0.00    +0.037 A 
ATOM      5  C   UNL     1      -3.878  -0.649  25.482  0.00  0.00    +0.001 A 
ATOM      6  C   UNL     1      -4.218  -0.240  24.851  0.00  0.00    -0.002 A 
ATOM     22  C   UNL     1      -4.187  -0.555  24.089  0.00  0.00    +0.001 A 
ATOM     23  C   UNL     1      -3.815  -1.280  23.959  0.00  0.00    +0.037 A 
BRANCH   3   2
ATOM      1  C   UNL     1      -2.281  -2.468  24.485  0.00  0.00    +0.252 C 
ATOM      2  O   UNL     1      -3.104  -2.414  24.457  0.00  0.00    -0.471 OA
ENDBRANCH   3   2
ENDBRANCH   7   6
ENDBRANCH   8   7
TORSDOF 4
ENDMDL
MODEL 2
REMARK VINA RESULT:      -9.2      2.114      4.097
REMARK  Name = 
REMARK  4 active torsions:
REMARK  status: ('A' for Active; 'I' for Inactive)
REMARK    1  A    between atoms: O_2  and  C_3
REMARK    2  A    between atoms: C_6  and  C_7
REMARK    3  A    between atoms: C_7  and  N_8
REMARK    4  A    between atoms: N_12  and  S_18
REMARK                            x       y       z     vdW  Elec       q    Type
REMARK                         _______ _______ _______ _____ _____    ______ ____
ROOT
ATOM      8  N   UNL     1      -2.481   2.033  24.011  0.00  0.00    -0.258 N 
ATOM      9  C   UNL     1      -2.642   1.263  24.262  0.00  0.00    +0.117 C 
ATOM     10  C   UNL     1      -1.922   0.878  24.380  0.00  0.00    +0.114 C 
ATOM     11  C   UNL     1      -1.739   0.113  24.627  0.00  0.00    +0.117 C 
ATOM     12  N   UNL     1      -0.952  -0.122  24.696  0.00  0.00    -0.156 NA
ATOM     13  C   UNL     1      -0.346   0.409  24.519  0.00  0.00    +0.117 C 
ATOM     14  C   UNL     1      -0.528   1.175  24.272  0.00  0.00    +0.114 C 
ATOM     15  N   UNL     1      -1.317   1.410  24.203  0.00  0.00    -0.261 N 
ATOM     16  C   UNL     1      -1.662   2.123  23.975  0.00  0.00    +0.308 C 
ATOM     17  O   UNL     1      -1.259   2.807  23.750  0.00  0.00    -0.252 OA
ENDROOT
BRANCH  12  18
ATOM     18  S   UNL     1      -0.769  -0.888  24.943  0.00  0.00    +0.046 S 
ATOM     19  C   UNL     1      -0.586  -1.654  25.188  0.00  0.00    +0.196 C 
ATOM     20  O   UNL     1      -0.944  -0.680  25.721  0.00  0.00    -0.157 OA
ATOM     21  O   UNL     1      -0.594  -1.096  24.163  0.00  0.00    -0.157 OA
ENDBRANCH  12  18
BRANCH   8   7
ATOM      7  C   UNL     1      -3.041   2.610  23.829  0.00  0.00    +0.122 C 
BRANCH   7   6
ATOM      3  C   UNL     1      -5.016   2.926  25.287  0.00  0.00    +0.139 A 
ATOM      4  C   UNL     1      -5.057   2.413  24.643  0.00  0.00    +0.037 A 
ATOM      5  C   UNL     1      -4.399   2.307  24.156  0.00  0.00    +0.001 A 
ATOM      6  C   UNL     1      -3.699   2.715  24.314  0.00  0.00    -0.002 A 
ATOM     22  C   UNL     1      -3.658   3.229  24.960  0.00  0.00    +0.001 A 
ATOM     23  C   UNL     1      -4.316   3.334  25.445  0.00  0.00    +0.037 A 
BRANCH   3   2
ATOM      1  C   UNL     1      -6.094   2.377  26.048  0.00  0.00    +0.252 C 
ATOM      2  O   UNL     1      -5.674   3.031  25.774  0.00  0.00    -0.471 OA
ENDBRANCH   3   2
ENDBRANCH   7   6
ENDBRANCH   8   7
TORSDOF 4
ENDMDL
MODEL 3
REMARK VINA RESULT:      -9.1      1.986      4.662
REMARK  Name = 
REMARK  4 active torsions:
REMARK  status: ('A' for Active; 'I' for Inactive)
REMARK    1  A    between atoms: O_2  and  C_3
REMARK    2  A    between atoms: C_6  and  C_7
REMARK    3  A    between atoms: C_7  and  N_8
REMARK    4  A    between atoms: N_12  and  S_18
REMARK                            x       y       z     vdW  Elec       q    Type
REMARK                         _______ _______ _______ _____ _____    ______ ____
ROOT
ATOM      8  N   UNL     1      -2.347   1.226  24.157  0.00  0.00    -0.258 N 
ATOM      9  C   UNL     1      -2.995   0.716  24.187  0.00  0.00    +0.117 C 
ATOM     10  C   UNL     1      -2.720  -0.033  24.393  0.00  0.00    +0.114 C 
ATOM     11  C   UNL     1      -3.107  -0.753  24.504  0.00  0.00    +0.117 C 
ATOM     12  N   UNL     1      -2.678  -1.425  24.713  0.00  0.00    -0.156 NA
ATOM     13  C   UNL     1      -1.860  -1.379  24.810  0.00  0.00    +0.117 C 
ATOM     14  C   UNL     1      -1.471  -0.660  24.698  0.00  0.00    +0.114 C 
ATOM     15  N   UNL     1      -1.902   0.013  24.490  0.00  0.00    -0.261 N 
ATOM     16  C   UNL     1      -1.671   0.791  24.344  0.00  0.00    +0.308 C 
ATOM     17  O   UNL     1      -0.900   1.084  24.379  0.00  0.00    -0.252 OA
ENDROOT
BRANCH  12  18
ATOM     18  S   UNL     1      -3.066  -2.145  24.825  0.00  0.00    +0.046 S 
ATOM     19  C   UNL     1      -3.453  -2.865  24.936  0.00  0.00    +0.196 C 
ATOM     20  O   UNL     1      -3.453  -1.835  25.484  0.00  0.00    -0.157 OA
ATOM     21  O   UNL     1      -2.679  -2.455  24.165  0.00  0.00    -0.157 OA
ENDBRANCH  12  18
BRANCH   8   7
ATOM      7  C   UNL     1      -2.370   2.030  23.972  0.00  0.00    +0.122 C 
BRANCH   7   6
ATOM      3  C   UNL     1      -4.160   3.463  24.902  0.00  0.00    +0.139 A 
ATOM      4  C   UNL     1      -3.476   3.323  25.339  0.00  0.00    +0.037 A 
ATOM      5  C   UNL     1      -2.878   2.845  25.030  0.00  0.00    +0.001 A 
ATOM      6  C   UNL     1      -2.967   2.508  24.282  0.00  0.00    -0.002 A 
ATOM     22  C   UNL     1      -3.653   2.648  23.844  0.00  0.00    +0.001 A 
ATOM     23  C   UNL     1      -4.249   3.125  24.155  0.00  0.00    +0.037 A 
BRANCH   3   2
ATOM      1  C   UNL     1      -5.410   3.599  25.581  0.00  0.00    +0.252 C 
ATOM      2  O   UNL     1      -4.758   3.941  25.212  0.00  0.00    -0.471 OA
ENDBRANCH   3   2
ENDBRANCH   7   6
ENDBRANCH   8   7
TORSDOF 4
ENDMDL
MODEL 4
REMARK VINA RESULT:      -9.1      1.487      4.442
REMARK  Name = 
REMARK  4 active torsions:
REMARK  status: ('A' for Active; 'I' for Inactive)
REMARK    1  A    between atoms: O_2  and  C_3
REMARK    2  A    between atoms: C_6  and  C_7
REMARK    3  A    between atoms: C_7  and  N_8
REMARK    4  A    between atoms: N_12  and  S_18
REMARK                            x       y       z     vdW  Elec       q    Type
REMARK                         _______ _______ _______ _____ _____    ______ ____
ROOT
ATOM      8  N   UNL     1      -3.908   1.725  24.737  0.00  0.00    -0.258 N 
ATOM      9  C   UNL     1      -3.188   1.370  24.545  0.00  0.00    +0.117 C 
ATOM     10  C   UNL     1      -3.245   0.567  24.725  0.00  0.00    +0.114 C 
ATOM     11  C   UNL     1      -2.708  -0.055  24.653  0.00  0.00    +0.117 C 
ATOM     12  N   UNL     1      -2.924  -0.816  24.882  0.00  0.00    -0.156 NA
ATOM     13  C   UNL     1      -3.679  -0.957  25.185  0.00  0.00    +0.117 C 
ATOM     14  C   UNL     1      -4.217  -0.336  25.258  0.00  0.00    +0.114 C 
ATOM     15  N   UNL     1      -4.000   0.426  25.027  0.00  0.00    -0.261 N 
ATOM     16  C   UNL     1      -4.409   1.142  25.035  0.00  0.00    +0.308 C 
ATOM     17  O   UNL     1      -5.184   1.255  25.294  0.00  0.00    -0.252 OA
ENDROOT
BRANCH  12  18
ATOM     18  S   UNL     1      -2.387  -1.438  24.810  0.00  0.00    +0.046 S 
ATOM     19  C   UNL     1      -1.849  -2.060  24.739  0.00  0.00    +0.196 C 
ATOM     20  O   UNL     1      -2.839  -1.759  24.200  0.00  0.00    -0.157 OA
ATOM     21  O   UNL     1      -1.934  -1.117  25.421  0.00  0.00    -0.157 OA
ENDBRANCH  12  18
BRANCH   8   7
ATOM      7  C   UNL     1      -4.093   2.524  24.646  0.00  0.00    +0.122 C 
BRANCH   7   6
ATOM      3  C   UNL     1      -2.478   4.260  25.355  0.00  0.00    +0.139 A 
ATOM      4  C   UNL     1      -2.468   3.980  24.579  0.00  0.00    +0.037 A 
ATOM      5  C   UNL     1      -3.007   3.401  24.342  0.00  0.00    +0.001 A 
ATOM      6  C   UNL     1      -3.555   3.102  24.882  0.00  0.00    -0.002 A 
ATOM     22  C   UNL     1      -3.565   3.383  25.658  0.00  0.00    +0.001 A 
ATOM     23  C   UNL     1      -3.026   3.961  25.894  0.00  0.00    +0.037 A 
BRANCH   3   2
ATOM      1  C   UNL     1      -1.291   5.020  25.116  0.00  0.00    +0.252 C 
ATOM      2  O   UNL     1      -1.939   4.838  25.592  0.00  0.00    -0.471 OA
ENDBRANCH   3   2
ENDBRANCH   7   6
ENDBRANCH   8   7
TORSDOF 4
ENDMDL
MODEL 5
REMARK VINA RESULT:      -9.1      1.430      2.163
REMARK  Name = 
REMARK  4 active torsions:
REMARK  status: ('A' for Active; 'I' for Inactive)
REMARK    1  A    between atoms: O_2  and  C_3
REMARK    2  A    between atoms: C_6  and  C_7
REMARK    3  A    between atoms: C_7  and  N_8
REMARK    4  A    between atoms: N_12  and  S_18
REMARK                            x       y       z     vdW  Elec       q    Type
REMARK                         _______ _______ _______ _____ _____    ______ ____
ROOT
ATOM      8  N   UNL     1      -1.956   0.239  25.374  0.00  0.00    -0.258 N 
ATOM      9  C   UNL     1      -2.698   0.565  25.217  0.00  0.00    +0.117 C 
ATOM     10  C   UNL     1      -2.589   1.353  25.000  0.00  0.00    +0.114 C 
ATOM     11  C   UNL     1      -3.122   1.945  24.785  0.00  0.00    +0.117 C 
ATOM     12  N   UNL     1      -2.846   2.698  24.592  0.00  0.00    -0.156 NA
ATOM     13  C   UNL     1      -2.037   2.859  24.615  0.00  0.00    +0.117 C 
ATOM     14  C   UNL     1      -1.504   2.268  24.830  0.00  0.00    +0.114 C 
ATOM     15  N   UNL     1      -1.780   1.514  25.023  0.00  0.00    -0.261 N 
ATOM     16  C   UNL     1      -1.389   0.826  25.253  0.00  0.00    +0.308 C 
ATOM     17  O   UNL     1      -0.574   0.739  25.348  0.00  0.00    -0.252 OA
ENDROOT
BRANCH  12  18
ATOM     18  S   UNL     1      -3.379   3.290  24.377  0.00  0.00    +0.046 S 
ATOM     19  C   UNL     1      -3.911   3.883  24.163  0.00  0.00    +0.196 C 
ATOM     20  O   UNL     1      -3.425   2.974  23.617  0.00  0.00    -0.157 OA
ATOM     21  O   UNL     1      -3.332   3.607  25.138  0.00  0.00    -0.157 OA
ENDBRANCH  12  18
BRANCH   8   7
ATOM      7  C   UNL     1      -1.808  -0.538  25.609  0.00  0.00    +0.122 C 
BRANCH   7   6
ATOM      3  C   UNL     1      -3.183  -2.389  24.711  0.00  0.00    +0.139 A 
ATOM      4  C   UNL     1      -3.451  -1.953  25.357  0.00  0.00    +0.037 A 
ATOM      5  C   UNL     1      -2.993  -1.335  25.657  0.00  0.00    +0.001 A 
ATOM      6  C   UNL     1      -2.266  -1.155  25.310  0.00  0.00    -0.002 A 
ATOM     22  C   UNL     1      -1.998  -1.592  24.663  0.00  0.00    +0.001 A 
ATOM     23  C   UNL     1      -2.456  -2.209  24.364  0.00  0.00    +0.037 A 
BRANCH   3   2
ATOM      1  C   UNL     1      -4.233  -2.851  23.859  0.00  0.00    +0.252 C 
ATOM      2  O   UNL     1      -3.640  -3.007  24.411  0.00  0.00    -0.471 OA
ENDBRANCH   3   2
ENDBRANCH   7   6
ENDBRANCH   8   7
TORSDOF 4
ENDMDL
MODEL 6
REMARK VINA RESULT:      -8.4      1.747      2.747
REMARK  Name = 
REMARK  4 active torsions:
REMARK  status: ('A' for Active; 'I' for Inactive)
REMARK    1  A    between atoms: O_2  and  C_3
REMARK    2  A    between atoms: C_6  and  C_7
REMARK    3  A    between atoms: C_7  and  N_8
REMARK    4  A    between atoms: N_12  and  S_18
REMARK                            x       y       z     vdW  Elec       q    Type
REMARK                         _______ _______ _______ _____ _____    ______ ____
ROOT
ATOM      8  N   UNL     1      -1.326   1.672  25.031  0.00  0.00    -0.258 N 
ATOM      9  C   UNL     1      -2.107   1.503  25.236  0.00  0.00    +0.117 C 
ATOM     10  C   UNL     1      -2.556   2.183  25.111  0.00  0.00    +0.114 C 
ATOM     11  C   UNL     1      -3.358   2.343  25.218  0.00  0.00    +0.117 C 
ATOM     12  N   UNL     1      -3.657   3.091  25.043  0.00  0.00    -0.156 NA
ATOM     13  C   UNL     1      -3.154   3.680  24.761  0.00  0.00    +0.117 C 
ATOM     14  C   UNL     1      -2.352   3.522  24.653  0.00  0.00    +0.114 C 
ATOM     15  N   UNL     1      -2.053   2.772  24.829  0.00  0.00    -0.261 N 
ATOM     16  C   UNL     1      -1.293   2.457  24.779  0.00  0.00    +0.308 C 
ATOM     17  O   UNL     1      -0.617   2.855  24.522  0.00  0.00    -0.252 OA
ENDROOT
BRANCH  12  18
ATOM     18  S   UNL     1      -4.460   3.251  25.150  0.00  0.00    +0.046 S 
ATOM     19  C   UNL     1      -5.262   3.411  25.258  0.00  0.00    +0.196 C 
ATOM     20  O   UNL     1      -4.620   2.955  24.397  0.00  0.00    -0.157 OA
ATOM     21  O   UNL     1      -4.300   3.547  25.904  0.00  0.00    -0.157 OA
ENDBRANCH  12  18
BRANCH   8   7
ATOM      7  C   UNL     1      -0.690   1.148  25.070  0.00  0.00    +0.122 C 
BRANCH   7   6
ATOM      3  C   UNL     1      -1.076  -1.287  24.848  0.00  0.00    +0.139 A 
ATOM      4  C   UNL     1      -0.879  -0.838  24.185  0.00  0.00    +0.037 A 
ATOM      5  C   UNL     1      -0.751  -0.027  24.258  0.00  0.00    +0.001 A 
ATOM      6  C   UNL     1      -0.818   0.336  24.995  0.00  0.00    -0.002 A 
ATOM     22  C   UNL     1      -1.015  -0.113  25.660  0.00  0.00    +0.001 A 
ATOM     23  C   UNL     1      -1.143  -0.924  25.586  0.00  0.00    +0.037 A 
BRANCH   3   2
ATOM      1  C   UNL     1      -1.941  -2.380  24.533  0.00  0.00    +0.252 C 
ATOM      2  O   UNL     1      -1.204  -2.099  24.775  0.00  0.00    -0.471 OA
ENDBRANCH   3   2
ENDBRANCH   7   6
ENDBRANCH   8   7
TORSDOF 4
ENDMDL
