REMARK  Name = 
REMARK  10 active torsions:
REMARK  status: ('A' for Active; 'I' for Inactive)
REMARK    1  A    between atoms: C_2  and  C_4
REMARK    2  A    between atoms: C_6  and  C_7
REMARK    3  A    between atoms: C_7  and  C_8
REMARK    4  A    between atoms: N_10  and  C_11
REMARK    5  A    between atoms: C_11  and  C_12
REMARK    6  A    between atoms: C_15  and  C_18
REMARK    7  A    between atoms: C_23  and  C_24
REMARK    8  A    between atoms: C_24  and  N_25
REMARK    9  A    between atoms: N_25  and  S_26
REMARK   10  A    between atoms: S_26  and  C_29
REMARK                            x       y       z     vdW  Elec       q    Type
REMARK                         _______ _______ _______ _____ _____    ______ ____
ROOT
ATOM      4  C   UNL     1      -2.858  -2.475   0.000  0.00  0.00    +0.006 C 
ATOM      5  C   UNL     1      -2.143  -2.062   0.000  0.00  0.00    +0.005 C 
ATOM      6  C   UNL     1      -1.429  -2.475   0.000  0.00  0.00    +0.027 C 
ATOM     20  C   UNL     1      -1.429  -3.300   0.000  0.00  0.00    -0.048 C 
ATOM     21  C   UNL     1      -0.715  -3.712   0.000  0.00  0.00    +0.026 C 
ATOM     22  C   UNL     1      -2.143  -3.712   0.000  0.00  0.00    -0.033 C 
ATOM     23  C   UNL     1      -2.858  -3.300   0.000  0.00  0.00    +0.041 C 
ENDROOT
BRANCH   4   2
ATOM      1  C   UNL     1      -4.287  -2.475   0.000  0.00  0.00    +0.000 C 
ATOM      2  C   UNL     1      -3.572  -2.062   0.000  0.00  0.00    +0.000 C 
ATOM      3  C   UNL     1      -3.572  -1.238   0.000  0.00  0.00    +0.000 C 
ENDBRANCH   4   2
BRANCH   6   7
ATOM      7  C   UNL     1      -0.715  -2.062   0.000  0.00  0.00    +0.091 C 
BRANCH   7   8
ATOM      8  C   UNL     1       0.000  -2.475   0.000  0.00  0.00    +0.242 C 
ATOM      9  O   UNL     1       0.000  -3.300   0.000  0.00  0.00    -0.273 OA
ATOM     10  N   UNL     1       0.715  -2.062   0.000  0.00  0.00    -0.201 NA
BRANCH  10  11
ATOM     11  C   UNL     1       1.429  -2.475   0.000  0.00  0.00    +0.141 C 
BRANCH  11  12
ATOM     12  C   UNL     1       2.143  -2.062   0.000  0.00  0.00    -0.001 A 
ATOM     13  C   UNL     1       2.143  -1.238   0.000  0.00  0.00    -0.002 A 
ATOM     14  C   UNL     1       2.858  -0.825   0.000  0.00  0.00    +0.010 A 
ATOM     15  C   UNL     1       3.572  -1.238   0.000  0.00  0.00    +0.068 A 
ATOM     16  C   UNL     1       3.572  -2.062   0.000  0.00  0.00    +0.010 A 
ATOM     17  C   UNL     1       2.858  -2.475   0.000  0.00  0.00    -0.002 A 
BRANCH  15  18
ATOM     18  C   UNL     1       4.287  -0.825   0.000  0.00  0.00    +0.100 C 
ATOM     19  N   UNL     1       5.001  -0.412   0.000  0.00  0.00    -0.191 NA
ENDBRANCH  15  18
ENDBRANCH  11  12
ENDBRANCH  10  11
ENDBRANCH   7   8
ENDBRANCH   6   7
BRANCH  23  24
ATOM     24  C   UNL     1      -3.572  -3.712   0.000  0.00  0.00    +0.120 C 
BRANCH  24  25
ATOM     25  N   UNL     1      -3.572  -4.537   0.000  0.00  0.00    -0.077 NA
BRANCH  25  26
ATOM     26  S   UNL     1      -4.287  -4.950   0.000  0.00  0.00    +0.083 S 
ATOM     27  O   UNL     1      -4.699  -4.236   0.000  0.00  0.00    -0.151 OA
ATOM     28  O   UNL     1      -3.874  -5.665   0.000  0.00  0.00    -0.151 OA
BRANCH  26  29
ATOM     29  C   UNL     1      -5.001  -5.362   0.000  0.00  0.00    +0.153 A 
ATOM     30  C   UNL     1      -5.088  -6.183   0.000  0.00  0.00    +0.027 A 
ATOM     31  C   UNL     1      -5.894  -6.354   0.000  0.00  0.00    +0.009 A 
ATOM     32  C   UNL     1      -6.307  -5.640   0.000  0.00  0.00    +0.037 A 
ATOM     33  S   UNL     1      -5.755  -5.027   0.000  0.00  0.00    -0.067 S 
ENDBRANCH  26  29
ENDBRANCH  25  26
ENDBRANCH  24  25
ENDBRANCH  23  24
TORSDOF 10
