REMARK  Name = 
REMARK  4 active torsions:
REMARK  status: ('A' for Active; 'I' for Inactive)
REMARK    1  A    between atoms: O_2  and  C_3
REMARK    2  A    between atoms: C_3  and  C_4
REMARK    3  A    between atoms: C_11  and  O_13
REMARK    4  A    between atoms: O_13  and  C_14
REMARK                            x       y       z     vdW  Elec       q    Type
REMARK                         _______ _______ _______ _____ _____    ______ ____
ROOT
ATOM      4  C   UNL     1       0.712   0.220   0.000  0.00  0.00    +0.256 C 
ATOM      5  O   UNL     1       0.955  -0.569   0.000  0.00  0.00    -0.272 OA
ATOM      6  N   UNL     1       1.273   0.825   0.000  0.00  0.00    -0.271 N 
ATOM      7  C   UNL     1       0.971   1.593   0.000  0.00  0.00    +0.126 C 
ATOM      8  C   UNL     1       1.384   2.307   0.000  0.00  0.00    +0.164 C 
ATOM      9  O   UNL     1       2.200   2.430   0.000  0.00  0.00    -0.348 OA
ATOM     10  C   UNL     1       2.804   1.869   0.000  0.00  0.00    +0.187 C 
ATOM     11  C   UNL     1       2.743   1.046   0.000  0.00  0.00    +0.217 C 
ATOM     12  C   UNL     1       2.061   0.581   0.000  0.00  0.00    +0.140 C 
ENDROOT
BRANCH   4   3
ATOM      3  C   UNL     1      -0.093   0.403   0.000  0.00  0.00    +0.227 C 
BRANCH   3   2
ATOM      1  C   UNL     1      -1.458  -0.018   0.000  0.00  0.00    +0.175 C 
ATOM      2  O   UNL     1      -0.654  -0.202   0.000  0.00  0.00    -0.342 OA
ENDBRANCH   3   2
ENDBRANCH   4   3
BRANCH  11  13
ATOM     13  O   UNL     1       3.457   0.634   0.000  0.00  0.00    -0.459 OA
BRANCH  13  14
ATOM     14  C   UNL     1       3.457  -0.191   0.000  0.00  0.00    +0.245 A 
ATOM     15  C   UNL     1       4.172  -0.604   0.000  0.00  0.00    +0.156 A 
ATOM     16  N   UNL     1       4.172  -1.429   0.000  0.00  0.00    -0.236 NA
ATOM     17  C   UNL     1       3.457  -1.841   0.000  0.00  0.00    +0.120 A 
ATOM     18  C   UNL     1       2.743  -1.429   0.000  0.00  0.00    +0.123 A 
ATOM     19  N   UNL     1       2.743  -0.604   0.000  0.00  0.00    -0.207 NA
ENDBRANCH  13  14
ENDBRANCH  11  13
TORSDOF 4
