MODEL 1
REMARK VINA RESULT:     -11.5      0.000      0.000
REMARK  Name = 
REMARK  4 active torsions:
REMARK  status: ('A' for Active; 'I' for Inactive)
REMARK    1  A    between atoms: C_3  and  C_4
REMARK    2  A    between atoms: C_4  and  N_5
REMARK    3  A    between atoms: C_16  and  N_17
REMARK    4  A    between atoms: N_17  and  C_18
REMARK                            x       y       z     vdW  Elec       q    Type
REMARK                         _______ _______ _______ _____ _____    ______ ____
ROOT
ATOM      1  O   UNL     1      -4.864   1.300  25.363  0.00  0.00    -0.219 OA
ATOM      2  C   UNL     1      -4.284   1.115  24.806  0.00  0.00    +0.199 C 
ATOM      3  C   UNL     1      -3.733   1.639  24.487  0.00  0.00    +0.169 C 
ATOM     14  O   UNL     1      -3.262   1.221  23.954  0.00  0.00    -0.350 OA
ATOM     15  C   UNL     1      -3.522   0.439  23.942  0.00  0.00    +0.162 C 
ATOM     16  C   UNL     1      -4.154   0.372  24.469  0.00  0.00    +0.135 C 
ENDROOT
BRANCH   3   4
ATOM      4  C   UNL     1      -3.665   2.441  24.670  0.00  0.00    +0.149 C 
BRANCH   4   5
ATOM      5  N   UNL     1      -2.919   2.788  24.731  0.00  0.00    -0.186 NA
ATOM      6  C   UNL     1      -2.851   3.596  24.878  0.00  0.00    +0.323 C 
ATOM      7  O   UNL     1      -3.529   4.059  24.964  0.00  0.00    -0.251 OA
ATOM      8  N   UNL     1      -2.105   3.944  24.940  0.00  0.00    -0.258 N 
ATOM      9  C   UNL     1      -2.037   4.753  25.086  0.00  0.00    +0.127 C 
ATOM     10  C   UNL     1      -1.291   5.099  25.148  0.00  0.00    +0.164 C 
ATOM     11  O   UNL     1      -0.613   4.638  25.062  0.00  0.00    -0.350 OA
ATOM     12  C   UNL     1      -0.681   3.829  24.915  0.00  0.00    +0.164 C 
ATOM     13  C   UNL     1      -1.427   3.482  24.854  0.00  0.00    +0.127 C 
ENDBRANCH   4   5
ENDBRANCH   3   4
BRANCH  16  17
ATOM     17  N   UNL     1      -4.581  -0.314  24.630  0.00  0.00    -0.216 NA
BRANCH  17  18
ATOM     18  C   UNL     1      -4.201  -1.047  24.628  0.00  0.00    +0.073 C 
ATOM     19  C   UNL     1      -3.765  -1.288  25.284  0.00  0.00    +0.023 C 
ATOM     20  C   UNL     1      -3.385  -2.020  25.282  0.00  0.00    +0.068 C 
ATOM     21  C   UNL     1      -3.442  -2.512  24.622  0.00  0.00    +0.264 C 
ATOM     22  F   UNL     1      -2.968  -2.980  25.108  0.00  0.00    -0.204 F 
ATOM     23  F   UNL     1      -3.335  -3.166  24.131  0.00  0.00    -0.204 F 
ATOM     24  C   UNL     1      -3.879  -2.271  23.965  0.00  0.00    +0.068 C 
ATOM     25  C   UNL     1      -4.258  -1.538  23.968  0.00  0.00    +0.023 C 
ENDBRANCH  17  18
ENDBRANCH  16  17
TORSDOF 4
ENDMDL
MODEL 2
REMARK VINA RESULT:     -10.6      3.039      5.870
REMARK  Name = 
REMARK  4 active torsions:
REMARK  status: ('A' for Active; 'I' for Inactive)
REMARK    1  A    between atoms: C_3  and  C_4
REMARK    2  A    between atoms: C_4  and  N_5
REMARK    3  A    between atoms: C_16  and  N_17
REMARK    4  A    between atoms: N_17  and  C_18
REMARK                            x       y       z     vdW  Elec       q    Type
REMARK                         _______ _______ _______ _____ _____    ______ ____
ROOT
ATOM      1  O   UNL     1      -0.574   0.907  26.122  0.00  0.00    -0.219 OA
ATOM      2  C   UNL     1      -0.846   1.172  25.390  0.00  0.00    +0.199 C 
ATOM      3  C   UNL     1      -1.180   0.705  24.798  0.00  0.00    +0.169 C 
ATOM     14  O   UNL     1      -1.371   1.196  24.163  0.00  0.00    -0.350 OA
ATOM     15  C   UNL     1      -1.155   1.967  24.362  0.00  0.00    +0.162 C 
ATOM     16  C   UNL     1      -0.830   1.952  25.120  0.00  0.00    +0.135 C 
ENDROOT
BRANCH   3   4
ATOM      4  C   UNL     1      -1.302  -0.110  24.835  0.00  0.00    +0.149 C 
BRANCH   4   5
ATOM      5  N   UNL     1      -2.036  -0.427  24.633  0.00  0.00    -0.186 NA
ATOM      6  C   UNL     1      -2.150  -1.244  24.645  0.00  0.00    +0.323 C 
ATOM      7  O   UNL     1      -1.530  -1.744  24.858  0.00  0.00    -0.251 OA
ATOM      8  N   UNL     1      -2.885  -1.561  24.443  0.00  0.00    -0.258 N 
ATOM      9  C   UNL     1      -2.999  -2.378  24.454  0.00  0.00    +0.127 C 
ATOM     10  C   UNL     1      -3.733  -2.694  24.252  0.00  0.00    +0.164 C 
ATOM     11  O   UNL     1      -4.354  -2.195  24.039  0.00  0.00    -0.350 OA
ATOM     12  C   UNL     1      -4.240  -1.377  24.027  0.00  0.00    +0.164 C 
ATOM     13  C   UNL     1      -3.505  -1.061  24.229  0.00  0.00    +0.127 C 
ENDBRANCH   4   5
ENDBRANCH   3   4
BRANCH  16  17
ATOM     17  N   UNL     1      -0.540   2.603  25.536  0.00  0.00    -0.216 NA
BRANCH  17  18
ATOM     18  C   UNL     1      -0.898   3.341  25.449  0.00  0.00    +0.073 C 
ATOM     19  C   UNL     1      -1.620   3.497  25.816  0.00  0.00    +0.023 C 
ATOM     20  C   UNL     1      -1.977   4.235  25.728  0.00  0.00    +0.068 C 
ATOM     21  C   UNL     1      -1.612   4.819  25.274  0.00  0.00    +0.264 C 
ATOM     22  F   UNL     1      -2.289   5.225  25.512  0.00  0.00    -0.204 F 
ATOM     23  F   UNL     1      -1.482   5.543  24.902  0.00  0.00    -0.204 F 
ATOM     24  C   UNL     1      -0.890   4.664  24.906  0.00  0.00    +0.068 C 
ATOM     25  C   UNL     1      -0.533   3.925  24.994  0.00  0.00    +0.023 C 
ENDBRANCH  17  18
ENDBRANCH  16  17
TORSDOF 4
ENDMDL
MODEL 3
REMARK VINA RESULT:     -10.2      1.321      1.812
REMARK  Name = 
REMARK  4 active torsions:
REMARK  status: ('A' for Active; 'I' for Inactive)
REMARK    1  A    between atoms: C_3  and  C_4
REMARK    2  A    between atoms: C_4  and  N_5
REMARK    3  A    between atoms: C_16  and  N_17
REMARK    4  A    between atoms: N_17  and  C_18
REMARK                            x       y       z     vdW  Elec       q    Type
REMARK                         _______ _______ _______ _____ _____    ______ ____
ROOT
ATOM      1  O   UNL     1      -1.337   0.085  25.902  0.00  0.00    -0.219 OA
ATOM      2  C   UNL     1      -1.889   0.297  25.327  0.00  0.00    +0.199 C 
ATOM      3  C   UNL     1      -1.858   0.967  24.847  0.00  0.00    +0.169 C 
ATOM     14  O   UNL     1      -2.519   0.959  24.353  0.00  0.00    -0.350 OA
ATOM     15  C   UNL     1      -2.960   0.284  24.528  0.00  0.00    +0.162 C 
ATOM     16  C   UNL     1      -2.571  -0.126  25.130  0.00  0.00    +0.135 C 
ENDROOT
BRANCH   3   4
ATOM      4  C   UNL     1      -1.268   1.544  24.859  0.00  0.00    +0.149 C 
BRANCH   4   5
ATOM      5  N   UNL     1      -1.465   2.333  24.997  0.00  0.00    -0.186 NA
ATOM      6  C   UNL     1      -0.921   2.929  24.828  0.00  0.00    +0.323 C 
ATOM      7  O   UNL     1      -0.180   2.738  24.522  0.00  0.00    -0.251 OA
ATOM      8  N   UNL     1      -1.119   3.719  24.966  0.00  0.00    -0.258 N 
ATOM      9  C   UNL     1      -0.575   4.316  24.798  0.00  0.00    +0.127 C 
ATOM     10  C   UNL     1      -0.772   5.104  24.936  0.00  0.00    +0.164 C 
ATOM     11  O   UNL     1      -1.514   5.297  25.243  0.00  0.00    -0.350 OA
ATOM     12  C   UNL     1      -2.058   4.700  25.411  0.00  0.00    +0.164 C 
ATOM     13  C   UNL     1      -1.860   3.911  25.273  0.00  0.00    +0.127 C 
ENDBRANCH   4   5
ENDBRANCH   3   4
BRANCH  16  17
ATOM     17  N   UNL     1      -2.819  -0.833  25.474  0.00  0.00    -0.216 NA
BRANCH  17  18
ATOM     18  C   UNL     1      -3.176  -1.415  25.010  0.00  0.00    +0.073 C 
ATOM     19  C   UNL     1      -3.919  -1.280  24.679  0.00  0.00    +0.023 C 
ATOM     20  C   UNL     1      -4.276  -1.861  24.216  0.00  0.00    +0.068 C 
ATOM     21  C   UNL     1      -3.890  -2.578  24.084  0.00  0.00    +0.264 C 
ATOM     22  F   UNL     1      -4.583  -2.708  23.655  0.00  0.00    -0.204 F 
ATOM     23  F   UNL     1      -3.745  -3.340  23.804  0.00  0.00    -0.204 F 
ATOM     24  C   UNL     1      -3.147  -2.714  24.416  0.00  0.00    +0.068 C 
ATOM     25  C   UNL     1      -2.790  -2.132  24.879  0.00  0.00    +0.023 C 
ENDBRANCH  17  18
ENDBRANCH  16  17
TORSDOF 4
ENDMDL
MODEL 4
REMARK VINA RESULT:      -9.9      2.643      5.498
REMARK  Name = 
REMARK  4 active torsions:
REMARK  status: ('A' for Active; 'I' for Inactive)
REMARK    1  A    between atoms: C_3  and  C_4
REMARK    2  A    between atoms: C_4  and  N_5
REMARK    3  A    between atoms: C_16  and  N_17
REMARK    4  A    between atoms: N_17  and  C_18
REMARK                            x       y       z     vdW  Elec       q    Type
REMARK                         _______ _______ _______ _____ _____    ______ ____
ROOT
ATOM      1  O   UNL     1      -4.310   1.929  25.548  0.00  0.00    -0.219 OA
ATOM      2  C   UNL     1      -3.763   1.972  24.932  0.00  0.00    +0.199 C 
ATOM      3  C   UNL     1      -3.626   1.391  24.363  0.00  0.00    +0.169 C 
ATOM     14  O   UNL     1      -3.034   1.664  23.856  0.00  0.00    -0.350 OA
ATOM     15  C   UNL     1      -2.806   2.414  24.112  0.00  0.00    +0.162 C 
ATOM     16  C   UNL     1      -3.256   2.605  24.777  0.00  0.00    +0.135 C 
ENDROOT
BRANCH   3   4
ATOM      4  C   UNL     1      -4.012   0.663  24.310  0.00  0.00    +0.149 C 
BRANCH   4   5
ATOM      5  N   UNL     1      -3.583  -0.038  24.378  0.00  0.00    -0.186 NA
ATOM      6  C   UNL     1      -3.961  -0.763  24.275  0.00  0.00    +0.323 C 
ATOM      7  O   UNL     1      -4.767  -0.789  24.105  0.00  0.00    -0.251 OA
ATOM      8  N   UNL     1      -3.531  -1.466  24.343  0.00  0.00    -0.258 N 
ATOM      9  C   UNL     1      -3.909  -2.191  24.240  0.00  0.00    +0.127 C 
ATOM     10  C   UNL     1      -3.480  -2.892  24.308  0.00  0.00    +0.164 C 
ATOM     11  O   UNL     1      -2.673  -2.868  24.479  0.00  0.00    -0.350 OA
ATOM     12  C   UNL     1      -2.295  -2.141  24.581  0.00  0.00    +0.164 C 
ATOM     13  C   UNL     1      -2.725  -1.440  24.514  0.00  0.00    +0.127 C 
ENDBRANCH   4   5
ENDBRANCH   3   4
BRANCH  16  17
ATOM     17  N   UNL     1      -3.208   3.305  25.210  0.00  0.00    -0.216 NA
BRANCH  17  18
ATOM     18  C   UNL     1      -2.514   3.751  25.199  0.00  0.00    +0.073 C 
ATOM     19  C   UNL     1      -1.829   3.457  25.552  0.00  0.00    +0.023 C 
ATOM     20  C   UNL     1      -1.135   3.902  25.542  0.00  0.00    +0.068 C 
ATOM     21  C   UNL     1      -1.126   4.643  25.177  0.00  0.00    +0.264 C 
ATOM     22  F   UNL     1      -0.343   4.600  25.435  0.00  0.00    -0.204 F 
ATOM     23  F   UNL     1      -0.845   5.368  24.903  0.00  0.00    -0.204 F 
ATOM     24  C   UNL     1      -1.811   4.937  24.824  0.00  0.00    +0.068 C 
ATOM     25  C   UNL     1      -2.505   4.491  24.835  0.00  0.00    +0.023 C 
ENDBRANCH  17  18
ENDBRANCH  16  17
TORSDOF 4
ENDMDL
MODEL 5
REMARK VINA RESULT:      -8.9      3.003      3.514
REMARK  Name = 
REMARK  4 active torsions:
REMARK  status: ('A' for Active; 'I' for Inactive)
REMARK    1  A    between atoms: C_3  and  C_4
REMARK    2  A    between atoms: C_4  and  N_5
REMARK    3  A    between atoms: C_16  and  N_17
REMARK    4  A    between atoms: N_17  and  C_18
REMARK                            x       y       z     vdW  Elec       q    Type
REMARK                         _______ _______ _______ _____ _____    ______ ____
ROOT
ATOM      1  O   UNL     1      -1.342   0.000  25.714  0.00  0.00    -0.219 OA
ATOM      2  C   UNL     1      -1.700   0.247  25.013  0.00  0.00    +0.199 C 
ATOM      3  C   UNL     1      -1.350   0.707  24.425  0.00  0.00    +0.169 C 
ATOM     14  O   UNL     1      -1.905   0.822  23.825  0.00  0.00    -0.350 OA
ATOM     15  C   UNL     1      -2.599   0.434  24.043  0.00  0.00    +0.162 C 
ATOM     16  C   UNL     1      -2.473   0.078  24.777  0.00  0.00    +0.135 C 
ENDROOT
BRANCH   3   4
ATOM      4  C   UNL     1      -0.578   1.001  24.434  0.00  0.00    +0.149 C 
BRANCH   4   5
ATOM      5  N   UNL     1      -0.009   0.681  23.929  0.00  0.00    -0.186 NA
ATOM      6  C   UNL     1       0.738   1.026  23.881  0.00  0.00    +0.323 C 
ATOM      7  O   UNL     1       0.918   1.690  24.337  0.00  0.00    -0.251 OA
ATOM      8  N   UNL     1       1.308   0.707  23.376  0.00  0.00    -0.258 N 
ATOM      9  C   UNL     1       2.056   1.051  23.327  0.00  0.00    +0.127 C 
ATOM     10  C   UNL     1       2.625   0.732  22.823  0.00  0.00    +0.164 C 
ATOM     11  O   UNL     1       2.446   0.068  22.366  0.00  0.00    -0.350 OA
ATOM     12  C   UNL     1       1.698  -0.276  22.415  0.00  0.00    +0.164 C 
ATOM     13  C   UNL     1       1.129   0.043  22.920  0.00  0.00    +0.127 C 
ENDBRANCH   4   5
ENDBRANCH   3   4
BRANCH  16  17
ATOM     17  N   UNL     1      -3.022  -0.368  25.201  0.00  0.00    -0.216 NA
BRANCH  17  18
ATOM     18  C   UNL     1      -3.360  -1.039  24.861  0.00  0.00    +0.073 C 
ATOM     19  C   UNL     1      -3.977  -0.962  24.319  0.00  0.00    +0.023 C 
ATOM     20  C   UNL     1      -4.314  -1.634  23.979  0.00  0.00    +0.068 C 
ATOM     21  C   UNL     1      -4.034  -2.383  24.180  0.00  0.00    +0.264 C 
ATOM     22  F   UNL     1      -4.626  -2.591  23.644  0.00  0.00    -0.204 F 
ATOM     23  F   UNL     1      -3.960  -3.204  24.195  0.00  0.00    -0.204 F 
ATOM     24  C   UNL     1      -3.417  -2.461  24.722  0.00  0.00    +0.068 C 
ATOM     25  C   UNL     1      -3.080  -1.789  25.062  0.00  0.00    +0.023 C 
ENDBRANCH  17  18
ENDBRANCH  16  17
TORSDOF 4
ENDMDL
MODEL 6
REMARK VINA RESULT:      -8.8      2.959      4.509
REMARK  Name = 
REMARK  4 active torsions:
REMARK  status: ('A' for Active; 'I' for Inactive)
REMARK    1  A    between atoms: C_3  and  C_4
REMARK    2  A    between atoms: C_4  and  N_5
REMARK    3  A    between atoms: C_16  and  N_17
REMARK    4  A    between atoms: N_17  and  C_18
REMARK                            x       y       z     vdW  Elec       q    Type
REMARK                         _______ _______ _______ _____ _____    ______ ____
ROOT
ATOM      1  O   UNL     1      -3.126   1.770  23.104  0.00  0.00    -0.219 OA
ATOM      2  C   UNL     1      -2.854   2.180  23.766  0.00  0.00    +0.199 C 
ATOM      3  C   UNL     1      -2.109   2.105  24.111  0.00  0.00    +0.169 C 
ATOM     14  O   UNL     1      -2.075   2.616  24.759  0.00  0.00    -0.350 OA
ATOM     15  C   UNL     1      -2.799   3.007  24.814  0.00  0.00    +0.162 C 
ATOM     16  C   UNL     1      -3.281   2.738  24.200  0.00  0.00    +0.135 C 
ENDROOT
BRANCH   3   4
ATOM      4  C   UNL     1      -1.504   1.606  23.854  0.00  0.00    +0.149 C 
BRANCH   4   5
ATOM      5  N   UNL     1      -1.355   0.899  24.252  0.00  0.00    -0.186 NA
ATOM      6  C   UNL     1      -0.727   0.419  24.019  0.00  0.00    +0.323 C 
ATOM      7  O   UNL     1      -0.245   0.646  23.388  0.00  0.00    -0.251 OA
ATOM      8  N   UNL     1      -0.578  -0.289  24.416  0.00  0.00    -0.258 N 
ATOM      9  C   UNL     1       0.051  -0.768  24.183  0.00  0.00    +0.127 C 
ATOM     10  C   UNL     1       0.200  -1.476  24.581  0.00  0.00    +0.164 C 
ATOM     11  O   UNL     1      -0.281  -1.704  25.211  0.00  0.00    -0.350 OA
ATOM     12  C   UNL     1      -0.910  -1.224  25.444  0.00  0.00    +0.164 C 
ATOM     13  C   UNL     1      -1.059  -0.516  25.047  0.00  0.00    +0.127 C 
ENDBRANCH   4   5
ENDBRANCH   3   4
BRANCH  16  17
ATOM     17  N   UNL     1      -4.053   2.983  24.048  0.00  0.00    -0.216 NA
BRANCH  17  18
ATOM     18  C   UNL     1      -4.649   2.841  24.601  0.00  0.00    +0.073 C 
ATOM     19  C   UNL     1      -4.799   3.391  25.196  0.00  0.00    +0.023 C 
ATOM     20  C   UNL     1      -5.395   3.248  25.749  0.00  0.00    +0.068 C 
ATOM     21  C   UNL     1      -5.840   2.555  25.707  0.00  0.00    +0.264 C 
ATOM     22  F   UNL     1      -6.187   2.908  26.367  0.00  0.00    -0.204 F 
ATOM     23  F   UNL     1      -6.405   1.985  25.893  0.00  0.00    -0.204 F 
ATOM     24  C   UNL     1      -5.690   2.004  25.111  0.00  0.00    +0.068 C 
ATOM     25  C   UNL     1      -5.094   2.147  24.558  0.00  0.00    +0.023 C 
ENDBRANCH  17  18
ENDBRANCH  16  17
TORSDOF 4
ENDMDL
MODEL 7
REMARK VINA RESULT:      -8.7      1.690      2.420
REMARK  Name = 
REMARK  4 active torsions:
REMARK  status: ('A' for Active; 'I' for Inactive)
REMARK    1  A    between atoms: C_3  and  C_4
REMARK    2  A    between atoms: C_4  and  N_5
REMARK    3  A    between atoms: C_16  and  N_17
REMARK    4  A    between atoms: N_17  and  C_18
REMARK                            x       y       z     vdW  Elec       q    Type
REMARK                         _______ _______ _______ _____ _____    ______ ____
ROOT
ATOM      1  O   UNL     1      -1.842   0.807  25.652  0.00  0.00    -0.219 OA
ATOM      2  C   UNL     1      -2.254   0.656  24.954  0.00  0.00    +0.199 C 
ATOM      3  C   UNL     1      -2.690   1.205  24.520  0.00  0.00    +0.169 C 
ATOM     14  O   UNL     1      -3.008   0.818  23.864  0.00  0.00    -0.350 OA
ATOM     15  C   UNL     1      -2.769   0.029  23.893  0.00  0.00    +0.162 C 
ATOM     16  C   UNL     1      -2.302  -0.071  24.566  0.00  0.00    +0.135 C 
ENDROOT
BRANCH   3   4
ATOM      4  C   UNL     1      -2.791   2.003  24.709  0.00  0.00    +0.149 C 
BRANCH   4   5
ATOM      5  N   UNL     1      -3.530   2.279  24.949  0.00  0.00    -0.186 NA
ATOM      6  C   UNL     1      -3.668   3.090  25.006  0.00  0.00    +0.323 C 
ATOM      7  O   UNL     1      -3.067   3.625  24.823  0.00  0.00    -0.251 OA
ATOM      8  N   UNL     1      -4.407   3.368  25.247  0.00  0.00    -0.258 N 
ATOM      9  C   UNL     1      -4.545   4.179  25.304  0.00  0.00    +0.127 C 
ATOM     10  C   UNL     1      -5.284   4.456  25.544  0.00  0.00    +0.164 C 
ATOM     11  O   UNL     1      -5.885   3.922  25.727  0.00  0.00    -0.350 OA
ATOM     12  C   UNL     1      -5.747   3.110  25.670  0.00  0.00    +0.164 C 
ATOM     13  C   UNL     1      -5.008   2.833  25.430  0.00  0.00    +0.127 C 
ENDBRANCH   4   5
ENDBRANCH   3   4
BRANCH  16  17
ATOM     17  N   UNL     1      -1.947  -0.774  24.810  0.00  0.00    -0.216 NA
BRANCH  17  18
ATOM     18  C   UNL     1      -2.380  -1.476  24.814  0.00  0.00    +0.073 C 
ATOM     19  C   UNL     1      -2.262  -2.038  24.223  0.00  0.00    +0.023 C 
ATOM     20  C   UNL     1      -2.695  -2.740  24.227  0.00  0.00    +0.068 C 
ATOM     21  C   UNL     1      -3.248  -2.880  24.824  0.00  0.00    +0.264 C 
ATOM     22  F   UNL     1      -3.331  -3.574  24.387  0.00  0.00    -0.204 F 
ATOM     23  F   UNL     1      -3.828  -3.260  25.269  0.00  0.00    -0.204 F 
ATOM     24  C   UNL     1      -3.366  -2.317  25.416  0.00  0.00    +0.068 C 
ATOM     25  C   UNL     1      -2.932  -1.616  25.411  0.00  0.00    +0.023 C 
ENDBRANCH  17  18
ENDBRANCH  16  17
TORSDOF 4
ENDMDL
MODEL 8
REMARK VINA RESULT:      -8.5      2.157      2.948
REMARK  Name = 
REMARK  4 active torsions:
REMARK  status: ('A' for Active; 'I' for Inactive)
REMARK    1  A    between atoms: C_3  and  C_4
REMARK    2  A    between atoms: C_4  and  N_5
REMARK    3  A    between atoms: C_16  and  N_17
REMARK    4  A    between atoms: N_17  and  C_18
REMARK                            x       y       z     vdW  Elec       q    Type
REMARK                         _______ _______ _______ _____ _____    ______ ____
ROOT
ATOM      1  O   UNL     1      -3.923  -0.292  23.557  0.00  0.00    -0.219 OA
ATOM      2  C   UNL     1      -3.868  -0.453  24.364  0.00  0.00    +0.199 C 
ATOM      3  C   UNL     1      -4.295  -0.081  24.963  0.00  0.00    +0.169 C 
ATOM     14  O   UNL     1      -4.068  -0.413  25.684  0.00  0.00    -0.350 OA
ATOM     15  C   UNL     1      -3.500  -0.991  25.530  0.00  0.00    +0.162 C 
ATOM     16  C   UNL     1      -3.376  -1.016  24.714  0.00  0.00    +0.135 C 
ENDROOT
BRANCH   3   4
ATOM      4  C   UNL     1      -4.853   0.519  24.860  0.00  0.00    +0.149 C 
BRANCH   4   5
ATOM      5  N   UNL     1      -4.660   1.299  25.049  0.00  0.00    -0.186 NA
ATOM      6  C   UNL     1      -5.255   1.864  25.122  0.00  0.00    +0.323 C 
ATOM      7  O   UNL     1      -6.044   1.652  25.007  0.00  0.00    -0.251 OA
ATOM      8  N   UNL     1      -5.062   2.645  25.311  0.00  0.00    -0.258 N 
ATOM      9  C   UNL     1      -5.657   3.211  25.384  0.00  0.00    +0.127 C 
ATOM     10  C   UNL     1      -5.464   3.990  25.572  0.00  0.00    +0.164 C 
ATOM     11  O   UNL     1      -4.676   4.204  25.688  0.00  0.00    -0.350 OA
ATOM     12  C   UNL     1      -4.080   3.637  25.614  0.00  0.00    +0.164 C 
ATOM     13  C   UNL     1      -4.273   2.858  25.426  0.00  0.00    +0.127 C 
ENDBRANCH   4   5
ENDBRANCH   3   4
BRANCH  16  17
ATOM     17  N   UNL     1      -2.853  -1.516  24.319  0.00  0.00    -0.216 NA
BRANCH  17  18
ATOM     18  C   UNL     1      -2.074  -1.588  24.580  0.00  0.00    +0.073 C 
ATOM     19  C   UNL     1      -1.524  -0.998  24.408  0.00  0.00    +0.023 C 
ATOM     20  C   UNL     1      -0.745  -1.070  24.669  0.00  0.00    +0.068 C 
ATOM     21  C   UNL     1      -0.515  -1.734  25.102  0.00  0.00    +0.264 C 
ATOM     22  F   UNL     1       0.200  -1.324  25.078  0.00  0.00    -0.204 F 
ATOM     23  F   UNL     1      -0.037  -2.255  25.526  0.00  0.00    -0.204 F 
ATOM     24  C   UNL     1      -1.065  -2.325  25.273  0.00  0.00    +0.068 C 
ATOM     25  C   UNL     1      -1.844  -2.252  25.012  0.00  0.00    +0.023 C 
ENDBRANCH  17  18
ENDBRANCH  16  17
TORSDOF 4
ENDMDL
MODEL 9
REMARK VINA RESULT:      -8.4     16.167     18.619
REMARK  Name = 
REMARK  4 active torsions:
REMARK  status: ('A' for Active; 'I' for Inactive)
REMARK    1  A    between atoms: C_3  and  C_4
REMARK    2  A    between atoms: C_4  and  N_5
REMARK    3  A    between atoms: C_16  and  N_17
REMARK    4  A    between atoms: N_17  and  C_18
REMARK                            x       y       z     vdW  Elec       q    Type
REMARK                         _______ _______ _______ _____ _____    ______ ____
ROOT
ATOM      1  O   UNL     1      12.283   6.752  18.959  0.00  0.00    -0.219 OA
ATOM      2  C   UNL     1      12.584   7.404  19.365  0.00  0.00    +0.199 C 
ATOM      3  C   UNL     1      13.373   7.641  19.385  0.00  0.00    +0.169 C 
ATOM     14  O   UNL     1      13.425   8.318  19.855  0.00  0.00    -0.350 OA
ATOM     15  C   UNL     1      12.667   8.498  20.126  0.00  0.00    +0.162 C 
ATOM     16  C   UNL     1      12.147   7.934  19.824  0.00  0.00    +0.135 C 
ENDROOT
BRANCH   3   4
ATOM      4  C   UNL     1      14.002   7.268  19.002  0.00  0.00    +0.149 C 
BRANCH   4   5
ATOM      5  N   UNL     1      14.691   7.088  19.418  0.00  0.00    -0.186 NA
ATOM      6  C   UNL     1      15.335   6.756  19.025  0.00  0.00    +0.323 C 
ATOM      7  O   UNL     1      15.291   6.604  18.215  0.00  0.00    -0.251 OA
ATOM      8  N   UNL     1      16.025   6.577  19.441  0.00  0.00    -0.258 N 
ATOM      9  C   UNL     1      16.669   6.245  19.047  0.00  0.00    +0.127 C 
ATOM     10  C   UNL     1      17.358   6.065  19.464  0.00  0.00    +0.164 C 
ATOM     11  O   UNL     1      17.404   6.218  20.273  0.00  0.00    -0.350 OA
ATOM     12  C   UNL     1      16.758   6.550  20.667  0.00  0.00    +0.164 C 
ATOM     13  C   UNL     1      16.069   6.729  20.250  0.00  0.00    +0.127 C 
ENDBRANCH   4   5
ENDBRANCH   3   4
BRANCH  16  17
ATOM     17  N   UNL     1      11.334   7.904  19.956  0.00  0.00    -0.216 NA
BRANCH  17  18
ATOM     18  C   UNL     1      11.033   8.033  20.713  0.00  0.00    +0.073 C 
ATOM     19  C   UNL     1      10.864   8.800  20.965  0.00  0.00    +0.023 C 
ATOM     20  C   UNL     1      10.564   8.929  21.722  0.00  0.00    +0.068 C 
ATOM     21  C   UNL     1      10.432   8.291  22.228  0.00  0.00    +0.264 C 
ATOM     22  F   UNL     1      10.188   8.912  22.714  0.00  0.00    -0.204 F 
ATOM     23  F   UNL     1      10.216   7.869  22.902  0.00  0.00    -0.204 F 
ATOM     24  C   UNL     1      10.601   7.523  21.976  0.00  0.00    +0.068 C 
ATOM     25  C   UNL     1      10.901   7.395  21.219  0.00  0.00    +0.023 C 
ENDBRANCH  17  18
ENDBRANCH  16  17
TORSDOF 4
ENDMDL
MODEL 10
REMARK VINA RESULT:      -8.2      2.163      3.052
REMARK  Name = 
REMARK  4 active torsions:
REMARK  status: ('A' for Active; 'I' for Inactive)
REMARK    1  A    between atoms: C_3  and  C_4
REMARK    2  A    between atoms: C_4  and  N_5
REMARK    3  A    between atoms: C_16  and  N_17
REMARK    4  A    between atoms: N_17  and  C_18
REMARK                            x       y       z     vdW  Elec       q    Type
REMARK                         _______ _______ _______ _____ _____    ______ ____
ROOT
ATOM      1  O   UNL     1      -1.092   1.914  25.801  0.00  0.00    -0.219 OA
ATOM      2  C   UNL     1      -1.373   1.686  25.060  0.00  0.00    +0.199 C 
ATOM      3  C   UNL     1      -1.942   2.084  24.614  0.00  0.00    +0.169 C 
ATOM     14  O   UNL     1      -2.055   1.664  23.913  0.00  0.00    -0.350 OA
ATOM     15  C   UNL     1      -1.557   1.006  23.925  0.00  0.00    +0.162 C 
ATOM     16  C   UNL     1      -1.135   1.020  24.635  0.00  0.00    +0.135 C 
ENDROOT
BRANCH   3   4
ATOM      4  C   UNL     1      -2.329   2.779  24.831  0.00  0.00    +0.149 C 
BRANCH   4   5
ATOM      5  N   UNL     1      -3.126   2.759  25.041  0.00  0.00    -0.186 NA
ATOM      6  C   UNL     1      -3.554   3.461  25.104  0.00  0.00    +0.323 C 
ATOM      7  O   UNL     1      -3.184   4.184  24.956  0.00  0.00    -0.251 OA
ATOM      8  N   UNL     1      -4.352   3.442  25.314  0.00  0.00    -0.258 N 
ATOM      9  C   UNL     1      -4.779   4.144  25.377  0.00  0.00    +0.127 C 
ATOM     10  C   UNL     1      -5.577   4.124  25.587  0.00  0.00    +0.164 C 
ATOM     11  O   UNL     1      -5.947   3.401  25.735  0.00  0.00    -0.350 OA
ATOM     12  C   UNL     1      -5.518   2.699  25.672  0.00  0.00    +0.164 C 
ATOM     13  C   UNL     1      -4.721   2.719  25.462  0.00  0.00    +0.127 C 
ENDBRANCH   4   5
ENDBRANCH   3   4
BRANCH  16  17
ATOM     17  N   UNL     1      -0.574   0.466  24.876  0.00  0.00    -0.216 NA
BRANCH  17  18
ATOM     18  C   UNL     1      -0.751  -0.340  24.848  0.00  0.00    +0.073 C 
ATOM     19  C   UNL     1      -0.531  -0.788  24.192  0.00  0.00    +0.023 C 
ATOM     20  C   UNL     1      -0.708  -1.593  24.164  0.00  0.00    +0.068 C 
ATOM     21  C   UNL     1      -1.104  -1.951  24.793  0.00  0.00    +0.264 C 
ATOM     22  F   UNL     1      -1.011  -2.601  24.294  0.00  0.00    -0.204 F 
ATOM     23  F   UNL     1      -1.469  -2.533  25.248  0.00  0.00    -0.204 F 
ATOM     24  C   UNL     1      -1.325  -1.502  25.450  0.00  0.00    +0.068 C 
ATOM     25  C   UNL     1      -1.148  -0.697  25.477  0.00  0.00    +0.023 C 
ENDBRANCH  17  18
ENDBRANCH  16  17
TORSDOF 4
ENDMDL
