MODEL 1
REMARK VINA RESULT:     -12.6      0.000      0.000
REMARK  Name = 
REMARK  4 active torsions:
REMARK  status: ('A' for Active; 'I' for Inactive)
REMARK    1  A    between atoms: C_2  and  C_3
REMARK    2  A    between atoms: C_5  and  C_6
REMARK    3  A    between atoms: C_6  and  N_7
REMARK    4  A    between atoms: C_10  and  C_12
REMARK                            x       y       z     vdW  Elec       q    Type
REMARK                         _______ _______ _______ _____ _____    ______ ____
ROOT
ATOM      7  N   UNL     1      -4.321   2.216  24.605  0.00  0.00    -0.268 NA
ATOM      8  C   UNL     1      -5.041   2.037  24.965  0.00  0.00    +0.073 C 
ATOM      9  C   UNL     1      -5.089   1.217  25.045  0.00  0.00    +0.028 C 
ATOM     10  C   UNL     1      -4.398   0.889  24.735  0.00  0.00    +0.094 C 
ATOM     11  C   UNL     1      -3.923   1.507  24.463  0.00  0.00    +0.082 C 
ENDROOT
BRANCH  10  12
ATOM     12  C   UNL     1      -4.215   0.086  24.703  0.00  0.00    +0.207 A 
ATOM     13  N   UNL     1      -3.796  -0.339  25.272  0.00  0.00    -0.212 NA
ATOM     14  C   UNL     1      -3.740  -1.121  25.017  0.00  0.00    +0.119 A 
ATOM     15  C   UNL     1      -4.125  -1.180  24.289  0.00  0.00    +0.164 A 
ATOM     16  O   UNL     1      -4.418  -0.434  24.095  0.00  0.00    -0.438 OA
ATOM     17  C   UNL     1      -4.158  -1.906  23.898  0.00  0.00    +0.039 A 
ATOM     18  C   UNL     1      -3.807  -2.572  24.233  0.00  0.00    +0.003 A 
ATOM     19  C   UNL     1      -3.422  -2.513  24.961  0.00  0.00    +0.002 A 
ATOM     20  C   UNL     1      -3.389  -1.788  25.353  0.00  0.00    +0.022 A 
ENDBRANCH  10  12
BRANCH   7   6
ATOM      6  C   UNL     1      -4.045   2.971  24.420  0.00  0.00    +0.099 C 
BRANCH   6   5
ATOM      3  C   UNL     1      -2.256   3.842  25.317  0.00  0.00    +0.068 A 
ATOM      4  C   UNL     1      -2.747   3.440  24.789  0.00  0.00    +0.007 A 
ATOM      5  C   UNL     1      -3.554   3.372  24.948  0.00  0.00    -0.005 A 
ATOM     21  C   UNL     1      -3.870   3.706  25.633  0.00  0.00    -0.003 A 
ATOM     22  C   UNL     1      -3.378   4.107  26.160  0.00  0.00    +0.000 A 
ATOM     23  C   UNL     1      -2.572   4.175  26.002  0.00  0.00    +0.010 A 
BRANCH   3   2
ATOM      1  N   UNL     1      -0.643   3.977  24.999  0.00  0.00    -0.191 NA
ATOM      2  C   UNL     1      -1.449   3.910  25.159  0.00  0.00    +0.100 C 
ENDBRANCH   3   2
ENDBRANCH   6   5
ENDBRANCH   7   6
TORSDOF 4
ENDMDL
MODEL 2
REMARK VINA RESULT:     -11.7      1.313      4.961
REMARK  Name = 
REMARK  4 active torsions:
REMARK  status: ('A' for Active; 'I' for Inactive)
REMARK    1  A    between atoms: C_2  and  C_3
REMARK    2  A    between atoms: C_5  and  C_6
REMARK    3  A    between atoms: C_6  and  N_7
REMARK    4  A    between atoms: C_10  and  C_12
REMARK                            x       y       z     vdW  Elec       q    Type
REMARK                         _______ _______ _______ _____ _____    ______ ____
ROOT
ATOM      7  N   UNL     1      -3.928   0.691  24.971  0.00  0.00    -0.268 NA
ATOM      8  C   UNL     1      -4.312   1.065  24.344  0.00  0.00    +0.073 C 
ATOM      9  C   UNL     1      -3.950   1.797  24.224  0.00  0.00    +0.028 C 
ATOM     10  C   UNL     1      -3.342   1.875  24.777  0.00  0.00    +0.094 C 
ATOM     11  C   UNL     1      -3.328   1.191  25.239  0.00  0.00    +0.082 C 
ENDROOT
BRANCH  10  12
ATOM     12  C   UNL     1      -2.836   2.522  24.854  0.00  0.00    +0.207 A 
ATOM     13  N   UNL     1      -3.043   3.267  25.142  0.00  0.00    -0.212 NA
ATOM     14  C   UNL     1      -2.370   3.743  25.123  0.00  0.00    +0.119 A 
ATOM     15  C   UNL     1      -1.747   3.293  24.823  0.00  0.00    +0.164 A 
ATOM     16  O   UNL     1      -2.035   2.538  24.657  0.00  0.00    -0.438 OA
ATOM     17  C   UNL     1      -0.998   3.629  24.740  0.00  0.00    +0.039 A 
ATOM     18  C   UNL     1      -0.872   4.415  24.957  0.00  0.00    +0.003 A 
ATOM     19  C   UNL     1      -1.495   4.865  25.257  0.00  0.00    +0.002 A 
ATOM     20  C   UNL     1      -2.244   4.530  25.340  0.00  0.00    +0.022 A 
ENDBRANCH  10  12
BRANCH   7   6
ATOM      6  C   UNL     1      -4.110  -0.053  25.277  0.00  0.00    +0.099 C 
BRANCH   6   5
ATOM      3  C   UNL     1      -2.983  -1.779  24.562  0.00  0.00    +0.068 A 
ATOM      4  C   UNL     1      -3.182  -1.099  24.984  0.00  0.00    +0.007 A 
ATOM      5  C   UNL     1      -3.911  -0.733  24.855  0.00  0.00    -0.005 A 
ATOM     21  C   UNL     1      -4.440  -1.048  24.306  0.00  0.00    -0.003 A 
ATOM     22  C   UNL     1      -4.239  -1.729  23.884  0.00  0.00    +0.000 A 
ATOM     23  C   UNL     1      -3.511  -2.094  24.012  0.00  0.00    +0.010 A 
BRANCH   3   2
ATOM      1  N   UNL     1      -1.526  -2.510  24.817  0.00  0.00    -0.191 NA
ATOM      2  C   UNL     1      -2.254  -2.145  24.690  0.00  0.00    +0.100 C 
ENDBRANCH   3   2
ENDBRANCH   6   5
ENDBRANCH   7   6
TORSDOF 4
ENDMDL
MODEL 3
REMARK VINA RESULT:     -11.2      1.797      2.548
REMARK  Name = 
REMARK  4 active torsions:
REMARK  status: ('A' for Active; 'I' for Inactive)
REMARK    1  A    between atoms: C_2  and  C_3
REMARK    2  A    between atoms: C_5  and  C_6
REMARK    3  A    between atoms: C_6  and  N_7
REMARK    4  A    between atoms: C_10  and  C_12
REMARK                            x       y       z     vdW  Elec       q    Type
REMARK                         _______ _______ _______ _____ _____    ______ ____
ROOT
ATOM      7  N   UNL     1      -0.788   1.405  25.257  0.00  0.00    -0.268 NA
ATOM      8  C   UNL     1      -0.387   1.152  24.582  0.00  0.00    +0.073 C 
ATOM      9  C   UNL     1      -0.782   0.491  24.283  0.00  0.00    +0.028 C 
ATOM     10  C   UNL     1      -1.426   0.336  24.775  0.00  0.00    +0.094 C 
ATOM     11  C   UNL     1      -1.430   0.900  25.377  0.00  0.00    +0.082 C 
ENDROOT
BRANCH  10  12
ATOM     12  C   UNL     1      -1.971  -0.277  24.681  0.00  0.00    +0.207 A 
ATOM     13  N   UNL     1      -1.845  -1.070  24.868  0.00  0.00    -0.212 NA
ATOM     14  C   UNL     1      -2.533  -1.487  24.686  0.00  0.00    +0.119 A 
ATOM     15  C   UNL     1      -3.084  -0.951  24.387  0.00  0.00    +0.164 A 
ATOM     16  O   UNL     1      -2.737  -0.203  24.384  0.00  0.00    -0.438 OA
ATOM     17  C   UNL     1      -3.831  -1.214  24.156  0.00  0.00    +0.039 A 
ATOM     18  C   UNL     1      -4.027  -2.012  24.224  0.00  0.00    +0.003 A 
ATOM     19  C   UNL     1      -3.476  -2.548  24.523  0.00  0.00    +0.002 A 
ATOM     20  C   UNL     1      -2.729  -2.286  24.754  0.00  0.00    +0.022 A 
ENDBRANCH  10  12
BRANCH   7   6
ATOM      6  C   UNL     1      -0.583   2.048  25.731  0.00  0.00    +0.099 C 
BRANCH   6   5
ATOM      3  C   UNL     1      -1.895   3.792  25.689  0.00  0.00    +0.068 A 
ATOM      4  C   UNL     1      -1.602   3.041  25.864  0.00  0.00    +0.007 A 
ATOM      5  C   UNL     1      -0.876   2.799  25.555  0.00  0.00    -0.005 A 
ATOM     21  C   UNL     1      -0.443   3.308  25.072  0.00  0.00    -0.003 A 
ATOM     22  C   UNL     1      -0.737   4.060  24.897  0.00  0.00    +0.000 A 
ATOM     23  C   UNL     1      -1.463   4.301  25.205  0.00  0.00    +0.010 A 
BRANCH   3   2
ATOM      1  N   UNL     1      -3.348   4.274  26.305  0.00  0.00    -0.191 NA
ATOM      2  C   UNL     1      -2.622   4.033  25.998  0.00  0.00    +0.100 C 
ENDBRANCH   3   2
ENDBRANCH   6   5
ENDBRANCH   7   6
TORSDOF 4
ENDMDL
MODEL 4
REMARK VINA RESULT:     -10.7      1.613      4.727
REMARK  Name = 
REMARK  4 active torsions:
REMARK  status: ('A' for Active; 'I' for Inactive)
REMARK    1  A    between atoms: C_2  and  C_3
REMARK    2  A    between atoms: C_5  and  C_6
REMARK    3  A    between atoms: C_6  and  N_7
REMARK    4  A    between atoms: C_10  and  C_12
REMARK                            x       y       z     vdW  Elec       q    Type
REMARK                         _______ _______ _______ _____ _____    ______ ____
ROOT
ATOM      7  N   UNL     1      -3.954  -0.857  25.082  0.00  0.00    -0.268 NA
ATOM      8  C   UNL     1      -4.370  -0.832  24.370  0.00  0.00    +0.073 C 
ATOM      9  C   UNL     1      -4.636  -0.059  24.256  0.00  0.00    +0.028 C 
ATOM     10  C   UNL     1      -4.384   0.394  24.899  0.00  0.00    +0.094 C 
ATOM     11  C   UNL     1      -3.963  -0.099  25.408  0.00  0.00    +0.082 C 
ENDROOT
BRANCH  10  12
ATOM     12  C   UNL     1      -4.528   1.199  25.011  0.00  0.00    +0.207 A 
ATOM     13  N   UNL     1      -5.221   1.530  25.309  0.00  0.00    -0.212 NA
ATOM     14  C   UNL     1      -5.125   2.349  25.327  0.00  0.00    +0.119 A 
ATOM     15  C   UNL     1      -4.372   2.524  25.039  0.00  0.00    +0.164 A 
ATOM     16  O   UNL     1      -4.002   1.813  24.844  0.00  0.00    -0.438 OA
ATOM     17  C   UNL     1      -4.121   3.308  24.993  0.00  0.00    +0.039 A 
ATOM     18  C   UNL     1      -4.622   3.917  25.233  0.00  0.00    +0.003 A 
ATOM     19  C   UNL     1      -5.375   3.742  25.521  0.00  0.00    +0.002 A 
ATOM     20  C   UNL     1      -5.627   2.959  25.568  0.00  0.00    +0.022 A 
ENDBRANCH  10  12
BRANCH   7   6
ATOM      6  C   UNL     1      -3.593  -1.522  25.410  0.00  0.00    +0.099 C 
BRANCH   6   5
ATOM      3  C   UNL     1      -1.538  -1.814  24.734  0.00  0.00    +0.068 A 
ATOM      4  C   UNL     1      -2.199  -1.480  25.099  0.00  0.00    +0.007 A 
ATOM      5  C   UNL     1      -2.932  -1.855  25.045  0.00  0.00    -0.005 A 
ATOM     21  C   UNL     1      -3.005  -2.562  24.626  0.00  0.00    -0.003 A 
ATOM     22  C   UNL     1      -2.344  -2.895  24.261  0.00  0.00    +0.000 A 
ATOM     23  C   UNL     1      -1.611  -2.521  24.315  0.00  0.00    +0.010 A 
BRANCH   3   2
ATOM      1  N   UNL     1      -0.073  -1.064  24.842  0.00  0.00    -0.191 NA
ATOM      2  C   UNL     1      -0.805  -1.439  24.788  0.00  0.00    +0.100 C 
ENDBRANCH   3   2
ENDBRANCH   6   5
ENDBRANCH   7   6
TORSDOF 4
ENDMDL
MODEL 5
REMARK VINA RESULT:     -10.6      2.029      5.347
REMARK  Name = 
REMARK  4 active torsions:
REMARK  status: ('A' for Active; 'I' for Inactive)
REMARK    1  A    between atoms: C_2  and  C_3
REMARK    2  A    between atoms: C_5  and  C_6
REMARK    3  A    between atoms: C_6  and  N_7
REMARK    4  A    between atoms: C_10  and  C_12
REMARK                            x       y       z     vdW  Elec       q    Type
REMARK                         _______ _______ _______ _____ _____    ______ ____
ROOT
ATOM      7  N   UNL     1      -1.331   0.058  24.799  0.00  0.00    -0.268 NA
ATOM      8  C   UNL     1      -1.076   0.205  24.028  0.00  0.00    +0.073 C 
ATOM      9  C   UNL     1      -1.044   1.023  23.922  0.00  0.00    +0.028 C 
ATOM     10  C   UNL     1      -1.278   1.381  24.628  0.00  0.00    +0.094 C 
ATOM     11  C   UNL     1      -1.456   0.785  25.170  0.00  0.00    +0.082 C 
ENDROOT
BRANCH  10  12
ATOM     12  C   UNL     1      -1.327   2.193  24.767  0.00  0.00    +0.207 A 
ATOM     13  N   UNL     1      -0.741   2.749  24.602  0.00  0.00    -0.212 NA
ATOM     14  C   UNL     1      -1.021   3.490  24.829  0.00  0.00    +0.119 A 
ATOM     15  C   UNL     1      -1.782   3.393  25.134  0.00  0.00    +0.164 A 
ATOM     16  O   UNL     1      -1.971   2.591  25.096  0.00  0.00    -0.438 OA
ATOM     17  C   UNL     1      -2.203   4.047  25.407  0.00  0.00    +0.039 A 
ATOM     18  C   UNL     1      -1.865   4.799  25.375  0.00  0.00    +0.003 A 
ATOM     19  C   UNL     1      -1.105   4.896  25.070  0.00  0.00    +0.002 A 
ATOM     20  C   UNL     1      -0.683   4.243  24.796  0.00  0.00    +0.022 A 
ENDBRANCH  10  12
BRANCH   7   6
ATOM      6  C   UNL     1      -1.442  -0.685  25.139  0.00  0.00    +0.099 C 
BRANCH   6   5
ATOM      3  C   UNL     1      -3.350  -1.691  24.810  0.00  0.00    +0.068 A 
ATOM      4  C   UNL     1      -2.587  -1.405  24.681  0.00  0.00    +0.007 A 
ATOM      5  C   UNL     1      -2.205  -0.970  25.269  0.00  0.00    -0.005 A 
ATOM     21  C   UNL     1      -2.586  -0.821  25.985  0.00  0.00    -0.003 A 
ATOM     22  C   UNL     1      -3.349  -1.107  26.113  0.00  0.00    +0.000 A 
ATOM     23  C   UNL     1      -3.731  -1.541  25.526  0.00  0.00    +0.010 A 
BRANCH   3   2
ATOM      1  N   UNL     1      -4.115  -2.561  23.635  0.00  0.00    -0.191 NA
ATOM      2  C   UNL     1      -3.733  -2.126  24.222  0.00  0.00    +0.100 C 
ENDBRANCH   3   2
ENDBRANCH   6   5
ENDBRANCH   7   6
TORSDOF 4
ENDMDL
