MODEL 1
REMARK VINA RESULT:      -9.7      0.000      0.000
REMARK  Name = 
REMARK  6 active torsions:
REMARK  status: ('A' for Active; 'I' for Inactive)
REMARK    1  A    between atoms: O_2  and  C_3
REMARK    2  A    between atoms: C_3  and  C_4
REMARK    3  A    between atoms: C_10  and  C_13
REMARK    4  A    between atoms: C_16  and  C_18
REMARK    5  A    between atoms: N_22  and  C_23
REMARK    6  A    between atoms: C_23  and  C_24
REMARK                            x       y       z     vdW  Elec       q    Type
REMARK                         _______ _______ _______ _____ _____    ______ ____
ROOT
ATOM     13  C   UNL     1      -1.062  -0.335  24.483  0.00  0.00    +0.205 A 
ATOM     14  N   UNL     1      -1.161  -0.635  25.246  0.00  0.00    -0.056 NA
ATOM     15  O   UNL     1      -1.952  -0.853  25.333  0.00  0.00    -0.336 OA
ATOM     16  C   UNL     1      -2.342  -0.688  24.625  0.00  0.00    +0.251 A 
ATOM     17  N   UNL     1      -1.791  -0.368  24.100  0.00  0.00    -0.190 NA
ENDROOT
BRANCH  13  10
ATOM      4  C   UNL     1       2.264   0.283  22.796  0.00  0.00    +0.277 C 
ATOM      5  O   UNL     1       2.066  -0.515  22.718  0.00  0.00    -0.270 OA
ATOM      6  N   UNL     1       1.758   0.797  23.196  0.00  0.00    -0.158 NA
ATOM      7  C   UNL     1       1.053   0.514  23.517  0.00  0.00    +0.155 A 
ATOM      8  N   UNL     1       0.546   1.028  23.917  0.00  0.00    -0.227 NA
ATOM      9  C   UNL     1      -0.159   0.745  24.239  0.00  0.00    +0.103 A 
ATOM     10  C   UNL     1      -0.357  -0.052  24.161  0.00  0.00    +0.058 A 
ATOM     11  C   UNL     1       0.149  -0.566  23.762  0.00  0.00    +0.008 A 
ATOM     12  C   UNL     1       0.854  -0.283  23.440  0.00  0.00    +0.036 A 
BRANCH   4   3
ATOM      3  C   UNL     1       2.969   0.566  22.474  0.00  0.00    +0.229 C 
BRANCH   3   2
ATOM      1  C   UNL     1       4.374   0.748  22.669  0.00  0.00    +0.175 C 
ATOM      2  O   UNL     1       3.693   0.290  22.760  0.00  0.00    -0.342 OA
ENDBRANCH   3   2
ENDBRANCH   4   3
ENDBRANCH  13  10
BRANCH  16  18
ATOM     18  C   UNL     1      -3.141  -0.820  24.469  0.00  0.00    +0.138 C 
ATOM     19  C   UNL     1      -3.463  -1.501  24.134  0.00  0.00    +0.027 C 
ATOM     20  C   UNL     1      -4.280  -1.396  24.078  0.00  0.00    +0.019 C 
ATOM     21  C   UNL     1      -4.462  -0.650  24.379  0.00  0.00    +0.073 C 
ATOM     22  N   UNL     1      -3.758  -0.293  24.621  0.00  0.00    -0.263 NA
BRANCH  22  23
ATOM     23  C   UNL     1      -3.684   0.457  24.955  0.00  0.00    +0.099 C 
BRANCH  23  24
ATOM     24  C   UNL     1      -4.337   0.960  24.988  0.00  0.00    -0.006 A 
ATOM     25  C   UNL     1      -4.918   0.844  25.563  0.00  0.00    -0.003 A 
ATOM     26  C   UNL     1      -5.570   1.347  25.596  0.00  0.00    -0.005 A 
ATOM     27  C   UNL     1      -5.643   1.966  25.055  0.00  0.00    -0.022 A 
ATOM     28  C   UNL     1      -6.296   2.469  25.088  0.00  0.00    +0.031 C 
ATOM     29  C   UNL     1      -5.062   2.082  24.481  0.00  0.00    -0.005 A 
ATOM     30  C   UNL     1      -4.409   1.578  24.448  0.00  0.00    -0.003 A 
ENDBRANCH  23  24
ENDBRANCH  22  23
ENDBRANCH  16  18
TORSDOF 6
ENDMDL
MODEL 2
REMARK VINA RESULT:      -9.2      2.175      2.735
REMARK  Name = 
REMARK  6 active torsions:
REMARK  status: ('A' for Active; 'I' for Inactive)
REMARK    1  A    between atoms: O_2  and  C_3
REMARK    2  A    between atoms: C_3  and  C_4
REMARK    3  A    between atoms: C_10  and  C_13
REMARK    4  A    between atoms: C_16  and  C_18
REMARK    5  A    between atoms: N_22  and  C_23
REMARK    6  A    between atoms: C_23  and  C_24
REMARK                            x       y       z     vdW  Elec       q    Type
REMARK                         _______ _______ _______ _____ _____    ______ ____
ROOT
ATOM     13  C   UNL     1      -0.447   0.454  23.836  0.00  0.00    +0.205 A 
ATOM     14  N   UNL     1      -0.817  -0.029  24.394  0.00  0.00    -0.056 NA
ATOM     15  O   UNL     1      -1.574   0.272  24.529  0.00  0.00    -0.336 OA
ATOM     16  C   UNL     1      -1.671   0.940  24.054  0.00  0.00    +0.251 A 
ATOM     17  N   UNL     1      -0.974   1.052  23.626  0.00  0.00    -0.190 NA
ENDROOT
BRANCH  13  10
ATOM      4  C   UNL     1       3.194   0.610  22.831  0.00  0.00    +0.277 C 
ATOM      5  O   UNL     1       3.016   1.263  23.303  0.00  0.00    -0.270 OA
ATOM      6  N   UNL     1       2.609   0.057  22.654  0.00  0.00    -0.158 NA
ATOM      7  C   UNL     1       1.845   0.156  22.949  0.00  0.00    +0.155 A 
ATOM      8  N   UNL     1       1.258  -0.397  22.773  0.00  0.00    -0.227 NA
ATOM      9  C   UNL     1       0.495  -0.298  23.068  0.00  0.00    +0.103 A 
ATOM     10  C   UNL     1       0.317   0.355  23.541  0.00  0.00    +0.058 A 
ATOM     11  C   UNL     1       0.902   0.908  23.717  0.00  0.00    +0.008 A 
ATOM     12  C   UNL     1       1.666   0.809  23.422  0.00  0.00    +0.036 A 
BRANCH   4   3
ATOM      3  C   UNL     1       3.958   0.511  22.535  0.00  0.00    +0.229 C 
BRANCH   3   2
ATOM      1  C   UNL     1       5.265   0.192  23.017  0.00  0.00    +0.175 C 
ATOM      2  O   UNL     1       4.610   0.693  23.007  0.00  0.00    -0.342 OA
ENDBRANCH   3   2
ENDBRANCH   4   3
ENDBRANCH  13  10
BRANCH  16  18
ATOM     18  C   UNL     1      -2.345   1.413  24.014  0.00  0.00    +0.138 C 
ATOM     19  C   UNL     1      -2.995   1.290  23.520  0.00  0.00    +0.027 C 
ATOM     20  C   UNL     1      -3.541   1.893  23.662  0.00  0.00    +0.019 C 
ATOM     21  C   UNL     1      -3.228   2.388  24.243  0.00  0.00    +0.073 C 
ATOM     22  N   UNL     1      -2.489   2.092  24.461  0.00  0.00    -0.263 NA
BRANCH  22  23
ATOM     23  C   UNL     1      -1.984   2.417  25.026  0.00  0.00    +0.099 C 
BRANCH  23  24
ATOM     24  C   UNL     1      -1.925   3.235  25.104  0.00  0.00    -0.006 A 
ATOM     25  C   UNL     1      -1.317   3.644  24.725  0.00  0.00    -0.003 A 
ATOM     26  C   UNL     1      -1.258   4.462  24.804  0.00  0.00    -0.005 A 
ATOM     27  C   UNL     1      -1.807   4.874  25.261  0.00  0.00    -0.022 A 
ATOM     28  C   UNL     1      -1.748   5.693  25.340  0.00  0.00    +0.031 C 
ATOM     29  C   UNL     1      -2.416   4.466  25.641  0.00  0.00    -0.005 A 
ATOM     30  C   UNL     1      -2.474   3.647  25.562  0.00  0.00    -0.003 A 
ENDBRANCH  23  24
ENDBRANCH  22  23
ENDBRANCH  16  18
TORSDOF 6
ENDMDL
MODEL 3
REMARK VINA RESULT:      -9.0      1.326      2.632
REMARK  Name = 
REMARK  6 active torsions:
REMARK  status: ('A' for Active; 'I' for Inactive)
REMARK    1  A    between atoms: O_2  and  C_3
REMARK    2  A    between atoms: C_3  and  C_4
REMARK    3  A    between atoms: C_10  and  C_13
REMARK    4  A    between atoms: C_16  and  C_18
REMARK    5  A    between atoms: N_22  and  C_23
REMARK    6  A    between atoms: C_23  and  C_24
REMARK                            x       y       z     vdW  Elec       q    Type
REMARK                         _______ _______ _______ _____ _____    ______ ____
ROOT
ATOM     13  C   UNL     1      -1.772   1.746  23.984  0.00  0.00    +0.205 A 
ATOM     14  N   UNL     1      -2.235   2.322  23.616  0.00  0.00    -0.056 NA
ATOM     15  O   UNL     1      -3.024   2.174  23.807  0.00  0.00    -0.336 OA
ATOM     16  C   UNL     1      -3.049   1.507  24.293  0.00  0.00    +0.251 A 
ATOM     17  N   UNL     1      -2.274   1.243  24.402  0.00  0.00    -0.190 NA
ENDROOT
BRANCH  13  10
ATOM      4  C   UNL     1       1.860   0.909  23.353  0.00  0.00    +0.277 C 
ATOM      5  O   UNL     1       1.385   0.378  22.937  0.00  0.00    -0.270 OA
ATOM      6  N   UNL     1       1.515   1.501  23.811  0.00  0.00    -0.158 NA
ATOM      7  C   UNL     1       0.693   1.562  23.854  0.00  0.00    +0.155 A 
ATOM      8  N   UNL     1       0.347   2.155  24.314  0.00  0.00    -0.227 NA
ATOM      9  C   UNL     1      -0.475   2.216  24.357  0.00  0.00    +0.103 A 
ATOM     10  C   UNL     1      -0.950   1.685  23.941  0.00  0.00    +0.058 A 
ATOM     11  C   UNL     1      -0.605   1.093  23.482  0.00  0.00    +0.008 A 
ATOM     12  C   UNL     1       0.217   1.032  23.439  0.00  0.00    +0.036 A 
BRANCH   4   3
ATOM      3  C   UNL     1       2.682   0.848  23.310  0.00  0.00    +0.229 C 
BRANCH   3   2
ATOM      1  C   UNL     1       3.856   0.566  22.545  0.00  0.00    +0.175 C 
ATOM      2  O   UNL     1       3.037   0.528  22.637  0.00  0.00    -0.342 OA
ENDBRANCH   3   2
ENDBRANCH   4   3
ENDBRANCH  13  10
BRANCH  16  18
ATOM     18  C   UNL     1      -3.727   1.165  24.613  0.00  0.00    +0.138 C 
ATOM     19  C   UNL     1      -4.249   1.525  25.140  0.00  0.00    +0.027 C 
ATOM     20  C   UNL     1      -4.848   0.985  25.316  0.00  0.00    +0.019 C 
ATOM     21  C   UNL     1      -4.696   0.291  24.897  0.00  0.00    +0.073 C 
ATOM     22  N   UNL     1      -4.003   0.402  24.462  0.00  0.00    -0.263 NA
BRANCH  22  23
ATOM     23  C   UNL     1      -3.649  -0.152  23.965  0.00  0.00    +0.099 C 
BRANCH  23  24
ATOM     24  C   UNL     1      -3.687  -0.955  24.148  0.00  0.00    -0.006 A 
ATOM     25  C   UNL     1      -3.211  -1.265  24.747  0.00  0.00    -0.003 A 
ATOM     26  C   UNL     1      -3.249  -2.068  24.931  0.00  0.00    -0.005 A 
ATOM     27  C   UNL     1      -3.763  -2.562  24.516  0.00  0.00    -0.022 A 
ATOM     28  C   UNL     1      -3.802  -3.366  24.700  0.00  0.00    +0.031 C 
ATOM     29  C   UNL     1      -4.239  -2.253  23.918  0.00  0.00    -0.005 A 
ATOM     30  C   UNL     1      -4.201  -1.449  23.734  0.00  0.00    -0.003 A 
ENDBRANCH  23  24
ENDBRANCH  22  23
ENDBRANCH  16  18
TORSDOF 6
ENDMDL
MODEL 4
REMARK VINA RESULT:      -8.8      1.629      2.315
REMARK  Name = 
REMARK  6 active torsions:
REMARK  status: ('A' for Active; 'I' for Inactive)
REMARK    1  A    between atoms: O_2  and  C_3
REMARK    2  A    between atoms: C_3  and  C_4
REMARK    3  A    between atoms: C_10  and  C_13
REMARK    4  A    between atoms: C_16  and  C_18
REMARK    5  A    between atoms: N_22  and  C_23
REMARK    6  A    between atoms: C_23  and  C_24
REMARK                            x       y       z     vdW  Elec       q    Type
REMARK                         _______ _______ _______ _____ _____    ______ ____
ROOT
ATOM     13  C   UNL     1      -0.608   1.391  24.742  0.00  0.00    +0.205 A 
ATOM     14  N   UNL     1      -0.931   1.015  25.402  0.00  0.00    -0.056 NA
ATOM     15  O   UNL     1      -1.533   1.494  25.699  0.00  0.00    -0.336 OA
ATOM     16  C   UNL     1      -1.583   2.166  25.223  0.00  0.00    +0.251 A 
ATOM     17  N   UNL     1      -1.011   2.102  24.632  0.00  0.00    -0.190 NA
ENDROOT
BRANCH  13  10
ATOM      4  C   UNL     1       2.582   0.647  22.856  0.00  0.00    +0.277 C 
ATOM      5  O   UNL     1       2.688   1.331  23.306  0.00  0.00    -0.270 OA
ATOM      6  N   UNL     1       1.860   0.250  22.872  0.00  0.00    -0.158 NA
ATOM      7  C   UNL     1       1.243   0.535  23.340  0.00  0.00    +0.155 A 
ATOM      8  N   UNL     1       0.520   0.137  23.357  0.00  0.00    -0.227 NA
ATOM      9  C   UNL     1      -0.097   0.422  23.824  0.00  0.00    +0.103 A 
ATOM     10  C   UNL     1       0.009   1.106  24.274  0.00  0.00    +0.058 A 
ATOM     11  C   UNL     1       0.731   1.503  24.257  0.00  0.00    +0.008 A 
ATOM     12  C   UNL     1       1.348   1.218  23.790  0.00  0.00    +0.036 A 
BRANCH   4   3
ATOM      3  C   UNL     1       3.199   0.362  22.388  0.00  0.00    +0.229 C 
BRANCH   3   2
ATOM      1  C   UNL     1       4.619   0.251  22.516  0.00  0.00    +0.175 C 
ATOM      2  O   UNL     1       3.944   0.717  22.426  0.00  0.00    -0.342 OA
ENDBRANCH   3   2
ENDBRANCH   4   3
ENDBRANCH  13  10
BRANCH  16  18
ATOM     18  C   UNL     1      -2.111   2.792  25.322  0.00  0.00    +0.138 C 
ATOM     19  C   UNL     1      -1.946   3.512  25.690  0.00  0.00    +0.027 C 
ATOM     20  C   UNL     1      -2.630   3.973  25.665  0.00  0.00    +0.019 C 
ATOM     21  C   UNL     1      -3.217   3.539  25.281  0.00  0.00    +0.073 C 
ATOM     22  N   UNL     1      -2.896   2.808  25.069  0.00  0.00    -0.263 NA
BRANCH  22  23
ATOM     23  C   UNL     1      -3.292   2.202  24.675  0.00  0.00    +0.099 C 
BRANCH  23  24
ATOM     24  C   UNL     1      -4.105   2.108  24.771  0.00  0.00    -0.006 A 
ATOM     25  C   UNL     1      -4.396   1.512  25.263  0.00  0.00    -0.003 A 
ATOM     26  C   UNL     1      -5.209   1.418  25.360  0.00  0.00    -0.005 A 
ATOM     27  C   UNL     1      -5.733   1.919  24.966  0.00  0.00    -0.022 A 
ATOM     28  C   UNL     1      -6.547   1.825  25.063  0.00  0.00    +0.031 C 
ATOM     29  C   UNL     1      -5.443   2.515  24.474  0.00  0.00    -0.005 A 
ATOM     30  C   UNL     1      -4.628   2.609  24.377  0.00  0.00    -0.003 A 
ENDBRANCH  23  24
ENDBRANCH  22  23
ENDBRANCH  16  18
TORSDOF 6
ENDMDL
MODEL 5
REMARK VINA RESULT:      -8.7      2.554      4.232
REMARK  Name = 
REMARK  6 active torsions:
REMARK  status: ('A' for Active; 'I' for Inactive)
REMARK    1  A    between atoms: O_2  and  C_3
REMARK    2  A    between atoms: C_3  and  C_4
REMARK    3  A    between atoms: C_10  and  C_13
REMARK    4  A    between atoms: C_16  and  C_18
REMARK    5  A    between atoms: N_22  and  C_23
REMARK    6  A    between atoms: C_23  and  C_24
REMARK                            x       y       z     vdW  Elec       q    Type
REMARK                         _______ _______ _______ _____ _____    ______ ____
ROOT
ATOM     13  C   UNL     1      -0.426   1.844  25.125  0.00  0.00    +0.205 A 
ATOM     14  N   UNL     1       0.200   2.160  25.559  0.00  0.00    -0.056 NA
ATOM     15  O   UNL     1       0.070   2.971  25.642  0.00  0.00    -0.336 OA
ATOM     16  C   UNL     1      -0.637   3.155  25.259  0.00  0.00    +0.251 A 
ATOM     17  N   UNL     1      -0.944   2.459  24.939  0.00  0.00    -0.190 NA
ENDROOT
BRANCH  13  10
ATOM      4  C   UNL     1      -1.347  -1.795  24.674  0.00  0.00    +0.277 C 
ATOM      5  O   UNL     1      -1.805  -1.474  25.280  0.00  0.00    -0.270 OA
ATOM      6  N   UNL     1      -0.797  -1.324  24.279  0.00  0.00    -0.158 NA
ATOM      7  C   UNL     1      -0.704  -0.532  24.490  0.00  0.00    +0.155 A 
ATOM      8  N   UNL     1      -0.153  -0.061  24.095  0.00  0.00    -0.227 NA
ATOM      9  C   UNL     1      -0.061   0.731  24.306  0.00  0.00    +0.103 A 
ATOM     10  C   UNL     1      -0.519   1.052  24.913  0.00  0.00    +0.058 A 
ATOM     11  C   UNL     1      -1.069   0.581  25.308  0.00  0.00    +0.008 A 
ATOM     12  C   UNL     1      -1.161  -0.211  25.097  0.00  0.00    +0.036 A 
BRANCH   4   3
ATOM      3  C   UNL     1      -1.439  -2.587  24.462  0.00  0.00    +0.229 C 
BRANCH   3   2
ATOM      1  C   UNL     1      -2.545  -3.355  23.982  0.00  0.00    +0.175 C 
ATOM      2  O   UNL     1      -2.157  -2.970  24.600  0.00  0.00    -0.342 OA
ENDBRANCH   3   2
ENDBRANCH   4   3
ENDBRANCH  13  10
BRANCH  16  18
ATOM     18  C   UNL     1      -0.978   3.904  25.205  0.00  0.00    +0.138 C 
ATOM     19  C   UNL     1      -0.631   4.572  24.865  0.00  0.00    +0.027 C 
ATOM     20  C   UNL     1      -1.164   5.198  24.931  0.00  0.00    +0.019 C 
ATOM     21  C   UNL     1      -1.840   4.918  25.311  0.00  0.00    +0.073 C 
ATOM     22  N   UNL     1      -1.725   4.118  25.481  0.00  0.00    -0.263 NA
BRANCH  22  23
ATOM     23  C   UNL     1      -2.263   3.621  25.859  0.00  0.00    +0.099 C 
BRANCH  23  24
ATOM     24  C   UNL     1      -3.073   3.722  25.740  0.00  0.00    -0.006 A 
ATOM     25  C   UNL     1      -3.533   4.090  26.318  0.00  0.00    -0.003 A 
ATOM     26  C   UNL     1      -4.343   4.190  26.198  0.00  0.00    -0.005 A 
ATOM     27  C   UNL     1      -4.693   3.923  25.501  0.00  0.00    -0.022 A 
ATOM     28  C   UNL     1      -5.504   4.024  25.382  0.00  0.00    +0.031 C 
ATOM     29  C   UNL     1      -4.234   3.555  24.923  0.00  0.00    -0.005 A 
ATOM     30  C   UNL     1      -3.424   3.454  25.043  0.00  0.00    -0.003 A 
ENDBRANCH  23  24
ENDBRANCH  22  23
ENDBRANCH  16  18
TORSDOF 6
ENDMDL
MODEL 6
REMARK VINA RESULT:      -8.2      2.979      3.936
REMARK  Name = 
REMARK  6 active torsions:
REMARK  status: ('A' for Active; 'I' for Inactive)
REMARK    1  A    between atoms: O_2  and  C_3
REMARK    2  A    between atoms: C_3  and  C_4
REMARK    3  A    between atoms: C_10  and  C_13
REMARK    4  A    between atoms: C_16  and  C_18
REMARK    5  A    between atoms: N_22  and  C_23
REMARK    6  A    between atoms: C_23  and  C_24
REMARK                            x       y       z     vdW  Elec       q    Type
REMARK                         _______ _______ _______ _____ _____    ______ ____
ROOT
ATOM     13  C   UNL     1      -1.986   2.342  24.989  0.00  0.00    +0.205 A 
ATOM     14  N   UNL     1      -2.206   2.682  24.270  0.00  0.00    -0.056 NA
ATOM     15  O   UNL     1      -2.963   2.412  24.081  0.00  0.00    -0.336 OA
ATOM     16  C   UNL     1      -3.211   1.906  24.683  0.00  0.00    +0.251 A 
ATOM     17  N   UNL     1      -2.607   1.862  25.245  0.00  0.00    -0.190 NA
ENDROOT
BRANCH  13  10
ATOM      4  C   UNL     1       0.937   2.635  27.367  0.00  0.00    +0.277 C 
ATOM      5  O   UNL     1       0.287   2.334  27.776  0.00  0.00    -0.270 OA
ATOM      6  N   UNL     1       0.874   2.817  26.566  0.00  0.00    -0.158 NA
ATOM      7  C   UNL     1       0.159   2.698  26.172  0.00  0.00    +0.155 A 
ATOM      8  N   UNL     1       0.094   2.880  25.369  0.00  0.00    -0.227 NA
ATOM      9  C   UNL     1      -0.620   2.761  24.975  0.00  0.00    +0.103 A 
ATOM     10  C   UNL     1      -1.271   2.460  25.383  0.00  0.00    +0.058 A 
ATOM     11  C   UNL     1      -1.207   2.279  26.185  0.00  0.00    +0.008 A 
ATOM     12  C   UNL     1      -0.492   2.397  26.579  0.00  0.00    +0.036 A 
BRANCH   4   3
ATOM      3  C   UNL     1       1.652   2.754  27.762  0.00  0.00    +0.229 C 
BRANCH   3   2
ATOM      1  C   UNL     1       2.410   2.754  28.974  0.00  0.00    +0.175 C 
ATOM      2  O   UNL     1       1.686   2.691  28.584  0.00  0.00    -0.342 OA
ENDBRANCH   3   2
ENDBRANCH   4   3
ENDBRANCH  13  10
BRANCH  16  18
ATOM     18  C   UNL     1      -3.934   1.512  24.719  0.00  0.00    +0.138 C 
ATOM     19  C   UNL     1      -4.643   1.825  25.003  0.00  0.00    +0.027 C 
ATOM     20  C   UNL     1      -5.224   1.242  24.936  0.00  0.00    +0.019 C 
ATOM     21  C   UNL     1      -4.874   0.570  24.611  0.00  0.00    +0.073 C 
ATOM     22  N   UNL     1      -4.077   0.737  24.476  0.00  0.00    -0.263 NA
BRANCH  22  23
ATOM     23  C   UNL     1      -3.521   0.219  24.155  0.00  0.00    +0.099 C 
BRANCH  23  24
ATOM     24  C   UNL     1      -3.618  -0.595  24.242  0.00  0.00    -0.006 A 
ATOM     25  C   UNL     1      -4.035  -1.025  23.674  0.00  0.00    -0.003 A 
ATOM     26  C   UNL     1      -4.131  -1.839  23.761  0.00  0.00    -0.005 A 
ATOM     27  C   UNL     1      -3.811  -2.225  24.415  0.00  0.00    -0.022 A 
ATOM     28  C   UNL     1      -3.908  -3.040  24.502  0.00  0.00    +0.031 C 
ATOM     29  C   UNL     1      -3.394  -1.797  24.984  0.00  0.00    -0.005 A 
ATOM     30  C   UNL     1      -3.298  -0.982  24.897  0.00  0.00    -0.003 A 
ENDBRANCH  23  24
ENDBRANCH  22  23
ENDBRANCH  16  18
TORSDOF 6
ENDMDL
MODEL 7
REMARK VINA RESULT:      -8.1      2.526      5.540
REMARK  Name = 
REMARK  6 active torsions:
REMARK  status: ('A' for Active; 'I' for Inactive)
REMARK    1  A    between atoms: O_2  and  C_3
REMARK    2  A    between atoms: C_3  and  C_4
REMARK    3  A    between atoms: C_10  and  C_13
REMARK    4  A    between atoms: C_16  and  C_18
REMARK    5  A    between atoms: N_22  and  C_23
REMARK    6  A    between atoms: C_23  and  C_24
REMARK                            x       y       z     vdW  Elec       q    Type
REMARK                         _______ _______ _______ _____ _____    ______ ____
ROOT
ATOM     13  C   UNL     1      -1.296   1.940  25.213  0.00  0.00    +0.205 A 
ATOM     14  N   UNL     1      -0.606   1.892  25.663  0.00  0.00    -0.056 NA
ATOM     15  O   UNL     1      -0.164   1.252  25.386  0.00  0.00    -0.336 OA
ATOM     16  C   UNL     1      -0.582   0.905  24.765  0.00  0.00    +0.251 A 
ATOM     17  N   UNL     1      -1.281   1.330  24.659  0.00  0.00    -0.190 NA
ENDROOT
BRANCH  13  10
ATOM      4  C   UNL     1      -4.461   4.003  25.328  0.00  0.00    +0.277 C 
ATOM      5  O   UNL     1      -4.631   3.268  24.995  0.00  0.00    -0.270 OA
ATOM      6  N   UNL     1      -3.693   4.179  25.571  0.00  0.00    -0.158 NA
ATOM      7  C   UNL     1      -3.094   3.620  25.482  0.00  0.00    +0.155 A 
ATOM      8  N   UNL     1      -2.325   3.795  25.725  0.00  0.00    -0.227 NA
ATOM      9  C   UNL     1      -1.725   3.236  25.636  0.00  0.00    +0.103 A 
ATOM     10  C   UNL     1      -1.895   2.500  25.303  0.00  0.00    +0.058 A 
ATOM     11  C   UNL     1      -2.663   2.324  25.060  0.00  0.00    +0.008 A 
ATOM     12  C   UNL     1      -3.262   2.884  25.149  0.00  0.00    +0.036 A 
BRANCH   4   3
ATOM      3  C   UNL     1      -5.060   4.563  25.418  0.00  0.00    +0.229 C 
BRANCH   3   2
ATOM      1  C   UNL     1      -6.433   4.877  25.664  0.00  0.00    +0.175 C 
ATOM      2  O   UNL     1      -5.824   4.322  25.618  0.00  0.00    -0.342 OA
ENDBRANCH   3   2
ENDBRANCH   4   3
ENDBRANCH  13  10
BRANCH  16  18
ATOM     18  C   UNL     1      -0.342   0.248  24.328  0.00  0.00    +0.138 C 
ATOM     19  C   UNL     1       0.182   0.254  23.691  0.00  0.00    +0.027 C 
ATOM     20  C   UNL     1       0.263  -0.521  23.419  0.00  0.00    +0.019 C 
ATOM     21  C   UNL     1      -0.211  -1.006  23.889  0.00  0.00    +0.073 C 
ATOM     22  N   UNL     1      -0.585  -0.531  24.451  0.00  0.00    -0.263 NA
BRANCH  22  23
ATOM     23  C   UNL     1      -1.110  -0.790  25.032  0.00  0.00    +0.099 C 
BRANCH  23  24
ATOM     24  C   UNL     1      -1.668  -1.371  24.855  0.00  0.00    -0.006 A 
ATOM     25  C   UNL     1      -2.455  -1.160  24.726  0.00  0.00    -0.003 A 
ATOM     26  C   UNL     1      -3.014  -1.741  24.549  0.00  0.00    -0.005 A 
ATOM     27  C   UNL     1      -2.786  -2.532  24.502  0.00  0.00    -0.022 A 
ATOM     28  C   UNL     1      -3.344  -3.113  24.325  0.00  0.00    +0.031 C 
ATOM     29  C   UNL     1      -1.999  -2.743  24.631  0.00  0.00    -0.005 A 
ATOM     30  C   UNL     1      -1.440  -2.162  24.807  0.00  0.00    -0.003 A 
ENDBRANCH  23  24
ENDBRANCH  22  23
ENDBRANCH  16  18
TORSDOF 6
ENDMDL
