MODEL 1
REMARK VINA RESULT:     -11.5      0.000      0.000
REMARK  Name = 
REMARK  4 active torsions:
REMARK  status: ('A' for Active; 'I' for Inactive)
REMARK    1  A    between atoms: O_2  and  C_3
REMARK    2  A    between atoms: C_6  and  C_9
REMARK    3  A    between atoms: N_11  and  C_12
REMARK    4  A    between atoms: C_18  and  C_19
REMARK                            x       y       z     vdW  Elec       q    Type
REMARK                         _______ _______ _______ _____ _____    ______ ____
ROOT
ATOM     12  C   UNL     1      -4.209   1.759  24.900  0.00  0.00    +0.133 C 
ATOM     13  C   UNL     1      -4.881   2.050  25.277  0.00  0.00    +0.202 C 
ATOM     14  O   UNL     1      -5.395   1.617  25.756  0.00  0.00    -0.219 OA
ATOM     15  C   UNL     1      -4.951   2.851  25.091  0.00  0.00    +0.184 C 
ATOM     16  O   UNL     1      -5.547   3.359  25.351  0.00  0.00    -0.220 OA
ATOM     17  C   UNL     1      -4.321   3.054  24.599  0.00  0.00    +0.042 C 
ATOM     18  C   UNL     1      -3.862   2.379  24.481  0.00  0.00    +0.049 C 
ENDROOT
BRANCH  18  19
ATOM     19  C   UNL     1      -3.177   2.334  24.023  0.00  0.00    -0.002 A 
ATOM     20  C   UNL     1      -3.230   2.248  23.205  0.00  0.00    -0.001 A 
ATOM     21  C   UNL     1      -2.546   2.203  22.749  0.00  0.00    +0.020 A 
ATOM     22  C   UNL     1      -1.805   2.243  23.111  0.00  0.00    +0.099 A 
ATOM     23  N   UNL     1      -1.751   2.329  23.929  0.00  0.00    -0.243 NA
ATOM     24  C   UNL     1      -2.436   2.374  24.387  0.00  0.00    +0.095 A 
ENDBRANCH  18  19
BRANCH  12  11
ATOM      9  C   UNL     1      -4.436   0.355  24.765  0.00  0.00    +0.265 C 
ATOM     10  O   UNL     1      -5.220   0.502  24.558  0.00  0.00    -0.268 OA
ATOM     11  N   UNL     1      -3.930   0.982  24.936  0.00  0.00    -0.200 NA
BRANCH   9   6
ATOM      3  C   UNL     1      -3.601  -1.973  24.873  0.00  0.00    +0.139 A 
ATOM      4  C   UNL     1      -3.497  -1.467  25.516  0.00  0.00    +0.037 A 
ATOM      5  C   UNL     1      -3.776  -0.692  25.480  0.00  0.00    +0.008 A 
ATOM      6  C   UNL     1      -4.158  -0.421  24.801  0.00  0.00    +0.055 A 
ATOM      7  C   UNL     1      -4.261  -0.927  24.158  0.00  0.00    +0.008 A 
ATOM      8  C   UNL     1      -3.983  -1.702  24.194  0.00  0.00    +0.037 A 
BRANCH   3   2
ATOM      1  C   UNL     1      -2.606  -2.946  24.551  0.00  0.00    +0.252 C 
ATOM      2  O   UNL     1      -3.322  -2.748  24.908  0.00  0.00    -0.471 OA
ENDBRANCH   3   2
ENDBRANCH   9   6
ENDBRANCH  12  11
TORSDOF 4
ENDMDL
MODEL 2
REMARK VINA RESULT:     -10.6      1.392      2.381
REMARK  Name = 
REMARK  4 active torsions:
REMARK  status: ('A' for Active; 'I' for Inactive)
REMARK    1  A    between atoms: O_2  and  C_3
REMARK    2  A    between atoms: C_6  and  C_9
REMARK    3  A    between atoms: N_11  and  C_12
REMARK    4  A    between atoms: C_18  and  C_19
REMARK                            x       y       z     vdW  Elec       q    Type
REMARK                         _______ _______ _______ _____ _____    ______ ____
ROOT
ATOM     12  C   UNL     1      -3.932   1.768  24.088  0.00  0.00    +0.133 C 
ATOM     13  C   UNL     1      -3.373   2.101  23.582  0.00  0.00    +0.202 C 
ATOM     14  O   UNL     1      -2.794   1.690  23.160  0.00  0.00    -0.219 OA
ATOM     15  C   UNL     1      -3.493   2.917  23.570  0.00  0.00    +0.184 C 
ATOM     16  O   UNL     1      -3.056   3.466  23.136  0.00  0.00    -0.220 OA
ATOM     17  C   UNL     1      -4.127   3.088  24.070  0.00  0.00    +0.042 C 
ATOM     18  C   UNL     1      -4.399   2.378  24.390  0.00  0.00    +0.049 C 
ENDROOT
BRANCH  18  19
ATOM     19  C   UNL     1      -5.027   2.294  24.918  0.00  0.00    -0.002 A 
ATOM     20  C   UNL     1      -5.724   1.927  24.677  0.00  0.00    -0.001 A 
ATOM     21  C   UNL     1      -6.351   1.843  25.206  0.00  0.00    +0.020 A 
ATOM     22  C   UNL     1      -6.281   2.127  25.977  0.00  0.00    +0.099 A 
ATOM     23  N   UNL     1      -5.583   2.494  26.219  0.00  0.00    -0.243 NA
ATOM     24  C   UNL     1      -4.955   2.578  25.691  0.00  0.00    +0.095 A 
ENDBRANCH  18  19
BRANCH  12  11
ATOM      9  C   UNL     1      -3.361   0.534  24.525  0.00  0.00    +0.265 C 
ATOM     10  O   UNL     1      -2.629   0.904  24.613  0.00  0.00    -0.268 OA
ATOM     11  N   UNL     1      -4.012   0.965  24.262  0.00  0.00    -0.200 NA
BRANCH   9   6
ATOM      3  C   UNL     1      -3.600  -1.874  25.047  0.00  0.00    +0.139 A 
ATOM      4  C   UNL     1      -3.281  -1.359  25.607  0.00  0.00    +0.037 A 
ATOM      5  C   UNL     1      -3.202  -0.558  25.433  0.00  0.00    +0.008 A 
ATOM      6  C   UNL     1      -3.440  -0.269  24.699  0.00  0.00    +0.055 A 
ATOM      7  C   UNL     1      -3.759  -0.783  24.138  0.00  0.00    +0.008 A 
ATOM      8  C   UNL     1      -3.839  -1.585  24.312  0.00  0.00    +0.037 A 
BRANCH   3   2
ATOM      1  C   UNL     1      -3.338  -3.241  24.728  0.00  0.00    +0.252 C 
ATOM      2  O   UNL     1      -3.680  -2.676  25.221  0.00  0.00    -0.471 OA
ENDBRANCH   3   2
ENDBRANCH   9   6
ENDBRANCH  12  11
TORSDOF 4
ENDMDL
MODEL 3
REMARK VINA RESULT:     -10.5      1.505      4.130
REMARK  Name = 
REMARK  4 active torsions:
REMARK  status: ('A' for Active; 'I' for Inactive)
REMARK    1  A    between atoms: O_2  and  C_3
REMARK    2  A    between atoms: C_6  and  C_9
REMARK    3  A    between atoms: N_11  and  C_12
REMARK    4  A    between atoms: C_18  and  C_19
REMARK                            x       y       z     vdW  Elec       q    Type
REMARK                         _______ _______ _______ _____ _____    ______ ____
ROOT
ATOM     12  C   UNL     1      -3.444  -1.157  24.646  0.00  0.00    +0.133 C 
ATOM     13  C   UNL     1      -3.959  -1.727  24.346  0.00  0.00    +0.202 C 
ATOM     14  O   UNL     1      -4.750  -1.608  24.143  0.00  0.00    -0.219 OA
ATOM     15  C   UNL     1      -3.545  -2.438  24.285  0.00  0.00    +0.184 C 
ATOM     16  O   UNL     1      -3.849  -3.155  24.010  0.00  0.00    -0.220 OA
ATOM     17  C   UNL     1      -2.773  -2.307  24.547  0.00  0.00    +0.042 C 
ATOM     18  C   UNL     1      -2.711  -1.515  24.770  0.00  0.00    +0.049 C 
ENDROOT
BRANCH  18  19
ATOM     19  C   UNL     1      -2.033  -1.147  25.065  0.00  0.00    -0.002 A 
ATOM     20  C   UNL     1      -1.976  -0.968  25.867  0.00  0.00    -0.001 A 
ATOM     21  C   UNL     1      -1.300  -0.601  26.161  0.00  0.00    +0.020 A 
ATOM     22  C   UNL     1      -0.679  -0.412  25.652  0.00  0.00    +0.099 A 
ATOM     23  N   UNL     1      -0.735  -0.591  24.849  0.00  0.00    -0.243 NA
ATOM     24  C   UNL     1      -1.412  -0.959  24.554  0.00  0.00    +0.095 A 
ENDBRANCH  18  19
BRANCH  12  11
ATOM      9  C   UNL     1      -3.942   0.104  24.195  0.00  0.00    +0.265 C 
ATOM     10  O   UNL     1      -4.071  -0.215  23.446  0.00  0.00    -0.268 OA
ATOM     11  N   UNL     1      -3.628  -0.366  24.795  0.00  0.00    -0.200 NA
BRANCH   9   6
ATOM      3  C   UNL     1      -4.496   2.474  24.644  0.00  0.00    +0.139 A 
ATOM      4  C   UNL     1      -4.909   1.873  25.030  0.00  0.00    +0.037 A 
ATOM      5  C   UNL     1      -4.724   1.084  24.881  0.00  0.00    +0.008 A 
ATOM      6  C   UNL     1      -4.127   0.894  24.345  0.00  0.00    +0.055 A 
ATOM      7  C   UNL     1      -3.714   1.495  23.959  0.00  0.00    +0.008 A 
ATOM      8  C   UNL     1      -3.899   2.284  24.108  0.00  0.00    +0.037 A 
BRANCH   3   2
ATOM      1  C   UNL     1      -4.560   3.581  25.545  0.00  0.00    +0.252 C 
ATOM      2  O   UNL     1      -4.681   3.264  24.793  0.00  0.00    -0.471 OA
ENDBRANCH   3   2
ENDBRANCH   9   6
ENDBRANCH  12  11
TORSDOF 4
ENDMDL
MODEL 4
REMARK VINA RESULT:     -10.4      1.678      3.541
REMARK  Name = 
REMARK  4 active torsions:
REMARK  status: ('A' for Active; 'I' for Inactive)
REMARK    1  A    between atoms: O_2  and  C_3
REMARK    2  A    between atoms: C_6  and  C_9
REMARK    3  A    between atoms: N_11  and  C_12
REMARK    4  A    between atoms: C_18  and  C_19
REMARK                            x       y       z     vdW  Elec       q    Type
REMARK                         _______ _______ _______ _____ _____    ______ ____
ROOT
ATOM     12  C   UNL     1      -4.218   1.450  24.945  0.00  0.00    +0.133 C 
ATOM     13  C   UNL     1      -4.764   2.064  25.005  0.00  0.00    +0.202 C 
ATOM     14  O   UNL     1      -4.588   2.869  25.051  0.00  0.00    -0.219 OA
ATOM     15  C   UNL     1      -5.520   1.732  25.010  0.00  0.00    +0.184 C 
ATOM     16  O   UNL     1      -6.232   2.147  25.063  0.00  0.00    -0.220 OA
ATOM     17  C   UNL     1      -5.439   0.913  24.954  0.00  0.00    +0.042 C 
ATOM     18  C   UNL     1      -4.634   0.738  24.914  0.00  0.00    +0.049 C 
ENDROOT
BRANCH  18  19
ATOM     19  C   UNL     1      -4.304  -0.016  24.853  0.00  0.00    -0.002 A 
ATOM     20  C   UNL     1      -4.314  -0.415  24.132  0.00  0.00    -0.001 A 
ATOM     21  C   UNL     1      -3.985  -1.168  24.072  0.00  0.00    +0.020 A 
ATOM     22  C   UNL     1      -3.645  -1.523  24.734  0.00  0.00    +0.099 A 
ATOM     23  N   UNL     1      -3.635  -1.125  25.456  0.00  0.00    -0.243 NA
ATOM     24  C   UNL     1      -3.964  -0.371  25.517  0.00  0.00    +0.095 A 
ENDBRANCH  18  19
BRANCH  12  11
ATOM      9  C   UNL     1      -3.050   2.054  24.385  0.00  0.00    +0.265 C 
ATOM     10  O   UNL     1      -3.523   2.493  23.872  0.00  0.00    -0.268 OA
ATOM     11  N   UNL     1      -3.396   1.533  24.921  0.00  0.00    -0.200 NA
BRANCH   9   6
ATOM      3  C   UNL     1      -0.588   2.301  24.312  0.00  0.00    +0.139 A 
ATOM      4  C   UNL     1      -0.995   2.020  23.652  0.00  0.00    +0.037 A 
ATOM      5  C   UNL     1      -1.814   1.938  23.676  0.00  0.00    +0.008 A 
ATOM      6  C   UNL     1      -2.229   2.136  24.361  0.00  0.00    +0.055 A 
ATOM      7  C   UNL     1      -1.823   2.417  25.021  0.00  0.00    +0.008 A 
ATOM      8  C   UNL     1      -1.003   2.500  24.997  0.00  0.00    +0.037 A 
BRANCH   3   2
ATOM      1  C   UNL     1       0.713   1.714  24.260  0.00  0.00    +0.252 C 
ATOM      2  O   UNL     1       0.232   2.384  24.288  0.00  0.00    -0.471 OA
ENDBRANCH   3   2
ENDBRANCH   9   6
ENDBRANCH  12  11
TORSDOF 4
ENDMDL
