REMARK  Name = 
REMARK  8 active torsions:
REMARK  status: ('A' for Active; 'I' for Inactive)
REMARK    1  A    between atoms: O_2  and  C_3
REMARK    2  A    between atoms: C_3  and  C_5
REMARK    3  A    between atoms: C_5  and  C_6
REMARK    4  A    between atoms: C_5  and  N_13
REMARK    5  A    between atoms: C_6  and  C_7
REMARK    6  A    between atoms: C_14  and  C_16
REMARK    7  A    between atoms: C_22  and  C_24
REMARK    8  A    between atoms: N_32  and  C_33
REMARK                            x       y       z     vdW  Elec       q    Type
REMARK                         _______ _______ _______ _____ _____    ______ ____
ROOT
ATOM     16  C   UNL     1       4.287  -3.300   0.000  0.00  0.00    +0.174 C 
ATOM     17  C   UNL     1       5.001  -2.888   0.000  0.00  0.00    +0.124 C 
ATOM     18  N   UNL     1       5.716  -3.300   0.000  0.00  0.00    -0.259 N 
ATOM     19  C   UNL     1       5.716  -4.125   0.000  0.00  0.00    +0.117 C 
ATOM     20  C   UNL     1       5.001  -4.537   0.000  0.00  0.00    +0.115 C 
ATOM     21  N   UNL     1       4.287  -4.125   0.000  0.00  0.00    -0.270 N 
ATOM     22  C   UNL     1       3.572  -4.537   0.000  0.00  0.00    +0.226 C 
ATOM     23  O   UNL     1       2.858  -4.125   0.000  0.00  0.00    -0.275 OA
ATOM     30  C   UNL     1       6.430  -2.888   0.000  0.00  0.00    +0.323 C 
ATOM     31  O   UNL     1       7.145  -3.300   0.000  0.00  0.00    -0.251 OA
ATOM     32  N   UNL     1       6.430  -2.062   0.000  0.00  0.00    -0.190 NA
ENDROOT
BRANCH  22  24
ATOM     24  C   UNL     1       3.572  -5.362   0.000  0.00  0.00    +0.077 C 
ATOM     25  C   UNL     1       4.287  -5.775   0.000  0.00  0.00    +0.009 C 
ATOM     26  C   UNL     1       4.287  -6.600   0.000  0.00  0.00    +0.000 C 
ATOM     27  C   UNL     1       3.572  -7.013   0.000  0.00  0.00    +0.000 C 
ATOM     28  C   UNL     1       2.858  -6.600   0.000  0.00  0.00    +0.000 C 
ATOM     29  C   UNL     1       2.858  -5.775   0.000  0.00  0.00    +0.009 C 
ENDBRANCH  22  24
BRANCH  16  14
ATOM     13  N   UNL     1       3.572  -2.062   0.000  0.00  0.00    -0.194 NA
ATOM     14  C   UNL     1       3.572  -2.888   0.000  0.00  0.00    +0.262 C 
ATOM     15  O   UNL     1       2.858  -3.300   0.000  0.00  0.00    -0.271 OA
BRANCH  13   5
ATOM      5  C   UNL     1       2.858  -1.650   0.000  0.00  0.00    +0.198 C 
BRANCH   5   3
ATOM      3  C   UNL     1       2.143  -2.062   0.000  0.00  0.00    +0.337 C 
ATOM      4  O   UNL     1       1.429  -1.650   0.000  0.00  0.00    -0.248 OA
BRANCH   3   2
ATOM      1  C   UNL     1       1.429  -3.300   0.000  0.00  0.00    +0.256 C 
ATOM      2  O   UNL     1       2.143  -2.888   0.000  0.00  0.00    -0.443 OA
ENDBRANCH   3   2
ENDBRANCH   5   3
BRANCH   5   6
ATOM      6  C   UNL     1       2.858  -0.825   0.000  0.00  0.00    +0.061 C 
BRANCH   6   7
ATOM      7  C   UNL     1       2.143  -0.412   0.000  0.00  0.00    -0.001 A 
ATOM      8  C   UNL     1       1.429  -0.825   0.000  0.00  0.00    -0.001 A 
ATOM      9  C   UNL     1       0.715  -0.412   0.000  0.00  0.00    +0.020 A 
ATOM     10  C   UNL     1       0.715   0.412   0.000  0.00  0.00    +0.099 A 
ATOM     11  N   UNL     1       1.429   0.825   0.000  0.00  0.00    -0.243 NA
ATOM     12  C   UNL     1       2.143   0.412   0.000  0.00  0.00    +0.095 A 
ENDBRANCH   6   7
ENDBRANCH   5   6
ENDBRANCH  13   5
ENDBRANCH  16  14
BRANCH  32  33
ATOM     33  C   UNL     1       5.716  -1.650   0.000  0.00  0.00    +0.097 C 
ATOM     34  C   UNL     1       5.001  -2.062   0.000  0.00  0.00    +0.023 C 
ATOM     35  C   UNL     1       5.716  -0.825   0.000  0.00  0.00    +0.023 C 
ENDBRANCH  32  33
TORSDOF 8
