MODEL 1
REMARK VINA RESULT:     -10.7      0.000      0.000
REMARK  Name = 
REMARK  11 active torsions:
REMARK  status: ('A' for Active; 'I' for Inactive)
REMARK    1  A    between atoms: C_4  and  C_5
REMARK    2  A    between atoms: N_7  and  C_8
REMARK    3  A    between atoms: C_8  and  C_9
REMARK    4  A    between atoms: C_9  and  C_10
REMARK    5  A    between atoms: C_10  and  C_11
REMARK    6  A    between atoms: C_11  and  N_12
REMARK    7  A    between atoms: C_11  and  C_38
REMARK    8  A    between atoms: C_13  and  C_15
REMARK    9  A    between atoms: C_16  and  N_26
REMARK   10  A    between atoms: C_20  and  C_22
REMARK   11  A    between atoms: N_29  and  C_30
REMARK                            x       y       z     vdW  Elec       q    Type
REMARK                         _______ _______ _______ _____ _____    ______ ____
ROOT
ATOM     15  C   UNL     1      -3.056  -0.295  24.629  0.00  0.00    +0.174 C 
ATOM     16  C   UNL     1      -3.589   0.313  24.464  0.00  0.00    +0.126 C 
ATOM     17  C   UNL     1      -4.310  -0.029  24.257  0.00  0.00    +0.045 C 
ATOM     18  C   UNL     1      -4.223  -0.850  24.293  0.00  0.00    +0.096 C 
ATOM     19  N   UNL     1      -3.448  -1.013  24.523  0.00  0.00    -0.268 N 
ATOM     20  C   UNL     1      -3.122  -1.764  24.629  0.00  0.00    +0.249 C 
ATOM     21  O   UNL     1      -2.335  -1.842  24.862  0.00  0.00    -0.270 OA
ENDROOT
BRANCH  20  22
ATOM     22  C   UNL     1      -3.584  -2.435  24.503  0.00  0.00    +0.049 C 
ATOM     23  C   UNL     1      -3.225  -3.170  24.398  0.00  0.00    -0.039 C 
ATOM     24  C   UNL     1      -3.688  -3.842  24.271  0.00  0.00    +0.027 C 
ATOM     25  C   UNL     1      -2.403  -3.234  24.420  0.00  0.00    +0.027 C 
ENDBRANCH  20  22
BRANCH  16  26
ATOM     26  N   UNL     1      -3.428   1.121  24.500  0.00  0.00    -0.186 NA
ATOM     27  C   UNL     1      -4.019   1.649  24.731  0.00  0.00    +0.344 C 
ATOM     28  O   UNL     1      -4.770   1.369  24.925  0.00  0.00    -0.249 OA
ATOM     29  N   UNL     1      -3.859   2.458  24.767  0.00  0.00    -0.159 NA
BRANCH  29  30
ATOM     30  C   UNL     1      -4.449   2.986  24.998  0.00  0.00    +0.102 A 
ATOM     31  C   UNL     1      -4.563   3.686  24.577  0.00  0.00    +0.158 A 
ATOM     32  F   UNL     1      -4.088   3.859  23.926  0.00  0.00    -0.203 F 
ATOM     33  C   UNL     1      -5.154   4.214  24.808  0.00  0.00    +0.061 A 
ATOM     34  C   UNL     1      -5.629   4.041  25.459  0.00  0.00    +0.142 A 
ATOM     35  F   UNL     1      -6.220   4.570  25.690  0.00  0.00    -0.204 F 
ATOM     36  C   UNL     1      -5.515   3.341  25.880  0.00  0.00    +0.031 A 
ATOM     37  C   UNL     1      -4.924   2.813  25.649  0.00  0.00    +0.021 A 
ENDBRANCH  29  30
ENDBRANCH  16  26
BRANCH  15  13
ATOM     12  N   UNL     1      -1.705   0.048  24.310  0.00  0.00    -0.196 NA
ATOM     13  C   UNL     1      -2.269  -0.201  24.859  0.00  0.00    +0.262 C 
ATOM     14  O   UNL     1      -2.046  -0.357  25.637  0.00  0.00    -0.271 OA
BRANCH  12  11
ATOM     11  C   UNL     1      -0.919   0.141  24.540  0.00  0.00    +0.174 C 
BRANCH  11  38
ATOM     38  C   UNL     1      -0.337  -0.354  24.229  0.00  0.00    +0.281 C 
ATOM     39  N   UNL     1      -0.166  -0.335  23.423  0.00  0.00    -0.086 NA
ATOM     40  O   UNL     1       0.075  -0.869  24.726  0.00  0.00    -0.270 OA
ENDBRANCH  11  38
BRANCH  11  10
ATOM     10  C   UNL     1      -0.714   0.730  25.080  0.00  0.00    +0.033 C 
BRANCH  10   9
ATOM      9  C   UNL     1      -0.298   1.396  24.828  0.00  0.00    +0.026 C 
BRANCH   9   8
ATOM      8  C   UNL     1      -0.337   2.097  25.261  0.00  0.00    +0.116 C 
BRANCH   8   7
ATOM      5  C   UNL     1      -0.614   3.499  25.242  0.00  0.00    +0.264 C 
ATOM      6  O   UNL     1      -0.937   3.445  26.000  0.00  0.00    -0.268 OA
ATOM      7  N   UNL     1      -0.314   2.824  24.873  0.00  0.00    -0.202 NA
BRANCH   5   4
ATOM      1  C   UNL     1      -1.066   5.566  24.708  0.00  0.00    +0.027 C 
ATOM      2  C   UNL     1      -1.089   4.838  25.096  0.00  0.00    -0.039 C 
ATOM      3  C   UNL     1      -1.609   4.723  25.726  0.00  0.00    +0.027 C 
ATOM      4  C   UNL     1      -0.591   4.226  24.854  0.00  0.00    +0.051 C 
ENDBRANCH   5   4
ENDBRANCH   8   7
ENDBRANCH   9   8
ENDBRANCH  10   9
ENDBRANCH  11  10
ENDBRANCH  12  11
ENDBRANCH  15  13
TORSDOF 11
ENDMDL
MODEL 2
REMARK VINA RESULT:     -10.2      2.029      4.703
REMARK  Name = 
REMARK  11 active torsions:
REMARK  status: ('A' for Active; 'I' for Inactive)
REMARK    1  A    between atoms: C_4  and  C_5
REMARK    2  A    between atoms: N_7  and  C_8
REMARK    3  A    between atoms: C_8  and  C_9
REMARK    4  A    between atoms: C_9  and  C_10
REMARK    5  A    between atoms: C_10  and  C_11
REMARK    6  A    between atoms: C_11  and  N_12
REMARK    7  A    between atoms: C_11  and  C_38
REMARK    8  A    between atoms: C_13  and  C_15
REMARK    9  A    between atoms: C_16  and  N_26
REMARK   10  A    between atoms: C_20  and  C_22
REMARK   11  A    between atoms: N_29  and  C_30
REMARK                            x       y       z     vdW  Elec       q    Type
REMARK                         _______ _______ _______ _____ _____    ______ ____
ROOT
ATOM     15  C   UNL     1      -0.079   0.381  24.028  0.00  0.00    +0.174 C 
ATOM     16  C   UNL     1      -0.549  -0.277  24.193  0.00  0.00    +0.126 C 
ATOM     17  C   UNL     1      -0.140  -0.950  23.947  0.00  0.00    +0.045 C 
ATOM     18  C   UNL     1       0.582  -0.708  23.629  0.00  0.00    +0.096 C 
ATOM     19  N   UNL     1       0.620   0.114  23.679  0.00  0.00    -0.268 N 
ATOM     20  C   UNL     1       1.247   0.587  23.426  0.00  0.00    +0.249 C 
ATOM     21  O   UNL     1       1.206   1.406  23.512  0.00  0.00    -0.270 OA
ENDROOT
BRANCH  20  22
ATOM     22  C   UNL     1       1.913   0.240  23.085  0.00  0.00    +0.049 C 
ATOM     23  C   UNL     1       2.582   0.696  22.930  0.00  0.00    -0.039 C 
ATOM     24  C   UNL     1       3.249   0.349  22.590  0.00  0.00    +0.027 C 
ATOM     25  C   UNL     1       2.585   1.500  23.115  0.00  0.00    +0.027 C 
ENDBRANCH  20  22
BRANCH  16  26
ATOM     26  N   UNL     1      -1.295  -0.263  24.543  0.00  0.00    -0.186 NA
ATOM     27  C   UNL     1      -1.857  -0.832  24.338  0.00  0.00    +0.344 C 
ATOM     28  O   UNL     1      -1.672  -1.413  23.782  0.00  0.00    -0.249 OA
ATOM     29  N   UNL     1      -2.605  -0.819  24.687  0.00  0.00    -0.159 NA
BRANCH  29  30
ATOM     30  C   UNL     1      -3.166  -1.386  24.482  0.00  0.00    +0.102 A 
ATOM     31  C   UNL     1      -3.849  -1.164  24.076  0.00  0.00    +0.158 A 
ATOM     32  F   UNL     1      -3.970  -0.373  23.876  0.00  0.00    -0.203 F 
ATOM     33  C   UNL     1      -4.411  -1.731  23.871  0.00  0.00    +0.061 A 
ATOM     34  C   UNL     1      -4.290  -2.522  24.072  0.00  0.00    +0.142 A 
ATOM     35  F   UNL     1      -4.853  -3.090  23.866  0.00  0.00    -0.204 F 
ATOM     36  C   UNL     1      -3.608  -2.746  24.477  0.00  0.00    +0.031 A 
ATOM     37  C   UNL     1      -3.046  -2.177  24.683  0.00  0.00    +0.021 A 
ENDBRANCH  29  30
ENDBRANCH  16  26
BRANCH  15  13
ATOM     12  N   UNL     1      -0.346   1.428  24.963  0.00  0.00    -0.196 NA
ATOM     13  C   UNL     1      -0.273   1.167  24.184  0.00  0.00    +0.262 C 
ATOM     14  O   UNL     1      -0.396   1.693  23.560  0.00  0.00    -0.271 OA
BRANCH  12  11
ATOM     11  C   UNL     1      -0.540   2.214  25.119  0.00  0.00    +0.174 C 
BRANCH  11  38
ATOM     38  C   UNL     1      -0.055   2.670  25.606  0.00  0.00    +0.281 C 
ATOM     39  N   UNL     1       0.140   2.403  26.362  0.00  0.00    -0.086 NA
ATOM     40  O   UNL     1       0.237   3.394  25.337  0.00  0.00    -0.270 OA
ENDBRANCH  11  38
BRANCH  11  10
ATOM     10  C   UNL     1      -1.220   2.545  24.789  0.00  0.00    +0.033 C 
BRANCH  10   9
ATOM      9  C   UNL     1      -1.837   2.794  25.275  0.00  0.00    +0.026 C 
BRANCH   9   8
ATOM      8  C   UNL     1      -2.571   2.982  24.949  0.00  0.00    +0.116 C 
BRANCH   8   7
ATOM      5  C   UNL     1      -3.984   3.141  25.089  0.00  0.00    +0.264 C 
ATOM      6  O   UNL     1      -4.042   3.333  24.288  0.00  0.00    -0.268 OA
ATOM      7  N   UNL     1      -3.248   2.965  25.418  0.00  0.00    -0.202 NA
BRANCH   5   4
ATOM      1  C   UNL     1      -5.979   2.631  25.815  0.00  0.00    +0.027 C 
ATOM      2  C   UNL     1      -5.300   2.648  25.344  0.00  0.00    -0.039 C 
ATOM      3  C   UNL     1      -5.261   2.188  24.661  0.00  0.00    +0.027 C 
ATOM      4  C   UNL     1      -4.661   3.124  25.559  0.00  0.00    +0.051 C 
ENDBRANCH   5   4
ENDBRANCH   8   7
ENDBRANCH   9   8
ENDBRANCH  10   9
ENDBRANCH  11  10
ENDBRANCH  12  11
ENDBRANCH  15  13
TORSDOF 11
ENDMDL
MODEL 3
REMARK VINA RESULT:      -9.3      2.124      5.019
REMARK  Name = 
REMARK  11 active torsions:
REMARK  status: ('A' for Active; 'I' for Inactive)
REMARK    1  A    between atoms: C_4  and  C_5
REMARK    2  A    between atoms: N_7  and  C_8
REMARK    3  A    between atoms: C_8  and  C_9
REMARK    4  A    between atoms: C_9  and  C_10
REMARK    5  A    between atoms: C_10  and  C_11
REMARK    6  A    between atoms: C_11  and  N_12
REMARK    7  A    between atoms: C_11  and  C_38
REMARK    8  A    between atoms: C_13  and  C_15
REMARK    9  A    between atoms: C_16  and  N_26
REMARK   10  A    between atoms: C_20  and  C_22
REMARK   11  A    between atoms: N_29  and  C_30
REMARK                            x       y       z     vdW  Elec       q    Type
REMARK                         _______ _______ _______ _____ _____    ______ ____
ROOT
ATOM     15  C   UNL     1      -3.747   1.975  24.827  0.00  0.00    +0.174 C 
ATOM     16  C   UNL     1      -3.885   1.161  24.810  0.00  0.00    +0.126 C 
ATOM     17  C   UNL     1      -4.673   1.032  25.017  0.00  0.00    +0.045 C 
ATOM     18  C   UNL     1      -5.023   1.766  25.162  0.00  0.00    +0.096 C 
ATOM     19  N   UNL     1      -4.450   2.348  25.044  0.00  0.00    -0.268 N 
ATOM     20  C   UNL     1      -4.561   3.161  25.129  0.00  0.00    +0.249 C 
ATOM     21  O   UNL     1      -3.934   3.679  24.992  0.00  0.00    -0.270 OA
ENDROOT
BRANCH  20  22
ATOM     22  C   UNL     1      -5.300   3.456  25.350  0.00  0.00    +0.049 C 
ATOM     23  C   UNL     1      -5.400   4.264  25.479  0.00  0.00    -0.039 C 
ATOM     24  C   UNL     1      -6.139   4.558  25.701  0.00  0.00    +0.027 C 
ATOM     25  C   UNL     1      -4.762   4.778  25.386  0.00  0.00    +0.027 C 
ENDBRANCH  20  22
BRANCH  16  26
ATOM     26  N   UNL     1      -3.332   0.580  24.620  0.00  0.00    -0.186 NA
ATOM     27  C   UNL     1      -3.560  -0.213  24.592  0.00  0.00    +0.344 C 
ATOM     28  O   UNL     1      -4.341  -0.423  24.753  0.00  0.00    -0.249 OA
ATOM     29  N   UNL     1      -3.007  -0.795  24.401  0.00  0.00    -0.159 NA
BRANCH  29  30
ATOM     30  C   UNL     1      -3.235  -1.587  24.373  0.00  0.00    +0.102 A 
ATOM     31  C   UNL     1      -2.795  -2.158  24.774  0.00  0.00    +0.158 A 
ATOM     32  F   UNL     1      -2.127  -1.936  25.204  0.00  0.00    -0.203 F 
ATOM     33  C   UNL     1      -3.023  -2.950  24.746  0.00  0.00    +0.061 A 
ATOM     34  C   UNL     1      -3.691  -3.171  24.315  0.00  0.00    +0.142 A 
ATOM     35  F   UNL     1      -3.919  -3.964  24.287  0.00  0.00    -0.204 F 
ATOM     36  C   UNL     1      -4.131  -2.601  23.914  0.00  0.00    +0.031 A 
ATOM     37  C   UNL     1      -3.903  -1.808  23.943  0.00  0.00    +0.021 A 
ENDBRANCH  29  30
ENDBRANCH  16  26
BRANCH  15  13
ATOM     12  N   UNL     1      -2.402   2.297  25.187  0.00  0.00    -0.196 NA
ATOM     13  C   UNL     1      -3.032   2.349  24.656  0.00  0.00    +0.262 C 
ATOM     14  O   UNL     1      -2.947   2.775  23.955  0.00  0.00    -0.271 OA
BRANCH  12  11
ATOM     11  C   UNL     1      -1.687   2.671  25.016  0.00  0.00    +0.174 C 
BRANCH  11  38
ATOM     38  C   UNL     1      -1.427   3.296  25.487  0.00  0.00    +0.281 C 
ATOM     39  N   UNL     1      -1.323   3.187  26.298  0.00  0.00    -0.086 NA
ATOM     40  O   UNL     1      -1.270   4.032  25.147  0.00  0.00    -0.270 OA
ENDBRANCH  11  38
BRANCH  11  10
ATOM     10  C   UNL     1      -1.232   2.420  24.375  0.00  0.00    +0.033 C 
BRANCH  10   9
ATOM      9  C   UNL     1      -0.494   2.076  24.502  0.00  0.00    +0.026 C 
BRANCH   9   8
ATOM      8  C   UNL     1      -0.225   1.479  24.000  0.00  0.00    +0.116 C 
BRANCH   8   7
ATOM      5  C   UNL     1       0.876   0.702  23.525  0.00  0.00    +0.264 C 
ATOM      6  O   UNL     1       0.364   0.074  23.364  0.00  0.00    -0.268 OA
ATOM      7  N   UNL     1       0.581   1.403  23.843  0.00  0.00    -0.202 NA
BRANCH   5   4
ATOM      1  C   UNL     1       2.744   0.099  22.569  0.00  0.00    +0.027 C 
ATOM      2  C   UNL     1       1.937   0.175  22.727  0.00  0.00    -0.039 C 
ATOM      3  C   UNL     1       1.386  -0.202  22.242  0.00  0.00    +0.027 C 
ATOM      4  C   UNL     1       1.682   0.627  23.368  0.00  0.00    +0.051 C 
ENDBRANCH   5   4
ENDBRANCH   8   7
ENDBRANCH   9   8
ENDBRANCH  10   9
ENDBRANCH  11  10
ENDBRANCH  12  11
ENDBRANCH  15  13
TORSDOF 11
ENDMDL
MODEL 4
REMARK VINA RESULT:      -9.3      1.637      4.202
REMARK  Name = 
REMARK  11 active torsions:
REMARK  status: ('A' for Active; 'I' for Inactive)
REMARK    1  A    between atoms: C_4  and  C_5
REMARK    2  A    between atoms: N_7  and  C_8
REMARK    3  A    between atoms: C_8  and  C_9
REMARK    4  A    between atoms: C_9  and  C_10
REMARK    5  A    between atoms: C_10  and  C_11
REMARK    6  A    between atoms: C_11  and  N_12
REMARK    7  A    between atoms: C_11  and  C_38
REMARK    8  A    between atoms: C_13  and  C_15
REMARK    9  A    between atoms: C_16  and  N_26
REMARK   10  A    between atoms: C_20  and  C_22
REMARK   11  A    between atoms: N_29  and  C_30
REMARK                            x       y       z     vdW  Elec       q    Type
REMARK                         _______ _______ _______ _____ _____    ______ ____
ROOT
ATOM     15  C   UNL     1       0.038   0.910  24.048  0.00  0.00    +0.174 C 
ATOM     16  C   UNL     1       0.009   1.625  24.458  0.00  0.00    +0.126 C 
ATOM     17  C   UNL     1       0.733   2.007  24.358  0.00  0.00    +0.045 C 
ATOM     18  C   UNL     1       1.211   1.527  23.886  0.00  0.00    +0.096 C 
ATOM     19  N   UNL     1       0.782   0.849  23.695  0.00  0.00    -0.268 N 
ATOM     20  C   UNL     1       1.048   0.221  23.231  0.00  0.00    +0.249 C 
ATOM     21  O   UNL     1       0.555  -0.423  23.086  0.00  0.00    -0.270 OA
ENDROOT
BRANCH  20  22
ATOM     22  C   UNL     1       1.810   0.238  22.913  0.00  0.00    +0.049 C 
ATOM     23  C   UNL     1       1.972  -0.162  22.210  0.00  0.00    -0.039 C 
ATOM     24  C   UNL     1       2.733  -0.145  21.892  0.00  0.00    +0.027 C 
ATOM     25  C   UNL     1       1.374  -0.579  21.825  0.00  0.00    +0.027 C 
ENDBRANCH  20  22
BRANCH  16  26
ATOM     26  N   UNL     1      -0.633   1.909  24.892  0.00  0.00    -0.186 NA
ATOM     27  C   UNL     1      -0.798   2.717  24.903  0.00  0.00    +0.344 C 
ATOM     28  O   UNL     1      -0.321   3.242  24.481  0.00  0.00    -0.249 OA
ATOM     29  N   UNL     1      -1.440   3.002  25.337  0.00  0.00    -0.159 NA
BRANCH  29  30
ATOM     30  C   UNL     1      -1.605   3.809  25.348  0.00  0.00    +0.102 A 
ATOM     31  C   UNL     1      -2.299   4.084  25.699  0.00  0.00    +0.158 A 
ATOM     32  F   UNL     1      -2.828   3.551  26.039  0.00  0.00    -0.203 F 
ATOM     33  C   UNL     1      -2.465   4.892  25.711  0.00  0.00    +0.061 A 
ATOM     34  C   UNL     1      -1.936   5.426  25.371  0.00  0.00    +0.142 A 
ATOM     35  F   UNL     1      -2.101   6.234  25.382  0.00  0.00    -0.204 F 
ATOM     36  C   UNL     1      -1.241   5.152  25.019  0.00  0.00    +0.031 A 
ATOM     37  C   UNL     1      -1.076   4.343  25.008  0.00  0.00    +0.021 A 
ENDBRANCH  29  30
ENDBRANCH  16  26
BRANCH  15  13
ATOM     12  N   UNL     1      -0.770  -0.096  24.662  0.00  0.00    -0.196 NA
ATOM     13  C   UNL     1      -0.568   0.353  24.000  0.00  0.00    +0.262 C 
ATOM     14  O   UNL     1      -0.973   0.245  23.290  0.00  0.00    -0.271 OA
BRANCH  12  11
ATOM     11  C   UNL     1      -1.376  -0.653  24.614  0.00  0.00    +0.174 C 
BRANCH  11  38
ATOM     38  C   UNL     1      -1.248  -1.425  24.877  0.00  0.00    +0.281 C 
ATOM     39  N   UNL     1      -0.935  -1.559  25.628  0.00  0.00    -0.086 NA
ATOM     40  O   UNL     1      -1.435  -2.064  24.388  0.00  0.00    -0.270 OA
ENDBRANCH  11  38
BRANCH  11  10
ATOM     10  C   UNL     1      -2.110  -0.439  24.304  0.00  0.00    +0.033 C 
BRANCH  10   9
ATOM      9  C   UNL     1      -2.766  -0.378  24.799  0.00  0.00    +0.026 C 
BRANCH   9   8
ATOM      8  C   UNL     1      -3.442   0.019  24.542  0.00  0.00    +0.116 C 
BRANCH   8   7
ATOM      5  C   UNL     1      -4.495   0.912  24.912  0.00  0.00    +0.264 C 
ATOM      6  O   UNL     1      -4.421   1.300  24.187  0.00  0.00    -0.268 OA
ATOM      7  N   UNL     1      -4.005   0.271  25.089  0.00  0.00    -0.202 NA
BRANCH   5   4
ATOM      1  C   UNL     1      -6.050   2.109  25.868  0.00  0.00    +0.027 C 
ATOM      2  C   UNL     1      -5.486   1.856  25.320  0.00  0.00    -0.039 C 
ATOM      3  C   UNL     1      -5.350   2.295  24.636  0.00  0.00    +0.027 C 
ATOM      4  C   UNL     1      -5.058   1.164  25.459  0.00  0.00    +0.051 C 
ENDBRANCH   5   4
ENDBRANCH   8   7
ENDBRANCH   9   8
ENDBRANCH  10   9
ENDBRANCH  11  10
ENDBRANCH  12  11
ENDBRANCH  15  13
TORSDOF 11
ENDMDL
MODEL 5
REMARK VINA RESULT:      -9.1      2.114      6.121
REMARK  Name = 
REMARK  11 active torsions:
REMARK  status: ('A' for Active; 'I' for Inactive)
REMARK    1  A    between atoms: C_4  and  C_5
REMARK    2  A    between atoms: N_7  and  C_8
REMARK    3  A    between atoms: C_8  and  C_9
REMARK    4  A    between atoms: C_9  and  C_10
REMARK    5  A    between atoms: C_10  and  C_11
REMARK    6  A    between atoms: C_11  and  N_12
REMARK    7  A    between atoms: C_11  and  C_38
REMARK    8  A    between atoms: C_13  and  C_15
REMARK    9  A    between atoms: C_16  and  N_26
REMARK   10  A    between atoms: C_20  and  C_22
REMARK   11  A    between atoms: N_29  and  C_30
REMARK                            x       y       z     vdW  Elec       q    Type
REMARK                         _______ _______ _______ _____ _____    ______ ____
ROOT
ATOM     15  C   UNL     1      -1.586   2.620  24.561  0.00  0.00    +0.174 C 
ATOM     16  C   UNL     1      -1.092   2.030  24.264  0.00  0.00    +0.126 C 
ATOM     17  C   UNL     1      -0.343   2.357  24.150  0.00  0.00    +0.045 C 
ATOM     18  C   UNL     1      -0.374   3.150  24.377  0.00  0.00    +0.096 C 
ATOM     19  N   UNL     1      -1.142   3.313  24.630  0.00  0.00    -0.268 N 
ATOM     20  C   UNL     1      -1.418   4.040  24.905  0.00  0.00    +0.249 C 
ATOM     21  O   UNL     1      -2.204   4.121  25.140  0.00  0.00    -0.270 OA
ENDROOT
BRANCH  20  22
ATOM     22  C   UNL     1      -0.907   4.687  24.943  0.00  0.00    +0.049 C 
ATOM     23  C   UNL     1      -1.211   5.451  25.002  0.00  0.00    -0.039 C 
ATOM     24  C   UNL     1      -0.700   6.097  25.041  0.00  0.00    +0.027 C 
ATOM     25  C   UNL     1      -2.027   5.569  25.022  0.00  0.00    +0.027 C 
ENDBRANCH  20  22
BRANCH  16  26
ATOM     26  N   UNL     1      -1.310   1.249  24.109  0.00  0.00    -0.186 NA
ATOM     27  C   UNL     1      -0.910   0.629  24.478  0.00  0.00    +0.344 C 
ATOM     28  O   UNL     1      -0.293   0.789  25.002  0.00  0.00    -0.249 OA
ATOM     29  N   UNL     1      -1.127  -0.152  24.324  0.00  0.00    -0.159 NA
BRANCH  29  30
ATOM     30  C   UNL     1      -0.728  -0.772  24.692  0.00  0.00    +0.102 A 
ATOM     31  C   UNL     1      -0.290  -1.308  24.242  0.00  0.00    +0.158 A 
ATOM     32  F   UNL     1      -0.253  -1.222  23.422  0.00  0.00    -0.203 F 
ATOM     33  C   UNL     1       0.109  -1.928  24.610  0.00  0.00    +0.061 A 
ATOM     34  C   UNL     1       0.071  -2.013  25.430  0.00  0.00    +0.142 A 
ATOM     35  F   UNL     1       0.471  -2.634  25.799  0.00  0.00    -0.204 F 
ATOM     36  C   UNL     1      -0.366  -1.478  25.881  0.00  0.00    +0.031 A 
ATOM     37  C   UNL     1      -0.765  -0.857  25.512  0.00  0.00    +0.021 A 
ENDBRANCH  29  30
ENDBRANCH  16  26
BRANCH  15  13
ATOM     12  N   UNL     1      -2.944   2.430  24.157  0.00  0.00    -0.196 NA
ATOM     13  C   UNL     1      -2.383   2.535  24.754  0.00  0.00    +0.262 C 
ATOM     14  O   UNL     1      -2.620   2.554  25.543  0.00  0.00    -0.271 OA
BRANCH  12  11
ATOM     11  C   UNL     1      -3.741   2.344  24.350  0.00  0.00    +0.174 C 
BRANCH  11  38
ATOM     38  C   UNL     1      -4.285   2.919  24.119  0.00  0.00    +0.281 C 
ATOM     39  N   UNL     1      -4.826   3.219  24.665  0.00  0.00    -0.086 NA
ATOM     40  O   UNL     1      -4.289   3.196  23.341  0.00  0.00    -0.270 OA
ENDBRANCH  11  38
BRANCH  11  10
ATOM     10  C   UNL     1      -3.995   1.683  24.774  0.00  0.00    +0.033 C 
BRANCH  10   9
ATOM      9  C   UNL     1      -4.454   1.107  24.405  0.00  0.00    +0.026 C 
BRANCH   9   8
ATOM      8  C   UNL     1      -4.479   0.340  24.709  0.00  0.00    +0.116 C 
BRANCH   8   7
ATOM      5  C   UNL     1      -4.303  -1.062  24.499  0.00  0.00    +0.264 C 
ATOM      6  O   UNL     1      -4.189  -1.169  25.310  0.00  0.00    -0.268 OA
ATOM      7  N   UNL     1      -4.448  -0.307  24.199  0.00  0.00    -0.202 NA
BRANCH   5   4
ATOM      1  C   UNL     1      -3.932  -3.076  23.743  0.00  0.00    +0.027 C 
ATOM      2  C   UNL     1      -3.964  -2.428  24.253  0.00  0.00    -0.039 C 
ATOM      3  C   UNL     1      -3.687  -2.499  25.027  0.00  0.00    +0.027 C 
ATOM      4  C   UNL     1      -4.272  -1.709  23.989  0.00  0.00    +0.051 C 
ENDBRANCH   5   4
ENDBRANCH   8   7
ENDBRANCH   9   8
ENDBRANCH  10   9
ENDBRANCH  11  10
ENDBRANCH  12  11
ENDBRANCH  15  13
TORSDOF 11
ENDMDL
MODEL 6
REMARK VINA RESULT:      -8.6      1.417      3.722
REMARK  Name = 
REMARK  11 active torsions:
REMARK  status: ('A' for Active; 'I' for Inactive)
REMARK    1  A    between atoms: C_4  and  C_5
REMARK    2  A    between atoms: N_7  and  C_8
REMARK    3  A    between atoms: C_8  and  C_9
REMARK    4  A    between atoms: C_9  and  C_10
REMARK    5  A    between atoms: C_10  and  C_11
REMARK    6  A    between atoms: C_11  and  N_12
REMARK    7  A    between atoms: C_11  and  C_38
REMARK    8  A    between atoms: C_13  and  C_15
REMARK    9  A    between atoms: C_16  and  N_26
REMARK   10  A    between atoms: C_20  and  C_22
REMARK   11  A    between atoms: N_29  and  C_30
REMARK                            x       y       z     vdW  Elec       q    Type
REMARK                         _______ _______ _______ _____ _____    ______ ____
ROOT
ATOM     15  C   UNL     1      -1.646   0.091  24.979  0.00  0.00    +0.174 C 
ATOM     16  C   UNL     1      -1.379   0.861  24.854  0.00  0.00    +0.126 C 
ATOM     17  C   UNL     1      -0.554   0.848  24.853  0.00  0.00    +0.045 C 
ATOM     18  C   UNL     1      -0.311   0.069  24.979  0.00  0.00    +0.096 C 
ATOM     19  N   UNL     1      -0.986  -0.399  25.057  0.00  0.00    -0.268 N 
ATOM     20  C   UNL     1      -0.998  -1.213  25.189  0.00  0.00    +0.249 C 
ATOM     21  O   UNL     1      -1.718  -1.609  25.255  0.00  0.00    -0.270 OA
ENDROOT
BRANCH  20  22
ATOM     22  C   UNL     1      -0.290  -1.631  25.255  0.00  0.00    +0.049 C 
ATOM     23  C   UNL     1      -0.292  -2.455  25.227  0.00  0.00    -0.039 C 
ATOM     24  C   UNL     1       0.417  -2.872  25.293  0.00  0.00    +0.027 C 
ATOM     25  C   UNL     1      -1.003  -2.862  25.133  0.00  0.00    +0.027 C 
ENDBRANCH  20  22
BRANCH  16  26
ATOM     26  N   UNL     1      -1.854   1.527  24.747  0.00  0.00    -0.186 NA
ATOM     27  C   UNL     1      -1.529   2.282  24.823  0.00  0.00    +0.344 C 
ATOM     28  O   UNL     1      -0.729   2.370  25.005  0.00  0.00    -0.249 OA
ATOM     29  N   UNL     1      -2.003   2.948  24.716  0.00  0.00    -0.159 NA
BRANCH  29  30
ATOM     30  C   UNL     1      -1.679   3.702  24.792  0.00  0.00    +0.102 A 
ATOM     31  C   UNL     1      -1.994   4.235  25.337  0.00  0.00    +0.158 A 
ATOM     32  F   UNL     1      -2.634   4.013  25.808  0.00  0.00    -0.203 F 
ATOM     33  C   UNL     1      -1.669   4.989  25.413  0.00  0.00    +0.061 A 
ATOM     34  C   UNL     1      -1.029   5.211  24.942  0.00  0.00    +0.142 A 
ATOM     35  F   UNL     1      -0.704   5.966  25.017  0.00  0.00    -0.204 F 
ATOM     36  C   UNL     1      -0.713   4.679  24.396  0.00  0.00    +0.031 A 
ATOM     37  C   UNL     1      -1.038   3.925  24.321  0.00  0.00    +0.021 A 
ENDBRANCH  29  30
ENDBRANCH  16  26
BRANCH  15  13
ATOM     12  N   UNL     1      -2.892  -0.181  24.335  0.00  0.00    -0.196 NA
ATOM     13  C   UNL     1      -2.434  -0.149  25.021  0.00  0.00    +0.262 C 
ATOM     14  O   UNL     1      -2.764  -0.357  25.747  0.00  0.00    -0.271 OA
BRANCH  12  11
ATOM     11  C   UNL     1      -3.680  -0.421  24.376  0.00  0.00    +0.174 C 
BRANCH  11  38
ATOM     38  C   UNL     1      -3.942  -1.056  23.919  0.00  0.00    +0.281 C 
ATOM     39  N   UNL     1      -4.322  -1.694  24.278  0.00  0.00    -0.086 NA
ATOM     40  O   UNL     1      -3.825  -1.052  23.102  0.00  0.00    -0.270 OA
ENDBRANCH  11  38
BRANCH  11  10
ATOM     10  C   UNL     1      -4.207  -0.026  24.874  0.00  0.00    +0.033 C 
BRANCH  10   9
ATOM      9  C   UNL     1      -4.780   0.473  24.556  0.00  0.00    +0.026 C 
BRANCH   9   8
ATOM      8  C   UNL     1      -5.207   0.979  25.049  0.00  0.00    +0.116 C 
BRANCH   8   7
ATOM      5  C   UNL     1      -5.734   2.276  25.334  0.00  0.00    +0.264 C 
ATOM      6  O   UNL     1      -6.030   1.998  26.053  0.00  0.00    -0.268 OA
ATOM      7  N   UNL     1      -5.323   1.766  24.833  0.00  0.00    -0.202 NA
BRANCH   5   4
ATOM      1  C   UNL     1      -5.765   4.457  25.425  0.00  0.00    +0.027 C 
ATOM      2  C   UNL     1      -5.649   3.669  25.641  0.00  0.00    -0.039 C 
ATOM      3  C   UNL     1      -5.333   3.487  26.381  0.00  0.00    +0.027 C 
ATOM      4  C   UNL     1      -5.850   3.063  25.118  0.00  0.00    +0.051 C 
ENDBRANCH   5   4
ENDBRANCH   8   7
ENDBRANCH   9   8
ENDBRANCH  10   9
ENDBRANCH  11  10
ENDBRANCH  12  11
ENDBRANCH  15  13
TORSDOF 11
ENDMDL
MODEL 7
REMARK VINA RESULT:      -8.5      2.846      5.540
REMARK  Name = 
REMARK  11 active torsions:
REMARK  status: ('A' for Active; 'I' for Inactive)
REMARK    1  A    between atoms: C_4  and  C_5
REMARK    2  A    between atoms: N_7  and  C_8
REMARK    3  A    between atoms: C_8  and  C_9
REMARK    4  A    between atoms: C_9  and  C_10
REMARK    5  A    between atoms: C_10  and  C_11
REMARK    6  A    between atoms: C_11  and  N_12
REMARK    7  A    between atoms: C_11  and  C_38
REMARK    8  A    between atoms: C_13  and  C_15
REMARK    9  A    between atoms: C_16  and  N_26
REMARK   10  A    between atoms: C_20  and  C_22
REMARK   11  A    between atoms: N_29  and  C_30
REMARK                            x       y       z     vdW  Elec       q    Type
REMARK                         _______ _______ _______ _____ _____    ______ ____
ROOT
ATOM     15  C   UNL     1      -0.547   0.247  24.315  0.00  0.00    +0.174 C 
ATOM     16  C   UNL     1       0.085   0.111  23.804  0.00  0.00    +0.126 C 
ATOM     17  C   UNL     1       0.036  -0.669  23.538  0.00  0.00    +0.045 C 
ATOM     18  C   UNL     1      -0.627  -1.016  23.886  0.00  0.00    +0.096 C 
ATOM     19  N   UNL     1      -0.988  -0.450  24.366  0.00  0.00    -0.268 N 
ATOM     20  C   UNL     1      -1.669  -0.561  24.818  0.00  0.00    +0.249 C 
ATOM     21  O   UNL     1      -1.967   0.059  25.273  0.00  0.00    -0.270 OA
ENDROOT
BRANCH  20  22
ATOM     22  C   UNL     1      -2.052  -1.292  24.814  0.00  0.00    +0.049 C 
ATOM     23  C   UNL     1      -2.790  -1.373  25.173  0.00  0.00    -0.039 C 
ATOM     24  C   UNL     1      -3.173  -2.104  25.169  0.00  0.00    +0.027 C 
ATOM     25  C   UNL     1      -3.145  -0.724  25.537  0.00  0.00    +0.027 C 
ENDBRANCH  20  22
BRANCH  16  26
ATOM     26  N   UNL     1       0.665   0.659  23.595  0.00  0.00    -0.186 NA
ATOM     27  C   UNL     1       1.432   0.404  23.427  0.00  0.00    +0.344 C 
ATOM     28  O   UNL     1       1.619  -0.398  23.470  0.00  0.00    -0.249 OA
ATOM     29  N   UNL     1       2.013   0.952  23.218  0.00  0.00    -0.159 NA
BRANCH  29  30
ATOM     30  C   UNL     1       2.779   0.698  23.051  0.00  0.00    +0.102 A 
ATOM     31  C   UNL     1       3.368   1.248  22.875  0.00  0.00    +0.158 A 
ATOM     32  F   UNL     1       3.189   2.054  22.866  0.00  0.00    -0.203 F 
ATOM     33  C   UNL     1       4.134   0.994  22.708  0.00  0.00    +0.061 A 
ATOM     34  C   UNL     1       4.312   0.189  22.717  0.00  0.00    +0.142 A 
ATOM     35  F   UNL     1       5.080  -0.066  22.550  0.00  0.00    -0.204 F 
ATOM     36  C   UNL     1       3.725  -0.362  22.893  0.00  0.00    +0.031 A 
ATOM     37  C   UNL     1       2.957  -0.108  23.060  0.00  0.00    +0.021 A 
ENDBRANCH  29  30
ENDBRANCH  16  26
BRANCH  15  13
ATOM     12  N   UNL     1      -0.970   1.611  24.282  0.00  0.00    -0.196 NA
ATOM     13  C   UNL     1      -0.711   0.953  24.707  0.00  0.00    +0.262 C 
ATOM     14  O   UNL     1      -0.617   1.002  25.525  0.00  0.00    -0.271 OA
BRANCH  12  11
ATOM     11  C   UNL     1      -1.134   2.318  24.674  0.00  0.00    +0.174 C 
BRANCH  11  38
ATOM     38  C   UNL     1      -0.547   2.892  24.751  0.00  0.00    +0.281 C 
ATOM     39  N   UNL     1      -0.237   3.069  25.494  0.00  0.00    -0.086 NA
ATOM     40  O   UNL     1      -0.270   3.291  24.083  0.00  0.00    -0.270 OA
ENDBRANCH  11  38
BRANCH  11  10
ATOM     10  C   UNL     1      -1.885   2.451  24.990  0.00  0.00    +0.033 C 
BRANCH  10   9
ATOM      9  C   UNL     1      -2.453   2.852  24.548  0.00  0.00    +0.026 C 
BRANCH   9   8
ATOM      8  C   UNL     1      -3.195   3.008  24.873  0.00  0.00    +0.116 C 
BRANCH   8   7
ATOM      5  C   UNL     1      -4.608   2.789  24.891  0.00  0.00    +0.264 C 
ATOM      6  O   UNL     1      -4.695   3.401  25.438  0.00  0.00    -0.268 OA
ATOM      7  N   UNL     1      -3.857   2.593  24.609  0.00  0.00    -0.202 NA
BRANCH   5   4
ATOM      1  C   UNL     1      -6.465   1.644  24.907  0.00  0.00    +0.027 C 
ATOM      2  C   UNL     1      -5.803   2.059  25.171  0.00  0.00    -0.039 C 
ATOM      3  C   UNL     1      -5.674   2.157  25.980  0.00  0.00    +0.027 C 
ATOM      4  C   UNL     1      -5.269   2.375  24.627  0.00  0.00    +0.051 C 
ENDBRANCH   5   4
ENDBRANCH   8   7
ENDBRANCH   9   8
ENDBRANCH  10   9
ENDBRANCH  11  10
ENDBRANCH  12  11
ENDBRANCH  15  13
TORSDOF 11
ENDMDL
MODEL 8
REMARK VINA RESULT:      -8.3      2.124      3.468
REMARK  Name = 
REMARK  11 active torsions:
REMARK  status: ('A' for Active; 'I' for Inactive)
REMARK    1  A    between atoms: C_4  and  C_5
REMARK    2  A    between atoms: N_7  and  C_8
REMARK    3  A    between atoms: C_8  and  C_9
REMARK    4  A    between atoms: C_9  and  C_10
REMARK    5  A    between atoms: C_10  and  C_11
REMARK    6  A    between atoms: C_11  and  N_12
REMARK    7  A    between atoms: C_11  and  C_38
REMARK    8  A    between atoms: C_13  and  C_15
REMARK    9  A    between atoms: C_16  and  N_26
REMARK   10  A    between atoms: C_20  and  C_22
REMARK   11  A    between atoms: N_29  and  C_30
REMARK                            x       y       z     vdW  Elec       q    Type
REMARK                         _______ _______ _______ _____ _____    ______ ____
ROOT
ATOM     15  C   UNL     1      -2.453   0.315  24.518  0.00  0.00    +0.174 C 
ATOM     16  C   UNL     1      -2.473   1.051  24.890  0.00  0.00    +0.126 C 
ATOM     17  C   UNL     1      -3.256   1.215  25.090  0.00  0.00    +0.045 C 
ATOM     18  C   UNL     1      -3.721   0.579  24.842  0.00  0.00    +0.096 C 
ATOM     19  N   UNL     1      -3.224   0.023  24.488  0.00  0.00    -0.268 N 
ATOM     20  C   UNL     1      -3.458  -0.698  24.162  0.00  0.00    +0.249 C 
ATOM     21  O   UNL     1      -2.897  -1.199  23.826  0.00  0.00    -0.270 OA
ENDROOT
BRANCH  20  22
ATOM     22  C   UNL     1      -4.254  -0.916  24.173  0.00  0.00    +0.049 C 
ATOM     23  C   UNL     1      -4.470  -1.696  24.017  0.00  0.00    -0.039 C 
ATOM     24  C   UNL     1      -5.266  -1.914  24.028  0.00  0.00    +0.027 C 
ATOM     25  C   UNL     1      -3.891  -2.259  23.851  0.00  0.00    +0.027 C 
ENDBRANCH  20  22
BRANCH  16  26
ATOM     26  N   UNL     1      -1.823   1.538  25.036  0.00  0.00    -0.186 NA
ATOM     27  C   UNL     1      -1.913   2.358  25.032  0.00  0.00    +0.344 C 
ATOM     28  O   UNL     1      -2.653   2.691  24.882  0.00  0.00    -0.249 OA
ATOM     29  N   UNL     1      -1.264   2.845  25.177  0.00  0.00    -0.159 NA
BRANCH  29  30
ATOM     30  C   UNL     1      -1.353   3.665  25.173  0.00  0.00    +0.102 A 
ATOM     31  C   UNL     1      -0.828   4.136  24.745  0.00  0.00    +0.158 A 
ATOM     32  F   UNL     1      -0.213   3.787  24.321  0.00  0.00    -0.203 F 
ATOM     33  C   UNL     1      -0.918   4.956  24.741  0.00  0.00    +0.061 A 
ATOM     34  C   UNL     1      -1.533   5.305  25.166  0.00  0.00    +0.142 A 
ATOM     35  F   UNL     1      -1.623   6.125  25.162  0.00  0.00    -0.204 F 
ATOM     36  C   UNL     1      -2.058   4.835  25.594  0.00  0.00    +0.031 A 
ATOM     37  C   UNL     1      -1.968   4.014  25.598  0.00  0.00    +0.021 A 
ENDBRANCH  29  30
ENDBRANCH  16  26
BRANCH  15  13
ATOM     12  N   UNL     1      -1.223  -0.375  24.750  0.00  0.00    -0.196 NA
ATOM     13  C   UNL     1      -1.781  -0.064  24.227  0.00  0.00    +0.262 C 
ATOM     14  O   UNL     1      -1.665  -0.132  23.413  0.00  0.00    -0.271 OA
BRANCH  12  11
ATOM     11  C   UNL     1      -0.551  -0.753  24.459  0.00  0.00    +0.174 C 
BRANCH  11  38
ATOM     38  C   UNL     1      -0.295  -1.460  24.800  0.00  0.00    +0.281 C 
ATOM     39  N   UNL     1      -0.131  -1.493  25.607  0.00  0.00    -0.086 NA
ATOM     40  O   UNL     1      -0.203  -2.134  24.332  0.00  0.00    -0.270 OA
ENDBRANCH  11  38
BRANCH  11  10
ATOM     10  C   UNL     1      -0.133  -0.426  23.827  0.00  0.00    +0.033 C 
BRANCH  10   9
ATOM      9  C   UNL     1       0.669  -0.251  23.908  0.00  0.00    +0.026 C 
BRANCH   9   8
ATOM      8  C   UNL     1       1.115  -0.041  23.247  0.00  0.00    +0.116 C 
BRANCH   8   7
ATOM      5  C   UNL     1       2.379   0.412  22.757  0.00  0.00    +0.264 C 
ATOM      6  O   UNL     1       2.291  -0.067  22.089  0.00  0.00    -0.268 OA
ATOM      7  N   UNL     1       1.790   0.424  23.335  0.00  0.00    -0.202 NA
BRANCH   5   4
ATOM      1  C   UNL     1       4.477   0.989  22.931  0.00  0.00    +0.027 C 
ATOM      2  C   UNL     1       3.800   0.524  22.843  0.00  0.00    -0.039 C 
ATOM      3  C   UNL     1       3.871  -0.293  22.753  0.00  0.00    +0.027 C 
ATOM      4  C   UNL     1       3.054   0.876  22.845  0.00  0.00    +0.051 C 
ENDBRANCH   5   4
ENDBRANCH   8   7
ENDBRANCH   9   8
ENDBRANCH  10   9
ENDBRANCH  11  10
ENDBRANCH  12  11
ENDBRANCH  15  13
TORSDOF 11
ENDMDL
MODEL 9
REMARK VINA RESULT:      -8.3      1.684      2.768
REMARK  Name = 
REMARK  11 active torsions:
REMARK  status: ('A' for Active; 'I' for Inactive)
REMARK    1  A    between atoms: C_4  and  C_5
REMARK    2  A    between atoms: N_7  and  C_8
REMARK    3  A    between atoms: C_8  and  C_9
REMARK    4  A    between atoms: C_9  and  C_10
REMARK    5  A    between atoms: C_10  and  C_11
REMARK    6  A    between atoms: C_11  and  N_12
REMARK    7  A    between atoms: C_11  and  C_38
REMARK    8  A    between atoms: C_13  and  C_15
REMARK    9  A    between atoms: C_16  and  N_26
REMARK   10  A    between atoms: C_20  and  C_22
REMARK   11  A    between atoms: N_29  and  C_30
REMARK                            x       y       z     vdW  Elec       q    Type
REMARK                         _______ _______ _______ _____ _____    ______ ____
ROOT
ATOM     15  C   UNL     1      -2.810   0.096  24.697  0.00  0.00    +0.174 C 
ATOM     16  C   UNL     1      -3.395   0.675  24.645  0.00  0.00    +0.126 C 
ATOM     17  C   UNL     1      -4.110   0.301  24.476  0.00  0.00    +0.045 C 
ATOM     18  C   UNL     1      -3.968  -0.511  24.424  0.00  0.00    +0.096 C 
ATOM     19  N   UNL     1      -3.164  -0.637  24.561  0.00  0.00    -0.268 N 
ATOM     20  C   UNL     1      -2.782  -1.369  24.560  0.00  0.00    +0.249 C 
ATOM     21  O   UNL     1      -1.972  -1.410  24.707  0.00  0.00    -0.270 OA
ENDROOT
BRANCH  20  22
ATOM     22  C   UNL     1      -3.211  -2.058  24.414  0.00  0.00    +0.049 C 
ATOM     23  C   UNL     1      -2.824  -2.785  24.374  0.00  0.00    -0.039 C 
ATOM     24  C   UNL     1      -3.253  -3.474  24.228  0.00  0.00    +0.027 C 
ATOM     25  C   UNL     1      -2.007  -2.823  24.481  0.00  0.00    +0.027 C 
ENDBRANCH  20  22
BRANCH  16  26
ATOM     26  N   UNL     1      -3.283   1.486  24.744  0.00  0.00    -0.186 NA
ATOM     27  C   UNL     1      -3.927   1.974  24.910  0.00  0.00    +0.344 C 
ATOM     28  O   UNL     1      -4.683   1.650  24.975  0.00  0.00    -0.249 OA
ATOM     29  N   UNL     1      -3.816   2.786  25.009  0.00  0.00    -0.159 NA
BRANCH  29  30
ATOM     30  C   UNL     1      -4.460   3.273  25.174  0.00  0.00    +0.102 A 
ATOM     31  C   UNL     1      -4.519   4.015  24.818  0.00  0.00    +0.158 A 
ATOM     32  F   UNL     1      -3.932   4.269  24.297  0.00  0.00    -0.203 F 
ATOM     33  C   UNL     1      -5.163   4.503  24.983  0.00  0.00    +0.061 A 
ATOM     34  C   UNL     1      -5.749   4.249  25.505  0.00  0.00    +0.142 A 
ATOM     35  F   UNL     1      -6.394   4.737  25.671  0.00  0.00    -0.204 F 
ATOM     36  C   UNL     1      -5.691   3.507  25.861  0.00  0.00    +0.031 A 
ATOM     37  C   UNL     1      -5.047   3.019  25.696  0.00  0.00    +0.021 A 
ENDBRANCH  29  30
ENDBRANCH  16  26
BRANCH  15  13
ATOM     12  N   UNL     1      -1.544   0.642  24.320  0.00  0.00    -0.196 NA
ATOM     13  C   UNL     1      -2.011   0.225  24.857  0.00  0.00    +0.262 C 
ATOM     14  O   UNL     1      -1.679  -0.063  25.556  0.00  0.00    -0.271 OA
BRANCH  12  11
ATOM     11  C   UNL     1      -0.746   0.772  24.480  0.00  0.00    +0.174 C 
BRANCH  11  38
ATOM     38  C   UNL     1      -0.518   1.414  24.945  0.00  0.00    +0.281 C 
ATOM     39  N   UNL     1      -0.510   2.174  24.624  0.00  0.00    -0.086 NA
ATOM     40  O   UNL     1      -0.297   1.297  25.732  0.00  0.00    -0.270 OA
ENDBRANCH  11  38
BRANCH  11  10
ATOM     10  C   UNL     1      -0.175   0.259  24.177  0.00  0.00    +0.033 C 
BRANCH  10   9
ATOM      9  C   UNL     1       0.218   0.447  23.477  0.00  0.00    +0.026 C 
BRANCH   9   8
ATOM      8  C   UNL     1       0.910   0.048  23.271  0.00  0.00    +0.116 C 
BRANCH   8   7
ATOM      5  C   UNL     1       2.236   0.066  22.738  0.00  0.00    +0.264 C 
ATOM      6  O   UNL     1       2.337  -0.723  22.962  0.00  0.00    -0.268 OA
ATOM      7  N   UNL     1       1.522   0.450  22.893  0.00  0.00    -0.202 NA
BRANCH   5   4
ATOM      1  C   UNL     1       4.228   0.836  22.285  0.00  0.00    +0.027 C 
ATOM      2  C   UNL     1       3.614   0.433  22.664  0.00  0.00    -0.039 C 
ATOM      3  C   UNL     1       3.769  -0.005  23.346  0.00  0.00    +0.027 C 
ATOM      4  C   UNL     1       2.848   0.469  22.360  0.00  0.00    +0.051 C 
ENDBRANCH   5   4
ENDBRANCH   8   7
ENDBRANCH   9   8
ENDBRANCH  10   9
ENDBRANCH  11  10
ENDBRANCH  12  11
ENDBRANCH  15  13
TORSDOF 11
ENDMDL
MODEL 10
REMARK VINA RESULT:      -7.9      2.769      6.038
REMARK  Name = 
REMARK  11 active torsions:
REMARK  status: ('A' for Active; 'I' for Inactive)
REMARK    1  A    between atoms: C_4  and  C_5
REMARK    2  A    between atoms: N_7  and  C_8
REMARK    3  A    between atoms: C_8  and  C_9
REMARK    4  A    between atoms: C_9  and  C_10
REMARK    5  A    between atoms: C_10  and  C_11
REMARK    6  A    between atoms: C_11  and  N_12
REMARK    7  A    between atoms: C_11  and  C_38
REMARK    8  A    between atoms: C_13  and  C_15
REMARK    9  A    between atoms: C_16  and  N_26
REMARK   10  A    between atoms: C_20  and  C_22
REMARK   11  A    between atoms: N_29  and  C_30
REMARK                            x       y       z     vdW  Elec       q    Type
REMARK                         _______ _______ _______ _____ _____    ______ ____
ROOT
ATOM     15  C   UNL     1      -0.470   1.702  24.634  0.00  0.00    +0.174 C 
ATOM     16  C   UNL     1       0.149   1.669  24.089  0.00  0.00    +0.126 C 
ATOM     17  C   UNL     1       0.331   2.441  23.863  0.00  0.00    +0.045 C 
ATOM     18  C   UNL     1      -0.175   2.952  24.268  0.00  0.00    +0.096 C 
ATOM     19  N   UNL     1      -0.670   2.495  24.744  0.00  0.00    -0.268 N 
ATOM     20  C   UNL     1      -1.261   2.781  25.244  0.00  0.00    +0.249 C 
ATOM     21  O   UNL     1      -1.715   2.255  25.689  0.00  0.00    -0.270 OA
ENDROOT
BRANCH  20  22
ATOM     22  C   UNL     1      -1.399   3.593  25.297  0.00  0.00    +0.049 C 
ATOM     23  C   UNL     1      -2.038   3.875  25.734  0.00  0.00    -0.039 C 
ATOM     24  C   UNL     1      -2.176   4.687  25.787  0.00  0.00    +0.027 C 
ATOM     25  C   UNL     1      -2.541   3.346  26.118  0.00  0.00    +0.027 C 
ENDBRANCH  20  22
BRANCH  16  26
ATOM     26  N   UNL     1       0.520   0.984  23.819  0.00  0.00    -0.186 NA
ATOM     27  C   UNL     1       1.280   1.025  23.500  0.00  0.00    +0.344 C 
ATOM     28  O   UNL     1       1.668   1.751  23.452  0.00  0.00    -0.249 OA
ATOM     29  N   UNL     1       1.652   0.340  23.229  0.00  0.00    -0.159 NA
BRANCH  29  30
ATOM     30  C   UNL     1       2.411   0.380  22.910  0.00  0.00    +0.102 A 
ATOM     31  C   UNL     1       2.560   0.078  22.157  0.00  0.00    +0.158 A 
ATOM     32  F   UNL     1       1.948  -0.265  21.723  0.00  0.00    -0.203 F 
ATOM     33  C   UNL     1       3.319   0.119  21.839  0.00  0.00    +0.061 A 
ATOM     34  C   UNL     1       3.931   0.462  22.273  0.00  0.00    +0.142 A 
ATOM     35  F   UNL     1       4.691   0.503  21.954  0.00  0.00    -0.204 F 
ATOM     36  C   UNL     1       3.783   0.765  23.026  0.00  0.00    +0.031 A 
ATOM     37  C   UNL     1       3.022   0.724  23.345  0.00  0.00    +0.021 A 
ENDBRANCH  29  30
ENDBRANCH  16  26
BRANCH  15  13
ATOM     12  N   UNL     1      -1.265   0.517  24.559  0.00  0.00    -0.196 NA
ATOM     13  C   UNL     1      -0.826   1.056  25.003  0.00  0.00    +0.262 C 
ATOM     14  O   UNL     1      -0.743   0.950  25.817  0.00  0.00    -0.271 OA
BRANCH  12  11
ATOM     11  C   UNL     1      -1.621  -0.128  24.929  0.00  0.00    +0.174 C 
BRANCH  11  38
ATOM     38  C   UNL     1      -1.216  -0.845  24.987  0.00  0.00    +0.281 C 
ATOM     39  N   UNL     1      -0.963  -1.117  25.723  0.00  0.00    -0.086 NA
ATOM     40  O   UNL     1      -1.065  -1.290  24.309  0.00  0.00    -0.270 OA
ENDBRANCH  11  38
BRANCH  11  10
ATOM     10  C   UNL     1      -2.382  -0.059  25.240  0.00  0.00    +0.033 C 
BRANCH  10   9
ATOM      9  C   UNL     1      -3.038  -0.204  24.762  0.00  0.00    +0.026 C 
BRANCH   9   8
ATOM      8  C   UNL     1      -3.797  -0.042  25.042  0.00  0.00    +0.116 C 
BRANCH   8   7
ATOM      5  C   UNL     1      -4.929   0.832  25.057  0.00  0.00    +0.264 C 
ATOM      6  O   UNL     1      -5.142   0.543  25.801  0.00  0.00    -0.268 OA
ATOM      7  N   UNL     1      -4.256   0.539  24.679  0.00  0.00    -0.202 NA
BRANCH   5   4
ATOM      1  C   UNL     1      -6.273   2.530  24.788  0.00  0.00    +0.027 C 
ATOM      2  C   UNL     1      -5.813   1.949  25.152  0.00  0.00    -0.039 C 
ATOM      3  C   UNL     1      -5.780   1.906  25.975  0.00  0.00    +0.027 C 
ATOM      4  C   UNL     1      -5.387   1.412  24.693  0.00  0.00    +0.051 C 
ENDBRANCH   5   4
ENDBRANCH   8   7
ENDBRANCH   9   8
ENDBRANCH  10   9
ENDBRANCH  11  10
ENDBRANCH  12  11
ENDBRANCH  15  13
TORSDOF 11
ENDMDL
