MODEL 1
REMARK VINA RESULT:     -11.2      0.000      0.000
REMARK  Name = 
REMARK  5 active torsions:
REMARK  status: ('A' for Active; 'I' for Inactive)
REMARK    1  A    between atoms: N_3  and  C_4
REMARK    2  A    between atoms: C_4  and  C_5
REMARK    3  A    between atoms: C_12  and  C_13
REMARK    4  A    between atoms: C_13  and  N_14
REMARK    5  A    between atoms: N_20  and  C_21
REMARK                            x       y       z     vdW  Elec       q    Type
REMARK                         _______ _______ _______ _____ _____    ______ ____
ROOT
ATOM      5  C   UNL     1      -4.047   2.046  24.710  0.00  0.00    +0.079 C 
ATOM      6  C   UNL     1      -4.354   2.640  25.109  0.00  0.00    +0.018 C 
ATOM      7  C   UNL     1      -3.942   3.273  25.402  0.00  0.00    +0.005 C 
ATOM      8  C   UNL     1      -4.478   3.850  25.831  0.00  0.00    +0.017 C 
ATOM      9  C   UNL     1      -4.335   3.309  25.493  0.00  0.00    +0.072 C 
ATOM     10  N   UNL     1      -3.635   2.694  25.012  0.00  0.00    -0.272 NA
ATOM     11  C   UNL     1      -2.752   2.921  24.987  0.00  0.00    +0.073 C 
ATOM     12  C   UNL     1      -3.091   3.485  25.373  0.00  0.00    +0.032 C 
ENDROOT
BRANCH   5   4
ATOM      4  C   UNL     1      -4.096   1.329  24.305  0.00  0.00    +0.133 C 
BRANCH   4   3
ATOM      1  O   UNL     1      -3.536  -0.152  23.843  0.00  0.00    -0.249 OA
ATOM      2  C   UNL     1      -4.074  -0.090  24.465  0.00  0.00    +0.344 C 
ATOM      3  N   UNL     1      -4.354   0.650  24.696  0.00  0.00    -0.185 NA
ATOM     20  N   UNL     1      -4.332  -0.770  24.857  0.00  0.00    -0.161 NA
BRANCH  20  21
ATOM     21  C   UNL     1      -4.052  -1.510  24.626  0.00  0.00    +0.075 A 
ATOM     22  C   UNL     1      -4.367  -1.881  23.960  0.00  0.00    +0.017 A 
ATOM     23  C   UNL     1      -4.087  -2.622  23.729  0.00  0.00    +0.001 A 
ATOM     24  C   UNL     1      -3.491  -2.991  24.163  0.00  0.00    +0.000 A 
ATOM     25  C   UNL     1      -3.176  -2.621  24.828  0.00  0.00    +0.001 A 
ATOM     26  C   UNL     1      -3.456  -1.880  25.060  0.00  0.00    +0.017 A 
ENDBRANCH  20  21
ENDBRANCH   4   3
ENDBRANCH   5   4
BRANCH  12  13
ATOM     13  C   UNL     1      -2.733   4.155  25.697  0.00  0.00    +0.074 C 
BRANCH  13  14
ATOM     14  N   UNL     1      -1.978   4.377  25.451  0.00  0.00    -0.268 NA
ATOM     15  C   UNL     1      -1.865   5.104  25.075  0.00  0.00    +0.105 C 
ATOM     16  C   UNL     1      -1.110   5.327  24.829  0.00  0.00    +0.159 C 
ATOM     17  O   UNL     1      -0.468   4.824  24.958  0.00  0.00    -0.351 OA
ATOM     18  C   UNL     1      -0.581   4.098  25.333  0.00  0.00    +0.159 C 
ATOM     19  C   UNL     1      -1.336   3.875  25.580  0.00  0.00    +0.105 C 
ENDBRANCH  13  14
ENDBRANCH  12  13
TORSDOF 5
ENDMDL
MODEL 2
REMARK VINA RESULT:     -10.1      1.654      2.364
REMARK  Name = 
REMARK  5 active torsions:
REMARK  status: ('A' for Active; 'I' for Inactive)
REMARK    1  A    between atoms: N_3  and  C_4
REMARK    2  A    between atoms: C_4  and  C_5
REMARK    3  A    between atoms: C_12  and  C_13
REMARK    4  A    between atoms: C_13  and  N_14
REMARK    5  A    between atoms: N_20  and  C_21
REMARK                            x       y       z     vdW  Elec       q    Type
REMARK                         _______ _______ _______ _____ _____    ______ ____
ROOT
ATOM      5  C   UNL     1      -1.025   1.113  25.270  0.00  0.00    +0.079 C 
ATOM      6  C   UNL     1      -0.511   1.421  25.765  0.00  0.00    +0.018 C 
ATOM      7  C   UNL     1      -0.429   2.210  25.929  0.00  0.00    +0.005 C 
ATOM      8  C   UNL     1       0.222   2.361  26.528  0.00  0.00    +0.017 C 
ATOM      9  C   UNL     1      -0.161   1.996  26.144  0.00  0.00    +0.072 C 
ATOM     10  N   UNL     1      -0.936   1.915  25.443  0.00  0.00    -0.272 NA
ATOM     11  C   UNL     1      -1.371   2.657  25.139  0.00  0.00    +0.073 C 
ATOM     12  C   UNL     1      -0.852   2.919  25.633  0.00  0.00    +0.032 C 
ENDROOT
BRANCH   5   4
ATOM      4  C   UNL     1      -1.381   0.480  24.879  0.00  0.00    +0.133 C 
BRANCH   4   3
ATOM      1  O   UNL     1      -2.168  -0.715  24.057  0.00  0.00    -0.249 OA
ATOM      2  C   UNL     1      -2.378  -0.543  24.836  0.00  0.00    +0.344 C 
ATOM      3  N   UNL     1      -1.985   0.054  25.247  0.00  0.00    -0.185 NA
ATOM     20  N   UNL     1      -2.982  -0.969  25.205  0.00  0.00    -0.161 NA
BRANCH  20  21
ATOM     21  C   UNL     1      -3.375  -1.566  24.794  0.00  0.00    +0.075 A 
ATOM     22  C   UNL     1      -3.151  -2.354  24.897  0.00  0.00    +0.017 A 
ATOM     23  C   UNL     1      -3.544  -2.951  24.486  0.00  0.00    +0.001 A 
ATOM     24  C   UNL     1      -4.161  -2.761  23.972  0.00  0.00    +0.000 A 
ATOM     25  C   UNL     1      -4.385  -1.974  23.869  0.00  0.00    +0.001 A 
ATOM     26  C   UNL     1      -3.992  -1.376  24.280  0.00  0.00    +0.017 A 
ENDBRANCH  20  21
ENDBRANCH   4   3
ENDBRANCH   5   4
BRANCH  12  13
ATOM     13  C   UNL     1      -0.717   3.706  25.844  0.00  0.00    +0.074 C 
BRANCH  13  14
ATOM     14  N   UNL     1      -1.144   4.309  25.480  0.00  0.00    -0.268 NA
ATOM     15  C   UNL     1      -0.780   4.789  24.915  0.00  0.00    +0.105 C 
ATOM     16  C   UNL     1      -1.207   5.393  24.550  0.00  0.00    +0.159 C 
ATOM     17  O   UNL     1      -1.997   5.518  24.749  0.00  0.00    -0.351 OA
ATOM     18  C   UNL     1      -2.362   5.039  25.313  0.00  0.00    +0.159 C 
ATOM     19  C   UNL     1      -1.935   4.435  25.678  0.00  0.00    +0.105 C 
ENDBRANCH  13  14
ENDBRANCH  12  13
TORSDOF 5
ENDMDL
MODEL 3
REMARK VINA RESULT:     -10.0      1.952      6.137
REMARK  Name = 
REMARK  5 active torsions:
REMARK  status: ('A' for Active; 'I' for Inactive)
REMARK    1  A    between atoms: N_3  and  C_4
REMARK    2  A    between atoms: C_4  and  C_5
REMARK    3  A    between atoms: C_12  and  C_13
REMARK    4  A    between atoms: C_13  and  N_14
REMARK    5  A    between atoms: N_20  and  C_21
REMARK                            x       y       z     vdW  Elec       q    Type
REMARK                         _______ _______ _______ _____ _____    ______ ____
ROOT
ATOM      5  C   UNL     1      -0.859   0.352  24.688  0.00  0.00    +0.079 C 
ATOM      6  C   UNL     1      -0.608  -0.331  24.964  0.00  0.00    +0.018 C 
ATOM      7  C   UNL     1      -1.058  -0.998  25.054  0.00  0.00    +0.005 C 
ATOM      8  C   UNL     1      -0.582  -1.680  25.388  0.00  0.00    +0.017 C 
ATOM      9  C   UNL     1      -0.679  -1.071  25.174  0.00  0.00    +0.072 C 
ATOM     10  N   UNL     1      -1.311  -0.332  24.782  0.00  0.00    -0.272 NA
ATOM     11  C   UNL     1      -2.190  -0.511  24.610  0.00  0.00    +0.073 C 
ATOM     12  C   UNL     1      -1.904  -1.163  24.886  0.00  0.00    +0.032 C 
ENDROOT
BRANCH   5   4
ATOM      4  C   UNL     1      -0.755   1.140  24.471  0.00  0.00    +0.133 C 
BRANCH   4   3
ATOM      1  O   UNL     1      -1.200   2.697  24.153  0.00  0.00    -0.249 OA
ATOM      2  C   UNL     1      -0.894   2.498  24.893  0.00  0.00    +0.344 C 
ATOM      3  N   UNL     1      -0.672   1.721  25.052  0.00  0.00    -0.185 NA
ATOM     20  N   UNL     1      -0.811   3.079  25.474  0.00  0.00    -0.161 NA
BRANCH  20  21
ATOM     21  C   UNL     1      -1.034   3.857  25.314  0.00  0.00    +0.075 A 
ATOM     22  C   UNL     1      -1.780   4.127  25.541  0.00  0.00    +0.017 A 
ATOM     23  C   UNL     1      -2.002   4.905  25.382  0.00  0.00    +0.001 A 
ATOM     24  C   UNL     1      -1.479   5.413  24.996  0.00  0.00    +0.000 A 
ATOM     25  C   UNL     1      -0.734   5.143  24.769  0.00  0.00    +0.001 A 
ATOM     26  C   UNL     1      -0.511   4.365  24.928  0.00  0.00    +0.017 A 
ENDBRANCH  20  21
ENDBRANCH   4   3
ENDBRANCH   5   4
BRANCH  12  13
ATOM     13  C   UNL     1      -2.306  -1.875  25.002  0.00  0.00    +0.074 C 
BRANCH  13  14
ATOM     14  N   UNL     1      -3.029  -2.005  24.628  0.00  0.00    -0.268 NA
ATOM     15  C   UNL     1      -3.113  -2.636  24.101  0.00  0.00    +0.105 C 
ATOM     16  C   UNL     1      -3.837  -2.766  23.727  0.00  0.00    +0.159 C 
ATOM     17  O   UNL     1      -4.475  -2.267  23.878  0.00  0.00    -0.351 OA
ATOM     18  C   UNL     1      -4.392  -1.636  24.404  0.00  0.00    +0.159 C 
ATOM     19  C   UNL     1      -3.668  -1.506  24.778  0.00  0.00    +0.105 C 
ENDBRANCH  13  14
ENDBRANCH  12  13
TORSDOF 5
ENDMDL
MODEL 4
REMARK VINA RESULT:      -9.8      1.318      5.808
REMARK  Name = 
REMARK  5 active torsions:
REMARK  status: ('A' for Active; 'I' for Inactive)
REMARK    1  A    between atoms: N_3  and  C_4
REMARK    2  A    between atoms: C_4  and  C_5
REMARK    3  A    between atoms: C_12  and  C_13
REMARK    4  A    between atoms: C_13  and  N_14
REMARK    5  A    between atoms: N_20  and  C_21
REMARK                            x       y       z     vdW  Elec       q    Type
REMARK                         _______ _______ _______ _____ _____    ______ ____
ROOT
ATOM      5  C   UNL     1      -3.370   1.315  24.510  0.00  0.00    +0.079 C 
ATOM      6  C   UNL     1      -4.099   1.154  24.731  0.00  0.00    +0.018 C 
ATOM      7  C   UNL     1      -4.433   0.417  24.750  0.00  0.00    +0.005 C 
ATOM      8  C   UNL     1      -5.283   0.443  25.034  0.00  0.00    +0.017 C 
ATOM      9  C   UNL     1      -4.702   0.693  24.873  0.00  0.00    +0.072 C 
ATOM     10  N   UNL     1      -3.718   0.567  24.532  0.00  0.00    -0.272 NA
ATOM     11  C   UNL     1      -3.398  -0.261  24.323  0.00  0.00    +0.073 C 
ATOM     12  C   UNL     1      -4.119  -0.377  24.547  0.00  0.00    +0.032 C 
ENDROOT
BRANCH   5   4
ATOM      4  C   UNL     1      -2.742   1.830  24.366  0.00  0.00    +0.133 C 
BRANCH   4   3
ATOM      1  O   UNL     1      -1.993   3.248  23.978  0.00  0.00    -0.249 OA
ATOM      2  C   UNL     1      -2.102   3.043  24.769  0.00  0.00    +0.344 C 
ATOM      3  N   UNL     1      -2.477   2.334  24.964  0.00  0.00    -0.185 NA
ATOM     20  N   UNL     1      -1.837   3.547  25.367  0.00  0.00    -0.161 NA
BRANCH  20  21
ATOM     21  C   UNL     1      -1.462   4.255  25.172  0.00  0.00    +0.075 A 
ATOM     22  C   UNL     1      -1.871   4.969  25.237  0.00  0.00    +0.017 A 
ATOM     23  C   UNL     1      -1.497   5.678  25.042  0.00  0.00    +0.001 A 
ATOM     24  C   UNL     1      -0.713   5.673  24.783  0.00  0.00    +0.000 A 
ATOM     25  C   UNL     1      -0.305   4.959  24.719  0.00  0.00    +0.001 A 
ATOM     26  C   UNL     1      -0.679   4.250  24.913  0.00  0.00    +0.017 A 
ENDBRANCH  20  21
ENDBRANCH   4   3
ENDBRANCH   5   4
BRANCH  12  13
ATOM     13  C   UNL     1      -4.518  -1.098  24.589  0.00  0.00    +0.074 C 
BRANCH  13  14
ATOM     14  N   UNL     1      -4.102  -1.805  24.508  0.00  0.00    -0.268 NA
ATOM     15  C   UNL     1      -3.660  -2.098  25.140  0.00  0.00    +0.105 C 
ATOM     16  C   UNL     1      -3.243  -2.805  25.059  0.00  0.00    +0.159 C 
ATOM     17  O   UNL     1      -3.268  -3.220  24.347  0.00  0.00    -0.351 OA
ATOM     18  C   UNL     1      -3.710  -2.928  23.714  0.00  0.00    +0.159 C 
ATOM     19  C   UNL     1      -4.127  -2.220  23.795  0.00  0.00    +0.105 C 
ENDBRANCH  13  14
ENDBRANCH  12  13
TORSDOF 5
ENDMDL
