REMARK  Name = 
REMARK  8 active torsions:
REMARK  status: ('A' for Active; 'I' for Inactive)
REMARK    1  A    between atoms: C_3  and  C_4
REMARK    2  A    between atoms: C_4  and  N_5
REMARK    3  A    between atoms: C_6  and  C_8
REMARK    4  A    between atoms: C_13  and  N_14
REMARK    5  A    between atoms: N_14  and  C_15
REMARK    6  A    between atoms: N_14  and  C_22
REMARK    7  A    between atoms: C_15  and  C_16
REMARK    8  A    between atoms: C_22  and  C_23
REMARK                            x       y       z     vdW  Elec       q    Type
REMARK                         _______ _______ _______ _____ _____    ______ ____
ROOT
ATOM     14  N   UNL     1      -2.140  -2.325   0.000  0.00  0.00    -0.259 NA
ENDROOT
BRANCH  14  13
ATOM      1  O   UNL     1      -0.385  -2.698   0.000  0.00  0.00    -0.219 OA
ATOM      2  C   UNL     1      -0.998  -3.250   0.000  0.00  0.00    +0.198 C 
ATOM      3  C   UNL     1      -0.911  -4.071   0.000  0.00  0.00    +0.168 C 
ATOM     11  O   UNL     1      -1.665  -4.406   0.000  0.00  0.00    -0.350 OA
ATOM     12  C   UNL     1      -2.217  -3.793   0.000  0.00  0.00    +0.161 C 
ATOM     13  C   UNL     1      -1.805  -3.079   0.000  0.00  0.00    +0.121 C 
BRANCH   3   4
ATOM      4  C   UNL     1      -0.197  -4.483   0.000  0.00  0.00    +0.147 C 
BRANCH   4   5
ATOM      5  N   UNL     1      -0.197  -5.308   0.000  0.00  0.00    -0.203 NA
ATOM      6  C   UNL     1       0.517  -5.721   0.000  0.00  0.00    +0.241 C 
ATOM      7  O   UNL     1       1.232  -5.308   0.000  0.00  0.00    -0.273 OA
BRANCH   6   8
ATOM      8  C   UNL     1       0.517  -6.546   0.000  0.00  0.00    +0.078 C 
ATOM      9  C   UNL     1       0.930  -7.260   0.000  0.00  0.00    +0.010 C 
ATOM     10  C   UNL     1       0.105  -7.260   0.000  0.00  0.00    +0.010 C 
ENDBRANCH   6   8
ENDBRANCH   4   5
ENDBRANCH   3   4
ENDBRANCH  14  13
BRANCH  14  15
ATOM     15  C   UNL     1      -2.961  -2.239   0.000  0.00  0.00    +0.119 C 
BRANCH  15  16
ATOM     16  C   UNL     1      -3.446  -2.906   0.000  0.00  0.00    +0.075 A 
ATOM     17  N   UNL     1      -4.266  -2.820   0.000  0.00  0.00    -0.247 NA
ATOM     18  C   UNL     1      -4.751  -3.487   0.000  0.00  0.00    +0.098 A 
ATOM     19  C   UNL     1      -4.415  -4.241   0.000  0.00  0.00    +0.021 A 
ATOM     20  C   UNL     1      -3.595  -4.327   0.000  0.00  0.00    +0.003 A 
ATOM     21  C   UNL     1      -3.110  -3.660   0.000  0.00  0.00    +0.016 A 
ENDBRANCH  15  16
ENDBRANCH  14  15
BRANCH  14  22
ATOM     22  C   UNL     1      -1.655  -1.657   0.000  0.00  0.00    +0.119 C 
BRANCH  22  23
ATOM     23  C   UNL     1      -1.991  -0.904   0.000  0.00  0.00    +0.075 A 
ATOM     24  N   UNL     1      -2.811  -0.818   0.000  0.00  0.00    -0.247 NA
ATOM     25  C   UNL     1      -3.147  -0.064   0.000  0.00  0.00    +0.098 A 
ATOM     26  C   UNL     1      -2.662   0.604   0.000  0.00  0.00    +0.021 A 
ATOM     27  C   UNL     1      -1.841   0.517   0.000  0.00  0.00    +0.003 A 
ATOM     28  C   UNL     1      -1.506  -0.236   0.000  0.00  0.00    +0.016 A 
ENDBRANCH  22  23
ENDBRANCH  14  22
TORSDOF 8
