MODEL 1
REMARK VINA RESULT:      -9.7      0.000      0.000
REMARK  Name = 
REMARK  10 active torsions:
REMARK  status: ('A' for Active; 'I' for Inactive)
REMARK    1  A    between atoms: C_2  and  O_3
REMARK    2  A    between atoms: O_3  and  C_4
REMARK    3  A    between atoms: C_4  and  C_6
REMARK    4  A    between atoms: C_10  and  N_11
REMARK    5  A    between atoms: C_17  and  C_18
REMARK    6  A    between atoms: C_18  and  C_19
REMARK    7  A    between atoms: N_21  and  C_22
REMARK    8  A    between atoms: C_22  and  C_23
REMARK    9  A    between atoms: C_26  and  O_27
REMARK   10  A    between atoms: C_31  and  C_32
REMARK                            x       y       z     vdW  Elec       q    Type
REMARK                         _______ _______ _______ _____ _____    ______ ____
ROOT
ATOM     11  N   UNL     1      -2.034   2.180  25.185  0.00  0.00    -0.162 NA
ATOM     12  C   UNL     1      -1.585   2.233  24.495  0.00  0.00    +0.327 C 
ATOM     13  O   UNL     1      -1.621   2.916  24.032  0.00  0.00    -0.250 OA
ATOM     14  N   UNL     1      -1.100   1.606  24.268  0.00  0.00    -0.263 N 
ATOM     15  C   UNL     1      -0.652   1.660  23.578  0.00  0.00    +0.095 C 
ATOM     16  C   UNL     1      -0.167   1.033  23.350  0.00  0.00    +0.022 C 
ATOM     17  C   UNL     1      -0.131   0.351  23.813  0.00  0.00    +0.012 C 
ATOM     31  C   UNL     1      -0.580   0.297  24.504  0.00  0.00    +0.020 C 
ATOM     34  C   UNL     1      -1.064   0.924  24.731  0.00  0.00    +0.095 C 
ENDROOT
BRANCH  11  10
ATOM      6  C   UNL     1      -3.821   3.381  25.541  0.00  0.00    +0.077 A 
ATOM      7  C   UNL     1      -3.488   4.062  25.868  0.00  0.00    +0.007 A 
ATOM      8  C   UNL     1      -2.671   4.115  25.967  0.00  0.00    +0.002 A 
ATOM      9  C   UNL     1      -2.186   3.488  25.740  0.00  0.00    +0.017 A 
ATOM     10  C   UNL     1      -2.519   2.807  25.413  0.00  0.00    +0.075 A 
ATOM     35  C   UNL     1      -3.336   2.754  25.314  0.00  0.00    +0.023 A 
BRANCH   6   4
ATOM      4  C   UNL     1      -4.638   3.329  25.442  0.00  0.00    +0.341 C 
ATOM      5  O   UNL     1      -5.094   4.015  25.411  0.00  0.00    -0.245 OA
BRANCH   4   3
ATOM      3  O   UNL     1      -5.000   2.591  25.374  0.00  0.00    -0.445 OA
BRANCH   3   2
ATOM      1  C   UNL     1      -6.175   1.813  25.139  0.00  0.00    +0.051 C 
ATOM      2  C   UNL     1      -5.821   2.536  25.315  0.00  0.00    +0.209 C 
ENDBRANCH   3   2
ENDBRANCH   4   3
ENDBRANCH   6   4
ENDBRANCH  11  10
BRANCH  31  32
ATOM     32  C   UNL     1      -0.543  -0.385  24.966  0.00  0.00    +0.002 C 
ATOM     33  C   UNL     1      -1.189  -0.603  25.431  0.00  0.00    +0.000 C 
ENDBRANCH  31  32
BRANCH  17  18
ATOM     18  C   UNL     1       0.355  -0.277  23.586  0.00  0.00    +0.087 C 
BRANCH  18  19
ATOM     19  C   UNL     1       0.911  -0.171  22.986  0.00  0.00    +0.242 C 
ATOM     20  O   UNL     1       0.671  -0.166  22.197  0.00  0.00    -0.273 OA
ATOM     21  N   UNL     1       1.707  -0.071  23.176  0.00  0.00    -0.201 NA
BRANCH  21  22
ATOM     22  C   UNL     1       2.264   0.035  22.576  0.00  0.00    +0.141 C 
BRANCH  22  23
ATOM     23  C   UNL     1       3.060   0.137  22.766  0.00  0.00    -0.000 A 
ATOM     24  C   UNL     1       3.433   0.855  22.605  0.00  0.00    +0.001 A 
ATOM     25  C   UNL     1       4.229   0.957  22.795  0.00  0.00    +0.037 A 
ATOM     26  C   UNL     1       4.652   0.343  23.146  0.00  0.00    +0.139 A 
ATOM     29  C   UNL     1       4.279  -0.375  23.307  0.00  0.00    +0.037 A 
ATOM     30  C   UNL     1       3.482  -0.478  23.117  0.00  0.00    +0.001 A 
BRANCH  26  27
ATOM     27  O   UNL     1       5.449   0.446  23.336  0.00  0.00    -0.471 OA
ATOM     28  C   UNL     1       5.802  -0.038  23.903  0.00  0.00    +0.252 C 
ENDBRANCH  26  27
ENDBRANCH  22  23
ENDBRANCH  21  22
ENDBRANCH  18  19
ENDBRANCH  17  18
TORSDOF 10
ENDMDL
MODEL 2
REMARK VINA RESULT:      -8.9      1.428      7.314
REMARK  Name = 
REMARK  10 active torsions:
REMARK  status: ('A' for Active; 'I' for Inactive)
REMARK    1  A    between atoms: C_2  and  O_3
REMARK    2  A    between atoms: O_3  and  C_4
REMARK    3  A    between atoms: C_4  and  C_6
REMARK    4  A    between atoms: C_10  and  N_11
REMARK    5  A    between atoms: C_17  and  C_18
REMARK    6  A    between atoms: C_18  and  C_19
REMARK    7  A    between atoms: N_21  and  C_22
REMARK    8  A    between atoms: C_22  and  C_23
REMARK    9  A    between atoms: C_26  and  O_27
REMARK   10  A    between atoms: C_31  and  C_32
REMARK                            x       y       z     vdW  Elec       q    Type
REMARK                         _______ _______ _______ _____ _____    ______ ____
ROOT
ATOM     11  N   UNL     1       0.963  -0.300  23.279  0.00  0.00    -0.162 NA
ATOM     12  C   UNL     1       0.328   0.227  23.269  0.00  0.00    +0.327 C 
ATOM     13  O   UNL     1       0.352   0.891  22.778  0.00  0.00    -0.250 OA
ATOM     14  N   UNL     1      -0.329   0.092  23.748  0.00  0.00    -0.263 N 
ATOM     15  C   UNL     1      -0.963   0.619  23.737  0.00  0.00    +0.095 C 
ATOM     16  C   UNL     1      -1.621   0.484  24.216  0.00  0.00    +0.022 C 
ATOM     17  C   UNL     1      -1.644  -0.180  24.706  0.00  0.00    +0.012 C 
ATOM     31  C   UNL     1      -1.010  -0.708  24.717  0.00  0.00    +0.020 C 
ATOM     34  C   UNL     1      -0.352  -0.571  24.238  0.00  0.00    +0.095 C 
ENDROOT
BRANCH  11  10
ATOM      6  C   UNL     1       2.968   0.285  22.646  0.00  0.00    +0.077 A 
ATOM      7  C   UNL     1       2.936   0.106  21.841  0.00  0.00    +0.007 A 
ATOM      8  C   UNL     1       2.246  -0.208  21.516  0.00  0.00    +0.002 A 
ATOM      9  C   UNL     1       1.588  -0.344  21.995  0.00  0.00    +0.017 A 
ATOM     10  C   UNL     1       1.620  -0.165  22.800  0.00  0.00    +0.075 A 
ATOM     35  C   UNL     1       2.311   0.150  23.125  0.00  0.00    +0.023 A 
BRANCH   6   4
ATOM      4  C   UNL     1       3.658   0.600  22.971  0.00  0.00    +0.341 C 
ATOM      5  O   UNL     1       3.719   1.413  23.101  0.00  0.00    -0.245 OA
BRANCH   4   3
ATOM      3  O   UNL     1       4.286   0.104  23.166  0.00  0.00    -0.445 OA
BRANCH   3   2
ATOM      1  C   UNL     1       5.591  -0.076  23.722  0.00  0.00    +0.051 C 
ATOM      2  C   UNL     1       4.992   0.422  23.452  0.00  0.00    +0.209 C 
ENDBRANCH   3   2
ENDBRANCH   4   3
ENDBRANCH   6   4
ENDBRANCH  11  10
BRANCH  31  32
ATOM     32  C   UNL     1      -1.033  -1.370  25.206  0.00  0.00    +0.002 C 
ATOM     33  C   UNL     1      -0.343  -1.796  25.359  0.00  0.00    +0.000 C 
ENDBRANCH  31  32
BRANCH  17  18
ATOM     18  C   UNL     1      -2.303  -0.315  25.186  0.00  0.00    +0.087 C 
BRANCH  18  19
ATOM     19  C   UNL     1      -3.062  -0.210  24.882  0.00  0.00    +0.242 C 
ATOM     20  O   UNL     1      -3.370  -0.752  24.341  0.00  0.00    -0.273 OA
ATOM     21  N   UNL     1      -3.514   0.438  25.120  0.00  0.00    -0.201 NA
BRANCH  21  22
ATOM     22  C   UNL     1      -4.274   0.544  24.816  0.00  0.00    +0.141 C 
BRANCH  22  23
ATOM     23  C   UNL     1      -4.688   1.240  24.975  0.00  0.00    -0.000 A 
ATOM     24  C   UNL     1      -5.267   1.249  25.564  0.00  0.00    +0.001 A 
ATOM     25  C   UNL     1      -5.680   1.945  25.723  0.00  0.00    +0.037 A 
ATOM     26  C   UNL     1      -5.516   2.630  25.296  0.00  0.00    +0.139 A 
ATOM     29  C   UNL     1      -4.938   2.621  24.708  0.00  0.00    +0.037 A 
ATOM     30  C   UNL     1      -4.523   1.925  24.548  0.00  0.00    +0.001 A 
BRANCH  26  27
ATOM     27  O   UNL     1      -5.930   3.326  25.456  0.00  0.00    -0.471 OA
ATOM     28  C   UNL     1      -5.519   4.016  25.645  0.00  0.00    +0.252 C 
ENDBRANCH  26  27
ENDBRANCH  22  23
ENDBRANCH  21  22
ENDBRANCH  18  19
ENDBRANCH  17  18
TORSDOF 10
ENDMDL
MODEL 3
REMARK VINA RESULT:      -8.5      0.904      1.654
REMARK  Name = 
REMARK  10 active torsions:
REMARK  status: ('A' for Active; 'I' for Inactive)
REMARK    1  A    between atoms: C_2  and  O_3
REMARK    2  A    between atoms: O_3  and  C_4
REMARK    3  A    between atoms: C_4  and  C_6
REMARK    4  A    between atoms: C_10  and  N_11
REMARK    5  A    between atoms: C_17  and  C_18
REMARK    6  A    between atoms: C_18  and  C_19
REMARK    7  A    between atoms: N_21  and  C_22
REMARK    8  A    between atoms: C_22  and  C_23
REMARK    9  A    between atoms: C_26  and  O_27
REMARK   10  A    between atoms: C_31  and  C_32
REMARK                            x       y       z     vdW  Elec       q    Type
REMARK                         _______ _______ _______ _____ _____    ______ ____
ROOT
ATOM     11  N   UNL     1      -3.025   0.831  24.726  0.00  0.00    -0.162 NA
ATOM     12  C   UNL     1      -2.506   1.072  24.131  0.00  0.00    +0.327 C 
ATOM     13  O   UNL     1      -2.714   1.695  23.630  0.00  0.00    -0.250 OA
ATOM     14  N   UNL     1      -1.781   0.692  24.037  0.00  0.00    -0.263 N 
ATOM     15  C   UNL     1      -1.263   0.932  23.442  0.00  0.00    +0.095 C 
ATOM     16  C   UNL     1      -0.537   0.552  23.348  0.00  0.00    +0.022 C 
ATOM     17  C   UNL     1      -0.329  -0.070  23.848  0.00  0.00    +0.012 C 
ATOM     31  C   UNL     1      -0.848  -0.312  24.444  0.00  0.00    +0.020 C 
ATOM     34  C   UNL     1      -1.573   0.070  24.538  0.00  0.00    +0.095 C 
ENDROOT
BRANCH  11  10
ATOM      6  C   UNL     1      -4.512   2.324  25.295  0.00  0.00    +0.077 A 
ATOM      7  C   UNL     1      -5.202   1.973  25.009  0.00  0.00    +0.007 A 
ATOM      8  C   UNL     1      -5.166   1.242  24.629  0.00  0.00    +0.002 A 
ATOM      9  C   UNL     1      -4.441   0.861  24.535  0.00  0.00    +0.017 A 
ATOM     10  C   UNL     1      -3.750   1.212  24.821  0.00  0.00    +0.075 A 
ATOM     35  C   UNL     1      -3.786   1.943  25.201  0.00  0.00    +0.023 A 
BRANCH   6   4
ATOM      4  C   UNL     1      -4.548   3.055  25.675  0.00  0.00    +0.341 C 
ATOM      5  O   UNL     1      -5.223   3.264  26.102  0.00  0.00    -0.245 OA
BRANCH   4   3
ATOM      3  O   UNL     1      -3.912   3.577  25.628  0.00  0.00    -0.445 OA
BRANCH   3   2
ATOM      1  C   UNL     1      -3.100   4.575  26.251  0.00  0.00    +0.051 C 
ATOM      2  C   UNL     1      -3.809   4.156  26.207  0.00  0.00    +0.209 C 
ENDBRANCH   3   2
ENDBRANCH   4   3
ENDBRANCH   6   4
ENDBRANCH  11  10
BRANCH  31  32
ATOM     32  C   UNL     1      -0.640  -0.933  24.944  0.00  0.00    +0.002 C 
ATOM     33  C   UNL     1      -1.227  -1.391  25.298  0.00  0.00    +0.000 C 
ENDBRANCH  31  32
BRANCH  17  18
ATOM     18  C   UNL     1       0.397  -0.451  23.754  0.00  0.00    +0.087 C 
BRANCH  18  19
ATOM     19  C   UNL     1       0.898  -0.236  23.135  0.00  0.00    +0.242 C 
ATOM     20  O   UNL     1       0.607  -0.194  22.364  0.00  0.00    -0.273 OA
ATOM     21  N   UNL     1       1.690  -0.063  23.288  0.00  0.00    -0.201 NA
BRANCH  21  22
ATOM     22  C   UNL     1       2.192   0.153  22.669  0.00  0.00    +0.141 C 
BRANCH  22  23
ATOM     23  C   UNL     1       3.003   0.224  22.802  0.00  0.00    -0.000 A 
ATOM     24  C   UNL     1       3.434  -0.424  23.075  0.00  0.00    +0.001 A 
ATOM     25  C   UNL     1       4.245  -0.353  23.208  0.00  0.00    +0.037 A 
ATOM     26  C   UNL     1       4.624   0.366  23.069  0.00  0.00    +0.139 A 
ATOM     29  C   UNL     1       4.193   1.014  22.797  0.00  0.00    +0.037 A 
ATOM     30  C   UNL     1       3.381   0.943  22.663  0.00  0.00    +0.001 A 
BRANCH  26  27
ATOM     27  O   UNL     1       5.436   0.437  23.202  0.00  0.00    -0.471 OA
ATOM     28  C   UNL     1       5.762   0.169  23.911  0.00  0.00    +0.252 C 
ENDBRANCH  26  27
ENDBRANCH  22  23
ENDBRANCH  21  22
ENDBRANCH  18  19
ENDBRANCH  17  18
TORSDOF 10
ENDMDL
MODEL 4
REMARK VINA RESULT:      -8.2      1.311      7.352
REMARK  Name = 
REMARK  10 active torsions:
REMARK  status: ('A' for Active; 'I' for Inactive)
REMARK    1  A    between atoms: C_2  and  O_3
REMARK    2  A    between atoms: O_3  and  C_4
REMARK    3  A    between atoms: C_4  and  C_6
REMARK    4  A    between atoms: C_10  and  N_11
REMARK    5  A    between atoms: C_17  and  C_18
REMARK    6  A    between atoms: C_18  and  C_19
REMARK    7  A    between atoms: N_21  and  C_22
REMARK    8  A    between atoms: C_22  and  C_23
REMARK    9  A    between atoms: C_26  and  O_27
REMARK   10  A    between atoms: C_31  and  C_32
REMARK                            x       y       z     vdW  Elec       q    Type
REMARK                         _______ _______ _______ _____ _____    ______ ____
ROOT
ATOM     11  N   UNL     1       0.917   1.161  24.031  0.00  0.00    -0.162 NA
ATOM     12  C   UNL     1       0.362   1.701  23.745  0.00  0.00    +0.327 C 
ATOM     13  O   UNL     1       0.250   1.785  22.931  0.00  0.00    -0.250 OA
ATOM     14  N   UNL     1      -0.080   2.155  24.271  0.00  0.00    -0.263 N 
ATOM     15  C   UNL     1      -0.635   2.694  23.985  0.00  0.00    +0.095 C 
ATOM     16  C   UNL     1      -1.078   3.150  24.511  0.00  0.00    +0.022 C 
ATOM     17  C   UNL     1      -0.967   3.066  25.324  0.00  0.00    +0.012 C 
ATOM     31  C   UNL     1      -0.411   2.526  25.611  0.00  0.00    +0.020 C 
ATOM     34  C   UNL     1       0.031   2.071  25.084  0.00  0.00    +0.095 C 
ENDROOT
BRANCH  11  10
ATOM      6  C   UNL     1       2.603   0.416  22.862  0.00  0.00    +0.077 A 
ATOM      7  C   UNL     1       2.246  -0.205  22.452  0.00  0.00    +0.007 A 
ATOM      8  C   UNL     1       1.447  -0.370  22.568  0.00  0.00    +0.002 A 
ATOM      9  C   UNL     1       1.003   0.085  23.095  0.00  0.00    +0.017 A 
ATOM     10  C   UNL     1       1.360   0.706  23.505  0.00  0.00    +0.075 A 
ATOM     35  C   UNL     1       2.160   0.871  23.388  0.00  0.00    +0.023 A 
BRANCH   6   4
ATOM      4  C   UNL     1       3.403   0.581  22.745  0.00  0.00    +0.341 C 
ATOM      5  O   UNL     1       3.639   1.044  22.105  0.00  0.00    -0.245 OA
BRANCH   4   3
ATOM      3  O   UNL     1       3.967   0.283  23.268  0.00  0.00    -0.445 OA
BRANCH   3   2
ATOM      1  C   UNL     1       5.334   0.105  23.644  0.00  0.00    +0.051 C 
ATOM      2  C   UNL     1       4.769   0.430  23.139  0.00  0.00    +0.209 C 
ENDBRANCH   3   2
ENDBRANCH   4   3
ENDBRANCH   6   4
ENDBRANCH  11  10
BRANCH  31  32
ATOM     32  C   UNL     1      -0.300   2.442  26.423  0.00  0.00    +0.002 C 
ATOM     33  C   UNL     1       0.463   2.447  26.738  0.00  0.00    +0.000 C 
ENDBRANCH  31  32
BRANCH  17  18
ATOM     18  C   UNL     1      -1.410   3.521  25.851  0.00  0.00    +0.087 C 
BRANCH  18  19
ATOM     19  C   UNL     1      -2.104   3.887  25.596  0.00  0.00    +0.242 C 
ATOM     20  O   UNL     1      -2.077   4.644  25.271  0.00  0.00    -0.273 OA
ATOM     21  N   UNL     1      -2.826   3.494  25.667  0.00  0.00    -0.201 NA
BRANCH  21  22
ATOM     22  C   UNL     1      -3.521   3.859  25.412  0.00  0.00    +0.141 C 
BRANCH  22  23
ATOM     23  C   UNL     1      -4.217   3.421  25.350  0.00  0.00    -0.000 A 
ATOM     24  C   UNL     1      -4.755   3.411  25.977  0.00  0.00    +0.001 A 
ATOM     25  C   UNL     1      -5.451   2.974  25.915  0.00  0.00    +0.037 A 
ATOM     26  C   UNL     1      -5.611   2.547  25.229  0.00  0.00    +0.139 A 
ATOM     29  C   UNL     1      -5.074   2.557  24.602  0.00  0.00    +0.037 A 
ATOM     30  C   UNL     1      -4.377   2.995  24.663  0.00  0.00    +0.001 A 
BRANCH  26  27
ATOM     27  O   UNL     1      -6.308   2.109  25.167  0.00  0.00    -0.471 OA
ATOM     28  C   UNL     1      -6.273   1.293  25.053  0.00  0.00    +0.252 C 
ENDBRANCH  26  27
ENDBRANCH  22  23
ENDBRANCH  21  22
ENDBRANCH  18  19
ENDBRANCH  17  18
TORSDOF 10
ENDMDL
MODEL 5
REMARK VINA RESULT:      -8.2      3.441      5.947
REMARK  Name = 
REMARK  10 active torsions:
REMARK  status: ('A' for Active; 'I' for Inactive)
REMARK    1  A    between atoms: C_2  and  O_3
REMARK    2  A    between atoms: O_3  and  C_4
REMARK    3  A    between atoms: C_4  and  C_6
REMARK    4  A    between atoms: C_10  and  N_11
REMARK    5  A    between atoms: C_17  and  C_18
REMARK    6  A    between atoms: C_18  and  C_19
REMARK    7  A    between atoms: N_21  and  C_22
REMARK    8  A    between atoms: C_22  and  C_23
REMARK    9  A    between atoms: C_26  and  O_27
REMARK   10  A    between atoms: C_31  and  C_32
REMARK                            x       y       z     vdW  Elec       q    Type
REMARK                         _______ _______ _______ _____ _____    ______ ____
ROOT
ATOM     11  N   UNL     1      -4.324  -0.435  24.484  0.00  0.00    -0.162 NA
ATOM     12  C   UNL     1      -3.991   0.166  24.027  0.00  0.00    +0.327 C 
ATOM     13  O   UNL     1      -3.479  -0.025  23.407  0.00  0.00    -0.250 OA
ATOM     14  N   UNL     1      -4.167   0.954  24.188  0.00  0.00    -0.263 N 
ATOM     15  C   UNL     1      -3.833   1.554  23.731  0.00  0.00    +0.095 C 
ATOM     16  C   UNL     1      -4.010   2.344  23.892  0.00  0.00    +0.022 C 
ATOM     17  C   UNL     1      -4.520   2.533  24.512  0.00  0.00    +0.012 C 
ATOM     31  C   UNL     1      -4.855   1.933  24.970  0.00  0.00    +0.020 C 
ATOM     34  C   UNL     1      -4.678   1.144  24.808  0.00  0.00    +0.095 C 
ENDROOT
BRANCH  11  10
ATOM      6  C   UNL     1      -3.297  -2.360  24.486  0.00  0.00    +0.077 A 
ATOM      7  C   UNL     1      -3.796  -2.803  23.999  0.00  0.00    +0.007 A 
ATOM      8  C   UNL     1      -4.469  -2.456  23.674  0.00  0.00    +0.002 A 
ATOM      9  C   UNL     1      -4.646  -1.667  23.835  0.00  0.00    +0.017 A 
ATOM     10  C   UNL     1      -4.148  -1.224  24.323  0.00  0.00    +0.075 A 
ATOM     35  C   UNL     1      -3.474  -1.571  24.648  0.00  0.00    +0.023 A 
BRANCH   6   4
ATOM      4  C   UNL     1      -2.623  -2.708  24.811  0.00  0.00    +0.341 C 
ATOM      5  O   UNL     1      -2.699  -3.288  25.394  0.00  0.00    -0.245 OA
BRANCH   4   3
ATOM      3  O   UNL     1      -1.875  -2.476  24.555  0.00  0.00    -0.445 OA
BRANCH   3   2
ATOM      1  C   UNL     1      -0.559  -2.068  24.936  0.00  0.00    +0.051 C 
ATOM      2  C   UNL     1      -1.227  -2.534  25.063  0.00  0.00    +0.209 C 
ENDBRANCH   3   2
ENDBRANCH   4   3
ENDBRANCH   6   4
ENDBRANCH  11  10
BRANCH  31  32
ATOM     32  C   UNL     1      -5.365   2.123  25.589  0.00  0.00    +0.002 C 
ATOM     33  C   UNL     1      -6.056   1.688  25.702  0.00  0.00    +0.000 C 
ENDBRANCH  31  32
BRANCH  17  18
ATOM     18  C   UNL     1      -4.697   3.324  24.674  0.00  0.00    +0.087 C 
BRANCH  18  19
ATOM     19  C   UNL     1      -4.095   3.887  24.682  0.00  0.00    +0.242 C 
ATOM     20  O   UNL     1      -4.101   4.506  24.136  0.00  0.00    -0.273 OA
ATOM     21  N   UNL     1      -3.487   3.831  25.236  0.00  0.00    -0.201 NA
BRANCH  21  22
ATOM     22  C   UNL     1      -2.883   4.395  25.244  0.00  0.00    +0.141 C 
BRANCH  22  23
ATOM     23  C   UNL     1      -2.106   4.164  25.392  0.00  0.00    -0.000 A 
ATOM     24  C   UNL     1      -1.942   3.635  26.005  0.00  0.00    +0.001 A 
ATOM     25  C   UNL     1      -1.165   3.404  26.153  0.00  0.00    +0.037 A 
ATOM     26  C   UNL     1      -0.551   3.700  25.690  0.00  0.00    +0.139 A 
ATOM     29  C   UNL     1      -0.713   4.228  25.077  0.00  0.00    +0.037 A 
ATOM     30  C   UNL     1      -1.492   4.460  24.928  0.00  0.00    +0.001 A 
BRANCH  26  27
ATOM     27  O   UNL     1       0.228   3.469  25.838  0.00  0.00    -0.471 OA
ATOM     28  C   UNL     1       0.398   2.678  26.001  0.00  0.00    +0.252 C 
ENDBRANCH  26  27
ENDBRANCH  22  23
ENDBRANCH  21  22
ENDBRANCH  18  19
ENDBRANCH  17  18
TORSDOF 10
ENDMDL
MODEL 6
REMARK VINA RESULT:      -7.8      2.873      6.271
REMARK  Name = 
REMARK  10 active torsions:
REMARK  status: ('A' for Active; 'I' for Inactive)
REMARK    1  A    between atoms: C_2  and  O_3
REMARK    2  A    between atoms: O_3  and  C_4
REMARK    3  A    between atoms: C_4  and  C_6
REMARK    4  A    between atoms: C_10  and  N_11
REMARK    5  A    between atoms: C_17  and  C_18
REMARK    6  A    between atoms: C_18  and  C_19
REMARK    7  A    between atoms: N_21  and  C_22
REMARK    8  A    between atoms: C_22  and  C_23
REMARK    9  A    between atoms: C_26  and  O_27
REMARK   10  A    between atoms: C_31  and  C_32
REMARK                            x       y       z     vdW  Elec       q    Type
REMARK                         _______ _______ _______ _____ _____    ______ ____
ROOT
ATOM     11  N   UNL     1      -0.831  -0.126  25.209  0.00  0.00    -0.162 NA
ATOM     12  C   UNL     1      -0.897   0.432  24.605  0.00  0.00    +0.327 C 
ATOM     13  O   UNL     1      -1.071   0.188  23.835  0.00  0.00    -0.250 OA
ATOM     14  N   UNL     1      -0.789   1.233  24.768  0.00  0.00    -0.263 N 
ATOM     15  C   UNL     1      -0.855   1.790  24.164  0.00  0.00    +0.095 C 
ATOM     16  C   UNL     1      -0.747   2.591  24.327  0.00  0.00    +0.022 C 
ATOM     17  C   UNL     1      -0.573   2.836  25.095  0.00  0.00    +0.012 C 
ATOM     31  C   UNL     1      -0.507   2.278  25.701  0.00  0.00    +0.020 C 
ATOM     34  C   UNL     1      -0.615   1.477  25.537  0.00  0.00    +0.095 C 
ENDROOT
BRANCH  11  10
ATOM      6  C   UNL     1      -1.808  -2.047  24.868  0.00  0.00    +0.077 A 
ATOM      7  C   UNL     1      -1.154  -2.530  24.719  0.00  0.00    +0.007 A 
ATOM      8  C   UNL     1      -0.394  -2.211  24.733  0.00  0.00    +0.002 A 
ATOM      9  C   UNL     1      -0.286  -1.409  24.897  0.00  0.00    +0.017 A 
ATOM     10  C   UNL     1      -0.939  -0.926  25.046  0.00  0.00    +0.075 A 
ATOM     35  C   UNL     1      -1.700  -1.247  25.031  0.00  0.00    +0.023 A 
BRANCH   6   4
ATOM      4  C   UNL     1      -2.568  -2.367  24.853  0.00  0.00    +0.341 C 
ATOM      5  O   UNL     1      -2.835  -2.825  25.486  0.00  0.00    -0.245 OA
BRANCH   4   3
ATOM      3  O   UNL     1      -3.062  -2.230  24.207  0.00  0.00    -0.445 OA
BRANCH   3   2
ATOM      1  C   UNL     1      -4.382  -2.201  23.660  0.00  0.00    +0.051 C 
ATOM      2  C   UNL     1      -3.852  -2.467  24.233  0.00  0.00    +0.209 C 
ENDBRANCH   3   2
ENDBRANCH   4   3
ENDBRANCH   6   4
ENDBRANCH  11  10
BRANCH  31  32
ATOM     32  C   UNL     1      -0.334   2.522  26.468  0.00  0.00    +0.002 C 
ATOM     33  C   UNL     1       0.243   2.127  26.907  0.00  0.00    +0.000 C 
ENDBRANCH  31  32
BRANCH  17  18
ATOM     18  C   UNL     1      -0.465   3.638  25.259  0.00  0.00    +0.087 C 
BRANCH  18  19
ATOM     19  C   UNL     1      -1.077   4.173  25.120  0.00  0.00    +0.242 C 
ATOM     20  O   UNL     1      -0.925   4.882  24.726  0.00  0.00    -0.273 OA
ATOM     21  N   UNL     1      -1.842   3.998  25.374  0.00  0.00    -0.201 NA
BRANCH  21  22
ATOM     22  C   UNL     1      -2.455   4.533  25.234  0.00  0.00    +0.141 C 
BRANCH  22  23
ATOM     23  C   UNL     1      -3.240   4.288  25.305  0.00  0.00    -0.000 A 
ATOM     24  C   UNL     1      -3.570   4.176  26.054  0.00  0.00    +0.001 A 
ATOM     25  C   UNL     1      -4.355   3.931  26.125  0.00  0.00    +0.037 A 
ATOM     26  C   UNL     1      -4.808   3.799  25.450  0.00  0.00    +0.139 A 
ATOM     29  C   UNL     1      -4.479   3.910  24.702  0.00  0.00    +0.037 A 
ATOM     30  C   UNL     1      -3.694   4.155  24.630  0.00  0.00    +0.001 A 
BRANCH  26  27
ATOM     27  O   UNL     1      -5.594   3.553  25.522  0.00  0.00    -0.471 OA
ATOM     28  C   UNL     1      -5.765   2.761  25.671  0.00  0.00    +0.252 C 
ENDBRANCH  26  27
ENDBRANCH  22  23
ENDBRANCH  21  22
ENDBRANCH  18  19
ENDBRANCH  17  18
TORSDOF 10
ENDMDL
