MODEL 1
REMARK VINA RESULT:     -15.7      0.000      0.000
REMARK  Name = 
REMARK  6 active torsions:
REMARK  status: ('A' for Active; 'I' for Inactive)
REMARK    1  A    between atoms: C_2  and  C_4
REMARK    2  A    between atoms: C_8  and  C_10
REMARK    3  A    between atoms: C_21  and  N_22
REMARK    4  A    between atoms: N_22  and  S_23
REMARK    5  A    between atoms: S_23  and  C_26
REMARK    6  A    between atoms: C_28  and  C_32
REMARK                            x       y       z     vdW  Elec       q    Type
REMARK                         _______ _______ _______ _____ _____    ______ ____
ROOT
ATOM     10  C   UNL     1      -2.216  -0.735  25.656  0.00  0.00    +0.249 C 
ATOM     11  O   UNL     1      -1.852  -1.162  26.308  0.00  0.00    -0.270 OA
ATOM     12  N   UNL     1      -2.862  -1.203  25.313  0.00  0.00    -0.276 N 
ATOM     13  C   UNL     1      -3.341  -1.887  25.283  0.00  0.00    +0.096 C 
ATOM     14  C   UNL     1      -3.929  -1.645  24.527  0.00  0.00    +0.043 C 
ATOM     15  C   UNL     1      -4.484  -1.596  23.933  0.00  0.00    +0.011 C 
ATOM     16  C   UNL     1      -3.967  -1.200  24.193  0.00  0.00    +0.058 C 
ATOM     17  C   UNL     1      -3.407  -1.448  24.925  0.00  0.00    +0.099 C 
ATOM     18  C   UNL     1      -3.552  -0.388  24.075  0.00  0.00    +0.041 A 
ATOM     19  C   UNL     1      -3.584   0.284  23.597  0.00  0.00    +0.014 A 
ATOM     20  C   UNL     1      -3.054   0.903  23.722  0.00  0.00    +0.024 A 
ATOM     21  C   UNL     1      -2.492   0.851  24.325  0.00  0.00    +0.147 A 
ATOM     36  C   UNL     1      -2.461   0.179  24.802  0.00  0.00    +0.277 A 
ATOM     37  O   UNL     1      -1.849   0.732  25.055  0.00  0.00    -0.266 OA
ATOM     38  N   UNL     1      -2.991  -0.440  24.677  0.00  0.00    -0.298 N 
ATOM     39  C   UNL     1      -3.489  -0.799  24.411  0.00  0.00    +0.110 C 
ENDROOT
BRANCH  10   8
ATOM      4  C   UNL     1      -1.605   1.023  24.146  0.00  0.00    +0.080 A 
ATOM      5  C   UNL     1      -2.107   1.767  24.221  0.00  0.00    +0.007 A 
ATOM      6  C   UNL     1      -2.732   1.340  25.035  0.00  0.00    +0.000 A 
ATOM      7  C   UNL     1      -2.721   0.607  25.414  0.00  0.00    +0.005 A 
ATOM      8  C   UNL     1      -2.164   0.039  25.195  0.00  0.00    +0.054 A 
ATOM      9  C   UNL     1      -1.620   0.202  24.597  0.00  0.00    +0.011 A 
BRANCH   4   2
ATOM      1  O   UNL     1      -1.242   1.871  22.674  0.00  0.00    -0.241 OA
ATOM      2  C   UNL     1      -1.055   1.352  23.455  0.00  0.00    +0.388 C 
ATOM      3  O   UNL     1      -0.158   1.020  23.729  0.00  0.00    -0.241 OA
ENDBRANCH   4   2
ENDBRANCH  10   8
BRANCH  21  22
ATOM     22  N   UNL     1      -1.834   1.453  24.592  0.00  0.00    -0.092 NA
BRANCH  22  23
ATOM     23  S   UNL     1      -2.207   2.295  24.812  0.00  0.00    +0.093 S 
ATOM     24  O   UNL     1      -1.862   2.432  25.629  0.00  0.00    -0.148 OA
ATOM     25  O   UNL     1      -2.648   2.313  23.983  0.00  0.00    -0.148 OA
BRANCH  23  26
ATOM     26  C   UNL     1      -2.420   3.001  25.190  0.00  0.00    +0.127 A 
ATOM     27  C   UNL     1      -1.835   3.552  25.004  0.00  0.00    +0.024 A 
ATOM     28  C   UNL     1      -1.885   4.321  25.298  0.00  0.00    +0.073 A 
ATOM     29  C   UNL     1      -2.519   4.539  25.779  0.00  0.00    +0.004 A 
ATOM     30  C   UNL     1      -3.104   3.987  25.966  0.00  0.00    +0.001 A 
ATOM     31  C   UNL     1      -3.054   3.218  25.671  0.00  0.00    +0.020 A 
BRANCH  28  32
ATOM     32  C   UNL     1      -1.244   4.957  25.104  0.00  0.00    +0.419 C 
ATOM     33  F   UNL     1      -0.644   5.569  24.924  0.00  0.00    -0.166 F 
ATOM     34  F   UNL     1      -1.610   5.711  25.326  0.00  0.00    -0.166 F 
ATOM     35  F   UNL     1      -0.508   4.618  24.775  0.00  0.00    -0.166 F 
ENDBRANCH  28  32
ENDBRANCH  23  26
ENDBRANCH  22  23
ENDBRANCH  21  22
TORSDOF 6
ENDMDL
MODEL 2
REMARK VINA RESULT:     -15.4      0.923      1.444
REMARK  Name = 
REMARK  6 active torsions:
REMARK  status: ('A' for Active; 'I' for Inactive)
REMARK    1  A    between atoms: C_2  and  C_4
REMARK    2  A    between atoms: C_8  and  C_10
REMARK    3  A    between atoms: C_21  and  N_22
REMARK    4  A    between atoms: N_22  and  S_23
REMARK    5  A    between atoms: S_23  and  C_26
REMARK    6  A    between atoms: C_28  and  C_32
REMARK                            x       y       z     vdW  Elec       q    Type
REMARK                         _______ _______ _______ _____ _____    ______ ____
ROOT
ATOM     10  C   UNL     1      -4.242  -0.210  24.302  0.00  0.00    +0.249 C 
ATOM     11  O   UNL     1      -5.077  -0.383  24.190  0.00  0.00    -0.270 OA
ATOM     12  N   UNL     1      -3.820  -0.920  24.569  0.00  0.00    -0.276 N 
ATOM     13  C   UNL     1      -3.799  -1.726  24.786  0.00  0.00    +0.096 C 
ATOM     14  C   UNL     1      -2.837  -1.817  24.991  0.00  0.00    +0.043 C 
ATOM     15  C   UNL     1      -2.085  -2.054  25.195  0.00  0.00    +0.011 C 
ATOM     16  C   UNL     1      -2.403  -1.467  24.980  0.00  0.00    +0.058 C 
ATOM     17  C   UNL     1      -3.336  -1.395  24.786  0.00  0.00    +0.099 C 
ATOM     18  C   UNL     1      -2.233  -0.586  24.779  0.00  0.00    +0.041 A 
ATOM     19  C   UNL     1      -1.612  -0.044  24.752  0.00  0.00    +0.014 A 
ATOM     20  C   UNL     1      -1.755   0.734  24.519  0.00  0.00    +0.024 A 
ATOM     21  C   UNL     1      -2.518   0.970  24.313  0.00  0.00    +0.147 A 
ATOM     36  C   UNL     1      -3.139   0.428  24.340  0.00  0.00    +0.277 A 
ATOM     37  O   UNL     1      -3.444   1.192  24.080  0.00  0.00    -0.266 OA
ATOM     38  N   UNL     1      -2.996  -0.350  24.573  0.00  0.00    -0.298 N 
ATOM     39  C   UNL     1      -2.669  -0.896  24.779  0.00  0.00    +0.110 C 
ENDROOT
BRANCH  10   8
ATOM      4  C   UNL     1      -2.659   1.413  23.523  0.00  0.00    +0.080 A 
ATOM      5  C   UNL     1      -2.319   1.940  24.170  0.00  0.00    +0.007 A 
ATOM      6  C   UNL     1      -2.911   1.446  24.971  0.00  0.00    +0.000 A 
ATOM      7  C   UNL     1      -3.455   0.825  24.953  0.00  0.00    +0.005 A 
ATOM      8  C   UNL     1      -3.639   0.459  24.238  0.00  0.00    +0.054 A 
ATOM      9  C   UNL     1      -3.281   0.713  23.540  0.00  0.00    +0.011 A 
BRANCH   4   2
ATOM      1  O   UNL     1      -1.247   2.018  22.713  0.00  0.00    -0.241 OA
ATOM      2  C   UNL     1      -2.174   1.809  22.819  0.00  0.00    +0.388 C 
ATOM      3  O   UNL     1      -2.888   1.979  22.146  0.00  0.00    -0.241 OA
ENDBRANCH   4   2
ENDBRANCH  10   8
BRANCH  21  22
ATOM     22  N   UNL     1      -2.841   1.798  24.033  0.00  0.00    -0.092 NA
BRANCH  22  23
ATOM     23  S   UNL     1      -2.645   2.475  24.667  0.00  0.00    +0.093 S 
ATOM     24  O   UNL     1      -3.423   2.921  24.694  0.00  0.00    -0.148 OA
ATOM     25  O   UNL     1      -1.776   2.130  24.762  0.00  0.00    -0.148 OA
BRANCH  23  26
ATOM     26  C   UNL     1      -2.681   3.125  25.179  0.00  0.00    +0.127 A 
ATOM     27  C   UNL     1      -2.064   3.628  24.963  0.00  0.00    +0.024 A 
ATOM     28  C   UNL     1      -1.947   4.335  25.371  0.00  0.00    +0.073 A 
ATOM     29  C   UNL     1      -2.447   4.539  25.996  0.00  0.00    +0.004 A 
ATOM     30  C   UNL     1      -3.064   4.036  26.211  0.00  0.00    +0.001 A 
ATOM     31  C   UNL     1      -3.181   3.329  25.803  0.00  0.00    +0.020 A 
BRANCH  28  32
ATOM     32  C   UNL     1      -1.264   4.915  25.150  0.00  0.00    +0.419 C 
ATOM     33  F   UNL     1      -0.625   5.475  24.935  0.00  0.00    -0.166 F 
ATOM     34  F   UNL     1      -1.668   5.634  24.879  0.00  0.00    -0.166 F 
ATOM     35  F   UNL     1      -0.468   4.577  25.275  0.00  0.00    -0.166 F 
ENDBRANCH  28  32
ENDBRANCH  23  26
ENDBRANCH  22  23
ENDBRANCH  21  22
TORSDOF 6
ENDMDL
MODEL 3
REMARK VINA RESULT:     -15.0      2.472      4.559
REMARK  Name = 
REMARK  6 active torsions:
REMARK  status: ('A' for Active; 'I' for Inactive)
REMARK    1  A    between atoms: C_2  and  C_4
REMARK    2  A    between atoms: C_8  and  C_10
REMARK    3  A    between atoms: C_21  and  N_22
REMARK    4  A    between atoms: N_22  and  S_23
REMARK    5  A    between atoms: S_23  and  C_26
REMARK    6  A    between atoms: C_28  and  C_32
REMARK                            x       y       z     vdW  Elec       q    Type
REMARK                         _______ _______ _______ _____ _____    ______ ____
ROOT
ATOM     10  C   UNL     1      -4.635   2.789  24.571  0.00  0.00    +0.249 C 
ATOM     11  O   UNL     1      -5.450   2.953  24.349  0.00  0.00    -0.270 OA
ATOM     12  N   UNL     1      -4.334   3.412  25.095  0.00  0.00    -0.276 N 
ATOM     13  C   UNL     1      -4.426   4.125  25.520  0.00  0.00    +0.096 C 
ATOM     14  C   UNL     1      -3.528   4.194  25.925  0.00  0.00    +0.043 C 
ATOM     15  C   UNL     1      -2.848   4.393  26.328  0.00  0.00    +0.011 C 
ATOM     16  C   UNL     1      -3.069   3.878  25.906  0.00  0.00    +0.058 C 
ATOM     17  C   UNL     1      -3.941   3.826  25.521  0.00  0.00    +0.099 C 
ATOM     18  C   UNL     1      -2.785   3.096  25.514  0.00  0.00    +0.041 A 
ATOM     19  C   UNL     1      -2.122   2.608  25.465  0.00  0.00    +0.014 A 
ATOM     20  C   UNL     1      -2.149   1.921  25.009  0.00  0.00    +0.024 A 
ATOM     21  C   UNL     1      -2.839   1.722  24.603  0.00  0.00    +0.147 A 
ATOM     36  C   UNL     1      -3.502   2.210  24.652  0.00  0.00    +0.277 A 
ATOM     37  O   UNL     1      -3.686   1.538  24.144  0.00  0.00    -0.266 OA
ATOM     38  N   UNL     1      -3.475   2.897  25.108  0.00  0.00    -0.298 N 
ATOM     39  C   UNL     1      -3.241   3.376  25.512  0.00  0.00    +0.110 C 
ENDROOT
BRANCH  10   8
ATOM      4  C   UNL     1      -2.787   1.523  23.719  0.00  0.00    +0.080 A 
ATOM      5  C   UNL     1      -2.532   0.838  24.247  0.00  0.00    +0.007 A 
ATOM      6  C   UNL     1      -3.311   1.053  25.010  0.00  0.00    +0.000 A 
ATOM      7  C   UNL     1      -3.897   1.633  25.054  0.00  0.00    +0.005 A 
ATOM      8  C   UNL     1      -3.972   2.189  24.450  0.00  0.00    +0.054 A 
ATOM      9  C   UNL     1      -3.463   2.166  23.801  0.00  0.00    +0.011 A 
BRANCH   4   2
ATOM      1  O   UNL     1      -1.229   1.080  23.091  0.00  0.00    -0.241 OA
ATOM      2  C   UNL     1      -2.139   1.370  23.052  0.00  0.00    +0.388 C 
ATOM      3  O   UNL     1      -2.643   1.592  22.222  0.00  0.00    -0.241 OA
ENDBRANCH   4   2
ENDBRANCH  10   8
BRANCH  21  22
ATOM     22  N   UNL     1      -3.030   0.993  24.055  0.00  0.00    -0.092 NA
BRANCH  22  23
ATOM     23  S   UNL     1      -2.965   0.178  24.532  0.00  0.00    +0.093 S 
ATOM     24  O   UNL     1      -3.739  -0.218  24.312  0.00  0.00    -0.148 OA
ATOM     25  O   UNL     1      -2.125   0.441  24.861  0.00  0.00    -0.148 OA
BRANCH  23  26
ATOM     26  C   UNL     1      -3.104  -0.571  24.859  0.00  0.00    +0.127 A 
ATOM     27  C   UNL     1      -2.577  -1.088  24.493  0.00  0.00    +0.024 A 
ATOM     28  C   UNL     1      -2.574  -1.887  24.698  0.00  0.00    +0.073 A 
ATOM     29  C   UNL     1      -3.099  -2.168  25.270  0.00  0.00    +0.004 A 
ATOM     30  C   UNL     1      -3.626  -1.650  25.636  0.00  0.00    +0.001 A 
ATOM     31  C   UNL     1      -3.629  -0.852  25.431  0.00  0.00    +0.020 A 
BRANCH  28  32
ATOM     32  C   UNL     1      -1.994  -2.487  24.303  0.00  0.00    +0.419 C 
ATOM     33  F   UNL     1      -1.453  -3.062  23.923  0.00  0.00    -0.166 F 
ATOM     34  F   UNL     1      -2.506  -3.020  23.850  0.00  0.00    -0.166 F 
ATOM     35  F   UNL     1      -1.155  -2.338  24.499  0.00  0.00    -0.166 F 
ENDBRANCH  28  32
ENDBRANCH  23  26
ENDBRANCH  22  23
ENDBRANCH  21  22
TORSDOF 6
ENDMDL
MODEL 4
REMARK VINA RESULT:     -15.0      2.468      4.614
REMARK  Name = 
REMARK  6 active torsions:
REMARK  status: ('A' for Active; 'I' for Inactive)
REMARK    1  A    between atoms: C_2  and  C_4
REMARK    2  A    between atoms: C_8  and  C_10
REMARK    3  A    between atoms: C_21  and  N_22
REMARK    4  A    between atoms: N_22  and  S_23
REMARK    5  A    between atoms: S_23  and  C_26
REMARK    6  A    between atoms: C_28  and  C_32
REMARK                            x       y       z     vdW  Elec       q    Type
REMARK                         _______ _______ _______ _____ _____    ______ ____
ROOT
ATOM     10  C   UNL     1      -0.474   2.749  24.452  0.00  0.00    +0.249 C 
ATOM     11  O   UNL     1       0.378   2.702  24.343  0.00  0.00    -0.270 OA
ATOM     12  N   UNL     1      -0.689   3.502  24.825  0.00  0.00    -0.276 N 
ATOM     13  C   UNL     1      -0.492   4.245  25.152  0.00  0.00    +0.096 C 
ATOM     14  C   UNL     1      -1.395   4.565  25.393  0.00  0.00    +0.043 C 
ATOM     15  C   UNL     1      -2.057   4.967  25.648  0.00  0.00    +0.011 C 
ATOM     16  C   UNL     1      -1.908   4.351  25.345  0.00  0.00    +0.058 C 
ATOM     17  C   UNL     1      -1.028   4.056  25.118  0.00  0.00    +0.099 C 
ATOM     18  C   UNL     1      -2.309   3.587  25.030  0.00  0.00    +0.041 A 
ATOM     19  C   UNL     1      -3.054   3.243  24.945  0.00  0.00    +0.014 A 
ATOM     20  C   UNL     1      -3.127   2.496  24.603  0.00  0.00    +0.024 A 
ATOM     21  C   UNL     1      -2.455   2.092  24.347  0.00  0.00    +0.147 A 
ATOM     36  C   UNL     1      -1.710   2.436  24.431  0.00  0.00    +0.277 A 
ATOM     37  O   UNL     1      -1.621   1.663  24.061  0.00  0.00    -0.266 OA
ATOM     38  N   UNL     1      -1.637   3.184  24.773  0.00  0.00    -0.298 N 
ATOM     39  C   UNL     1      -1.806   3.764  25.061  0.00  0.00    +0.110 C 
ENDROOT
BRANCH  10   8
ATOM      4  C   UNL     1      -2.445   1.764  23.506  0.00  0.00    +0.080 A 
ATOM      5  C   UNL     1      -2.907   1.241  24.076  0.00  0.00    +0.007 A 
ATOM      6  C   UNL     1      -2.196   1.413  24.913  0.00  0.00    +0.000 A 
ATOM      7  C   UNL     1      -1.504   1.861  24.967  0.00  0.00    +0.005 A 
ATOM      8  C   UNL     1      -1.236   2.285  24.312  0.00  0.00    +0.054 A 
ATOM      9  C   UNL     1      -1.657   2.261  23.604  0.00  0.00    +0.011 A 
BRANCH   4   2
ATOM      1  O   UNL     1      -3.977   1.562  22.714  0.00  0.00    -0.241 OA
ATOM      2  C   UNL     1      -3.026   1.640  22.776  0.00  0.00    +0.388 C 
ATOM      3  O   UNL     1      -2.390   1.604  22.010  0.00  0.00    -0.241 OA
ENDBRANCH   4   2
ENDBRANCH  10   8
BRANCH  21  22
ATOM     22  N   UNL     1      -2.367   1.256  23.947  0.00  0.00    -0.092 NA
BRANCH  22  23
ATOM     23  S   UNL     1      -2.762   0.578  24.479  0.00  0.00    +0.093 S 
ATOM     24  O   UNL     1      -2.115  -0.044  24.480  0.00  0.00    -0.148 OA
ATOM     25  O   UNL     1      -3.529   1.111  24.581  0.00  0.00    -0.148 OA
BRANCH  23  26
ATOM     26  C   UNL     1      -2.917  -0.116  24.903  0.00  0.00    +0.127 A 
ATOM     27  C   UNL     1      -3.352  -0.606  24.402  0.00  0.00    +0.024 A 
ATOM     28  C   UNL     1      -3.597  -1.349  24.662  0.00  0.00    +0.073 A 
ATOM     29  C   UNL     1      -3.407  -1.603  25.424  0.00  0.00    +0.004 A 
ATOM     30  C   UNL     1      -2.972  -1.113  25.925  0.00  0.00    +0.001 A 
ATOM     31  C   UNL     1      -2.727  -0.370  25.665  0.00  0.00    +0.020 A 
BRANCH  28  32
ATOM     32  C   UNL     1      -4.084  -1.915  24.120  0.00  0.00    +0.419 C 
ATOM     33  F   UNL     1      -4.537  -2.462  23.607  0.00  0.00    -0.166 F 
ATOM     34  F   UNL     1      -3.605  -2.637  24.072  0.00  0.00    -0.166 F 
ATOM     35  F   UNL     1      -4.835  -1.566  23.839  0.00  0.00    -0.166 F 
ENDBRANCH  28  32
ENDBRANCH  23  26
ENDBRANCH  22  23
ENDBRANCH  21  22
TORSDOF 6
ENDMDL
