REMARK  Name = 
REMARK  8 active torsions:
REMARK  status: ('A' for Active; 'I' for Inactive)
REMARK    1  A    between atoms: N_2  and  C_3
REMARK    2  A    between atoms: N_2  and  C_6
REMARK    3  A    between atoms: C_3  and  C_4
REMARK    4  A    between atoms: C_6  and  C_7
REMARK    5  A    between atoms: C_14  and  C_15
REMARK    6  A    between atoms: C_15  and  N_16
REMARK    7  A    between atoms: N_16  and  S_17
REMARK    8  A    between atoms: S_17  and  C_20
REMARK                            x       y       z     vdW  Elec       q    Type
REMARK                         _______ _______ _______ _____ _____    ______ ____
ROOT
ATOM      7  C   UNL     1       1.661  -1.343   0.000  0.00  0.00    +0.032 C 
ATOM      8  C   UNL     1       1.814  -2.106   0.000  0.00  0.00    +0.073 C 
ATOM      9  N   UNL     1       1.065  -1.759   0.000  0.00  0.00    -0.272 NA
ATOM     10  C   UNL     1       1.205  -0.720   0.000  0.00  0.00    +0.072 C 
ATOM     11  C   UNL     1       0.961  -0.114   0.000  0.00  0.00    +0.017 C 
ATOM     12  C   UNL     1       0.923  -1.010   0.000  0.00  0.00    +0.005 C 
ATOM     13  C   UNL     1       0.119  -1.362   0.000  0.00  0.00    +0.018 C 
ATOM     14  C   UNL     1       0.226  -2.118   0.000  0.00  0.00    +0.077 C 
ENDROOT
BRANCH   7   6
ATOM      6  C   UNL     1       2.307  -0.828   0.000  0.00  0.00    +0.074 C 
BRANCH   6   2
ATOM      1  C   UNL     1       1.416   0.289   0.000  0.00  0.00    +0.090 C 
ATOM      2  N   UNL     1       2.184  -0.013   0.000  0.00  0.00    -0.268 NA
BRANCH   2   3
ATOM      3  C   UNL     1       2.829   0.501   0.000  0.00  0.00    +0.099 C 
BRANCH   3   4
ATOM      4  C   UNL     1       2.707   1.317   0.000  0.00  0.00    -0.009 C 
ATOM      5  C   UNL     1       3.352   1.831   0.000  0.00  0.00    -0.003 C 
ENDBRANCH   3   4
ENDBRANCH   2   3
ENDBRANCH   6   2
ENDBRANCH   7   6
BRANCH  14  15
ATOM     15  C   UNL     1      -0.179  -2.836   0.000  0.00  0.00    +0.131 C 
BRANCH  15  16
ATOM     16  N   UNL     1       0.241  -3.546   0.000  0.00  0.00    -0.076 NA
BRANCH  16  17
ATOM     17  S   UNL     1      -0.163  -4.265   0.000  0.00  0.00    +0.077 S 
ATOM     18  O   UNL     1      -0.882  -3.860   0.000  0.00  0.00    -0.152 OA
ATOM     19  O   UNL     1       0.556  -4.670   0.000  0.00  0.00    -0.152 OA
BRANCH  17  20
ATOM     20  C   UNL     1      -0.568  -4.984   0.000  0.00  0.00    +0.124 A 
ATOM     21  C   UNL     1      -0.148  -5.694   0.000  0.00  0.00    +0.020 A 
ATOM     22  C   UNL     1      -0.553  -6.413   0.000  0.00  0.00    +0.001 A 
ATOM     23  C   UNL     1      -1.378  -6.422   0.000  0.00  0.00    +0.000 A 
ATOM     24  C   UNL     1      -1.798  -5.712   0.000  0.00  0.00    +0.001 A 
ATOM     25  C   UNL     1      -1.393  -4.993   0.000  0.00  0.00    +0.020 A 
ENDBRANCH  17  20
ENDBRANCH  16  17
ENDBRANCH  15  16
ENDBRANCH  14  15
TORSDOF 8
