MODEL 1
REMARK VINA RESULT:     -10.7      0.000      0.000
REMARK  Name = 
REMARK  5 active torsions:
REMARK  status: ('A' for Active; 'I' for Inactive)
REMARK    1  A    between atoms: O_2  and  C_3
REMARK    2  A    between atoms: C_3  and  C_4
REMARK    3  A    between atoms: C_4  and  N_5
REMARK    4  A    between atoms: N_9  and  S_15
REMARK    5  A    between atoms: S_15  and  C_18
REMARK                            x       y       z     vdW  Elec       q    Type
REMARK                         _______ _______ _______ _____ _____    ______ ____
ROOT
ATOM      5  N   UNL     1      -3.293   3.213  25.032  0.00  0.00    -0.260 N 
ATOM      6  C   UNL     1      -2.891   2.502  24.921  0.00  0.00    +0.116 C 
ATOM      7  C   UNL     1      -3.448   1.895  24.897  0.00  0.00    +0.114 C 
ATOM      8  C   UNL     1      -3.373   1.079  24.800  0.00  0.00    +0.117 C 
ATOM      9  N   UNL     1      -4.044   0.600  24.798  0.00  0.00    -0.152 NA
ATOM     10  C   UNL     1      -4.791   0.936  24.894  0.00  0.00    +0.117 C 
ATOM     11  C   UNL     1      -4.868   1.752  24.991  0.00  0.00    +0.114 C 
ATOM     12  N   UNL     1      -4.196   2.231  24.992  0.00  0.00    -0.261 N 
ATOM     13  C   UNL     1      -4.100   3.046  25.076  0.00  0.00    +0.307 C 
ATOM     14  O   UNL     1      -4.704   3.597  25.184  0.00  0.00    -0.252 OA
ENDROOT
BRANCH   9  15
ATOM     15  S   UNL     1      -3.969  -0.216  24.701  0.00  0.00    +0.063 S 
ATOM     16  O   UNL     1      -4.138  -0.327  25.500  0.00  0.00    -0.153 OA
ATOM     17  O   UNL     1      -3.800  -0.105  23.901  0.00  0.00    -0.153 OA
BRANCH  15  18
ATOM     18  C   UNL     1      -3.893  -1.032  24.603  0.00  0.00    +0.122 A 
ATOM     19  C   UNL     1      -4.227  -1.401  23.945  0.00  0.00    +0.020 A 
ATOM     20  C   UNL     1      -4.151  -2.217  23.848  0.00  0.00    +0.001 A 
ATOM     21  C   UNL     1      -3.742  -2.663  24.408  0.00  0.00    +0.000 A 
ATOM     22  C   UNL     1      -3.409  -2.294  25.066  0.00  0.00    +0.001 A 
ATOM     23  C   UNL     1      -3.484  -1.478  25.164  0.00  0.00    +0.020 A 
ENDBRANCH  15  18
ENDBRANCH   9  15
BRANCH   5   4
ATOM      4  C   UNL     1      -2.950   3.961  25.088  0.00  0.00    +0.127 C 
BRANCH   4   3
ATOM      3  C   UNL     1      -2.129   4.037  25.119  0.00  0.00    +0.164 C 
BRANCH   3   2
ATOM      1  C   UNL     1      -1.047   4.962  24.990  0.00  0.00    +0.174 C 
ATOM      2  O   UNL     1      -1.788   4.767  25.298  0.00  0.00    -0.349 OA
ENDBRANCH   3   2
ENDBRANCH   4   3
ENDBRANCH   5   4
TORSDOF 5
ENDMDL
MODEL 2
REMARK VINA RESULT:      -9.5      1.788      2.264
REMARK  Name = 
REMARK  5 active torsions:
REMARK  status: ('A' for Active; 'I' for Inactive)
REMARK    1  A    between atoms: O_2  and  C_3
REMARK    2  A    between atoms: C_3  and  C_4
REMARK    3  A    between atoms: C_4  and  N_5
REMARK    4  A    between atoms: N_9  and  S_15
REMARK    5  A    between atoms: S_15  and  C_18
REMARK                            x       y       z     vdW  Elec       q    Type
REMARK                         _______ _______ _______ _____ _____    ______ ____
ROOT
ATOM      5  N   UNL     1      -0.954   2.526  25.230  0.00  0.00    -0.260 N 
ATOM      6  C   UNL     1      -1.606   2.199  24.844  0.00  0.00    +0.116 C 
ATOM      7  C   UNL     1      -1.630   1.394  25.020  0.00  0.00    +0.114 C 
ATOM      8  C   UNL     1      -2.149   0.794  24.794  0.00  0.00    +0.117 C 
ATOM      9  N   UNL     1      -2.031   0.023  25.062  0.00  0.00    -0.152 NA
ATOM     10  C   UNL     1      -1.394  -0.148  25.557  0.00  0.00    +0.117 C 
ATOM     11  C   UNL     1      -0.874   0.451  25.783  0.00  0.00    +0.114 C 
ATOM     12  N   UNL     1      -0.992   1.223  25.515  0.00  0.00    -0.261 N 
ATOM     13  C   UNL     1      -0.574   1.922  25.644  0.00  0.00    +0.307 C 
ATOM     14  O   UNL     1       0.104   2.003  26.107  0.00  0.00    -0.252 OA
ENDROOT
BRANCH   9  15
ATOM     15  S   UNL     1      -2.551  -0.577  24.836  0.00  0.00    +0.063 S 
ATOM     16  O   UNL     1      -3.093  -0.320  25.401  0.00  0.00    -0.153 OA
ATOM     17  O   UNL     1      -2.007  -0.833  24.271  0.00  0.00    -0.153 OA
BRANCH  15  18
ATOM     18  C   UNL     1      -3.069  -1.177  24.610  0.00  0.00    +0.122 A 
ATOM     19  C   UNL     1      -3.725  -1.001  24.142  0.00  0.00    +0.020 A 
ATOM     20  C   UNL     1      -4.243  -1.603  23.915  0.00  0.00    +0.001 A 
ATOM     21  C   UNL     1      -4.105  -2.379  24.157  0.00  0.00    +0.000 A 
ATOM     22  C   UNL     1      -3.449  -2.554  24.625  0.00  0.00    +0.001 A 
ATOM     23  C   UNL     1      -2.931  -1.954  24.852  0.00  0.00    +0.020 A 
ENDBRANCH  15  18
ENDBRANCH   9  15
BRANCH   5   4
ATOM      4  C   UNL     1      -0.722   3.317  25.206  0.00  0.00    +0.127 C 
BRANCH   4   3
ATOM      3  C   UNL     1      -1.287   3.910  25.112  0.00  0.00    +0.164 C 
BRANCH   3   2
ATOM      1  C   UNL     1      -1.628   5.297  25.154  0.00  0.00    +0.174 C 
ATOM      2  O   UNL     1      -1.057   4.703  25.107  0.00  0.00    -0.349 OA
ENDBRANCH   3   2
ENDBRANCH   4   3
ENDBRANCH   5   4
TORSDOF 5
ENDMDL
MODEL 3
REMARK VINA RESULT:      -9.2      2.235      5.438
REMARK  Name = 
REMARK  5 active torsions:
REMARK  status: ('A' for Active; 'I' for Inactive)
REMARK    1  A    between atoms: O_2  and  C_3
REMARK    2  A    between atoms: C_3  and  C_4
REMARK    3  A    between atoms: C_4  and  N_5
REMARK    4  A    between atoms: N_9  and  S_15
REMARK    5  A    between atoms: S_15  and  C_18
REMARK                            x       y       z     vdW  Elec       q    Type
REMARK                         _______ _______ _______ _____ _____    ______ ____
ROOT
ATOM      5  N   UNL     1      -1.606  -0.802  24.796  0.00  0.00    -0.260 N 
ATOM      6  C   UNL     1      -2.048  -0.128  24.971  0.00  0.00    +0.116 C 
ATOM      7  C   UNL     1      -1.555   0.528  24.891  0.00  0.00    +0.114 C 
ATOM      8  C   UNL     1      -1.688   1.336  24.994  0.00  0.00    +0.117 C 
ATOM      9  N   UNL     1      -1.076   1.874  24.872  0.00  0.00    -0.152 NA
ATOM     10  C   UNL     1      -0.330   1.606  24.647  0.00  0.00    +0.117 C 
ATOM     11  C   UNL     1      -0.195   0.798  24.544  0.00  0.00    +0.114 C 
ATOM     12  N   UNL     1      -0.808   0.259  24.666  0.00  0.00    -0.261 N 
ATOM     13  C   UNL     1      -0.840  -0.562  24.607  0.00  0.00    +0.307 C 
ATOM     14  O   UNL     1      -0.214  -1.058  24.397  0.00  0.00    -0.252 OA
ENDROOT
BRANCH   9  15
ATOM     15  S   UNL     1      -1.210   2.682  24.974  0.00  0.00    +0.063 S 
ATOM     16  O   UNL     1      -0.902   2.637  25.738  0.00  0.00    -0.153 OA
ATOM     17  O   UNL     1      -1.518   2.727  24.210  0.00  0.00    -0.153 OA
BRANCH  15  18
ATOM     18  C   UNL     1      -1.344   3.490  25.076  0.00  0.00    +0.122 A 
ATOM     19  C   UNL     1      -2.035   3.751  25.443  0.00  0.00    +0.020 A 
ATOM     20  C   UNL     1      -2.167   4.559  25.544  0.00  0.00    +0.001 A 
ATOM     21  C   UNL     1      -1.611   5.106  25.278  0.00  0.00    +0.000 A 
ATOM     22  C   UNL     1      -0.920   4.844  24.910  0.00  0.00    +0.001 A 
ATOM     23  C   UNL     1      -0.786   4.037  24.808  0.00  0.00    +0.020 A 
ENDBRANCH  15  18
ENDBRANCH   9  15
BRANCH   5   4
ATOM      4  C   UNL     1      -1.882  -1.579  24.807  0.00  0.00    +0.127 C 
BRANCH   4   3
ATOM      3  C   UNL     1      -2.689  -1.732  24.728  0.00  0.00    +0.164 C 
BRANCH   3   2
ATOM      1  C   UNL     1      -3.657  -2.743  24.441  0.00  0.00    +0.174 C 
ATOM      2  O   UNL     1      -2.977  -2.497  24.839  0.00  0.00    -0.349 OA
ENDBRANCH   3   2
ENDBRANCH   4   3
ENDBRANCH   5   4
TORSDOF 5
ENDMDL
MODEL 4
REMARK VINA RESULT:      -9.1      1.247      4.847
REMARK  Name = 
REMARK  5 active torsions:
REMARK  status: ('A' for Active; 'I' for Inactive)
REMARK    1  A    between atoms: O_2  and  C_3
REMARK    2  A    between atoms: C_3  and  C_4
REMARK    3  A    between atoms: C_4  and  N_5
REMARK    4  A    between atoms: N_9  and  S_15
REMARK    5  A    between atoms: S_15  and  C_18
REMARK                            x       y       z     vdW  Elec       q    Type
REMARK                         _______ _______ _______ _____ _____    ______ ____
ROOT
ATOM      5  N   UNL     1      -4.167   0.202  24.574  0.00  0.00    -0.260 N 
ATOM      6  C   UNL     1      -3.412   0.523  24.485  0.00  0.00    +0.116 C 
ATOM      7  C   UNL     1      -3.449   1.321  24.691  0.00  0.00    +0.114 C 
ATOM      8  C   UNL     1      -2.876   1.914  24.710  0.00  0.00    +0.117 C 
ATOM      9  N   UNL     1      -3.079   2.678  24.944  0.00  0.00    -0.152 NA
ATOM     10  C   UNL     1      -3.857   2.849  25.160  0.00  0.00    +0.117 C 
ATOM     11  C   UNL     1      -4.431   2.257  25.141  0.00  0.00    +0.114 C 
ATOM     12  N   UNL     1      -4.227   1.492  24.906  0.00  0.00    -0.261 N 
ATOM     13  C   UNL     1      -4.670   0.801  24.834  0.00  0.00    +0.307 C 
ATOM     14  O   UNL     1      -5.476   0.722  24.994  0.00  0.00    -0.252 OA
ENDROOT
BRANCH   9  15
ATOM     15  S   UNL     1      -2.506   3.271  24.963  0.00  0.00    +0.063 S 
ATOM     16  O   UNL     1      -2.280   3.030  25.718  0.00  0.00    -0.153 OA
ATOM     17  O   UNL     1      -2.732   3.512  24.206  0.00  0.00    -0.153 OA
BRANCH  15  18
ATOM     18  C   UNL     1      -1.933   3.864  24.981  0.00  0.00    +0.122 A 
ATOM     19  C   UNL     1      -1.145   3.683  24.815  0.00  0.00    +0.020 A 
ATOM     20  C   UNL     1      -0.573   4.278  24.833  0.00  0.00    +0.001 A 
ATOM     21  C   UNL     1      -0.788   5.052  25.016  0.00  0.00    +0.000 A 
ATOM     22  C   UNL     1      -1.576   5.233  25.182  0.00  0.00    +0.001 A 
ATOM     23  C   UNL     1      -2.149   4.640  25.165  0.00  0.00    +0.020 A 
ENDBRANCH  15  18
ENDBRANCH   9  15
BRANCH   5   4
ATOM      4  C   UNL     1      -4.380  -0.582  24.428  0.00  0.00    +0.127 C 
BRANCH   4   3
ATOM      3  C   UNL     1      -3.807  -1.175  24.437  0.00  0.00    +0.164 C 
BRANCH   3   2
ATOM      1  C   UNL     1      -3.536  -2.577  24.464  0.00  0.00    +0.174 C 
ATOM      2  O   UNL     1      -4.006  -1.945  24.218  0.00  0.00    -0.349 OA
ENDBRANCH   3   2
ENDBRANCH   4   3
ENDBRANCH   5   4
TORSDOF 5
ENDMDL
MODEL 5
REMARK VINA RESULT:      -8.9      1.321      1.884
REMARK  Name = 
REMARK  5 active torsions:
REMARK  status: ('A' for Active; 'I' for Inactive)
REMARK    1  A    between atoms: O_2  and  C_3
REMARK    2  A    between atoms: C_3  and  C_4
REMARK    3  A    between atoms: C_4  and  N_5
REMARK    4  A    between atoms: N_9  and  S_15
REMARK    5  A    between atoms: S_15  and  C_18
REMARK                            x       y       z     vdW  Elec       q    Type
REMARK                         _______ _______ _______ _____ _____    ______ ____
ROOT
ATOM      5  N   UNL     1      -4.369   2.835  24.900  0.00  0.00    -0.260 N 
ATOM      6  C   UNL     1      -4.600   2.096  25.188  0.00  0.00    +0.116 C 
ATOM      7  C   UNL     1      -4.181   1.520  24.774  0.00  0.00    +0.114 C 
ATOM      8  C   UNL     1      -4.181   0.696  24.821  0.00  0.00    +0.117 C 
ATOM      9  N   UNL     1      -3.692   0.254  24.326  0.00  0.00    -0.152 NA
ATOM     10  C   UNL     1      -3.201   0.635  23.784  0.00  0.00    +0.117 C 
ATOM     11  C   UNL     1      -3.200   1.459  23.736  0.00  0.00    +0.114 C 
ATOM     12  N   UNL     1      -3.690   1.901  24.232  0.00  0.00    -0.261 N 
ATOM     13  C   UNL     1      -3.806   2.714  24.310  0.00  0.00    +0.307 C 
ATOM     14  O   UNL     1      -3.426   3.302  23.874  0.00  0.00    -0.252 OA
ENDROOT
BRANCH   9  15
ATOM     15  S   UNL     1      -3.693  -0.570  24.373  0.00  0.00    +0.063 S 
ATOM     16  O   UNL     1      -4.438  -0.590  24.020  0.00  0.00    -0.153 OA
ATOM     17  O   UNL     1      -2.947  -0.550  24.727  0.00  0.00    -0.153 OA
BRANCH  15  18
ATOM     18  C   UNL     1      -3.693  -1.394  24.420  0.00  0.00    +0.122 A 
ATOM     19  C   UNL     1      -4.120  -1.839  23.873  0.00  0.00    +0.020 A 
ATOM     20  C   UNL     1      -4.119  -2.663  23.922  0.00  0.00    +0.001 A 
ATOM     21  C   UNL     1      -3.691  -3.041  24.516  0.00  0.00    +0.000 A 
ATOM     22  C   UNL     1      -3.263  -2.595  25.063  0.00  0.00    +0.001 A 
ATOM     23  C   UNL     1      -3.264  -1.772  25.016  0.00  0.00    +0.020 A 
ENDBRANCH  15  18
ENDBRANCH   9  15
BRANCH   5   4
ATOM      4  C   UNL     1      -4.651   3.566  25.159  0.00  0.00    +0.127 C 
BRANCH   4   3
ATOM      3  C   UNL     1      -5.410   3.627  25.476  0.00  0.00    +0.164 C 
BRANCH   3   2
ATOM      1  C   UNL     1      -6.206   4.806  25.606  0.00  0.00    +0.174 C 
ATOM      2  O   UNL     1      -5.626   4.299  25.903  0.00  0.00    -0.349 OA
ENDBRANCH   3   2
ENDBRANCH   4   3
ENDBRANCH   5   4
TORSDOF 5
ENDMDL
MODEL 6
REMARK VINA RESULT:      -8.5      2.869      4.191
REMARK  Name = 
REMARK  5 active torsions:
REMARK  status: ('A' for Active; 'I' for Inactive)
REMARK    1  A    between atoms: O_2  and  C_3
REMARK    2  A    between atoms: C_3  and  C_4
REMARK    3  A    between atoms: C_4  and  N_5
REMARK    4  A    between atoms: N_9  and  S_15
REMARK    5  A    between atoms: S_15  and  C_18
REMARK                            x       y       z     vdW  Elec       q    Type
REMARK                         _______ _______ _______ _____ _____    ______ ____
ROOT
ATOM      5  N   UNL     1      -0.194  -0.260  23.994  0.00  0.00    -0.260 N 
ATOM      6  C   UNL     1      -0.692   0.359  23.771  0.00  0.00    +0.116 C 
ATOM      7  C   UNL     1      -1.385   0.299  24.213  0.00  0.00    +0.114 C 
ATOM      8  C   UNL     1      -2.072   0.757  24.228  0.00  0.00    +0.117 C 
ATOM      9  N   UNL     1      -2.688   0.560  24.739  0.00  0.00    -0.152 NA
ATOM     10  C   UNL     1      -2.619  -0.095  25.235  0.00  0.00    +0.117 C 
ATOM     11  C   UNL     1      -1.933  -0.554  25.221  0.00  0.00    +0.114 C 
ATOM     12  N   UNL     1      -1.316  -0.356  24.709  0.00  0.00    -0.261 N 
ATOM     13  C   UNL     1      -0.580  -0.701  24.574  0.00  0.00    +0.307 C 
ATOM     14  O   UNL     1      -0.282  -1.372  24.952  0.00  0.00    -0.252 OA
ENDROOT
BRANCH   9  15
ATOM     15  S   UNL     1      -3.375   1.018  24.754  0.00  0.00    +0.063 S 
ATOM     16  O   UNL     1      -3.011   1.548  25.270  0.00  0.00    -0.153 OA
ATOM     17  O   UNL     1      -3.739   0.487  24.238  0.00  0.00    -0.153 OA
BRANCH  15  18
ATOM     18  C   UNL     1      -4.061   1.474  24.769  0.00  0.00    +0.122 A 
ATOM     19  C   UNL     1      -4.034   2.269  24.547  0.00  0.00    +0.020 A 
ATOM     20  C   UNL     1      -4.722   2.724  24.562  0.00  0.00    +0.001 A 
ATOM     21  C   UNL     1      -5.436   2.387  24.798  0.00  0.00    +0.000 A 
ATOM     22  C   UNL     1      -5.463   1.593  25.020  0.00  0.00    +0.001 A 
ATOM     23  C   UNL     1      -4.776   1.136  25.006  0.00  0.00    +0.020 A 
ENDBRANCH  15  18
ENDBRANCH   9  15
BRANCH   5   4
ATOM      4  C   UNL     1       0.558  -0.411  23.690  0.00  0.00    +0.127 C 
BRANCH   4   3
ATOM      3  C   UNL     1       0.862   0.062  23.087  0.00  0.00    +0.164 C 
BRANCH   3   2
ATOM      1  C   UNL     1       2.193   0.166  22.577  0.00  0.00    +0.174 C 
ATOM      2  O   UNL     1       1.466  -0.223  22.602  0.00  0.00    -0.349 OA
ENDBRANCH   3   2
ENDBRANCH   4   3
ENDBRANCH   5   4
TORSDOF 5
ENDMDL
MODEL 7
REMARK VINA RESULT:      -8.1      3.382      5.116
REMARK  Name = 
REMARK  5 active torsions:
REMARK  status: ('A' for Active; 'I' for Inactive)
REMARK    1  A    between atoms: O_2  and  C_3
REMARK    2  A    between atoms: C_3  and  C_4
REMARK    3  A    between atoms: C_4  and  N_5
REMARK    4  A    between atoms: N_9  and  S_15
REMARK    5  A    between atoms: S_15  and  C_18
REMARK                            x       y       z     vdW  Elec       q    Type
REMARK                         _______ _______ _______ _____ _____    ______ ____
ROOT
ATOM      5  N   UNL     1       0.359   0.140  23.578  0.00  0.00    -0.260 N 
ATOM      6  C   UNL     1       0.251   0.957  23.627  0.00  0.00    +0.116 C 
ATOM      7  C   UNL     1      -0.402   1.099  24.110  0.00  0.00    +0.114 C 
ATOM      8  C   UNL     1      -0.766   1.798  24.355  0.00  0.00    +0.117 C 
ATOM      9  N   UNL     1      -1.425   1.768  24.849  0.00  0.00    -0.152 NA
ATOM     10  C   UNL     1      -1.722   1.040  25.098  0.00  0.00    +0.117 C 
ATOM     11  C   UNL     1      -1.358   0.341  24.854  0.00  0.00    +0.114 C 
ATOM     12  N   UNL     1      -0.698   0.370  24.359  0.00  0.00    -0.261 N 
ATOM     13  C   UNL     1      -0.228  -0.222  24.031  0.00  0.00    +0.307 C 
ATOM     14  O   UNL     1      -0.327  -1.035  24.137  0.00  0.00    -0.252 OA
ENDROOT
BRANCH   9  15
ATOM     15  S   UNL     1      -1.790   2.467  25.094  0.00  0.00    +0.063 S 
ATOM     16  O   UNL     1      -1.282   2.505  25.742  0.00  0.00    -0.153 OA
ATOM     17  O   UNL     1      -2.298   2.429  24.444  0.00  0.00    -0.153 OA
BRANCH  15  18
ATOM     18  C   UNL     1      -2.155   3.165  25.337  0.00  0.00    +0.122 A 
ATOM     19  C   UNL     1      -1.709   3.853  25.432  0.00  0.00    +0.020 A 
ATOM     20  C   UNL     1      -2.075   4.551  25.676  0.00  0.00    +0.001 A 
ATOM     21  C   UNL     1      -2.886   4.562  25.825  0.00  0.00    +0.000 A 
ATOM     22  C   UNL     1      -3.332   3.874  25.731  0.00  0.00    +0.001 A 
ATOM     23  C   UNL     1      -2.967   3.176  25.487  0.00  0.00    +0.020 A 
ENDBRANCH  15  18
ENDBRANCH   9  15
BRANCH   5   4
ATOM      4  C   UNL     1       0.950  -0.247  23.152  0.00  0.00    +0.127 C 
BRANCH   4   3
ATOM      3  C   UNL     1       1.587   0.180  22.848  0.00  0.00    +0.164 C 
BRANCH   3   2
ATOM      1  C   UNL     1       2.926   0.182  22.350  0.00  0.00    +0.174 C 
ATOM      2  O   UNL     1       2.215  -0.215  22.489  0.00  0.00    -0.349 OA
ENDBRANCH   3   2
ENDBRANCH   4   3
ENDBRANCH   5   4
TORSDOF 5
ENDMDL
MODEL 8
REMARK VINA RESULT:      -8.1      2.694      4.108
REMARK  Name = 
REMARK  5 active torsions:
REMARK  status: ('A' for Active; 'I' for Inactive)
REMARK    1  A    between atoms: O_2  and  C_3
REMARK    2  A    between atoms: C_3  and  C_4
REMARK    3  A    between atoms: C_4  and  N_5
REMARK    4  A    between atoms: N_9  and  S_15
REMARK    5  A    between atoms: S_15  and  C_18
REMARK                            x       y       z     vdW  Elec       q    Type
REMARK                         _______ _______ _______ _____ _____    ______ ____
ROOT
ATOM      5  N   UNL     1      -0.115   1.216  24.106  0.00  0.00    -0.260 N 
ATOM      6  C   UNL     1      -0.897   1.005  23.947  0.00  0.00    +0.116 C 
ATOM      7  C   UNL     1      -1.389   1.517  24.367  0.00  0.00    +0.114 C 
ATOM      8  C   UNL     1      -2.210   1.572  24.423  0.00  0.00    +0.117 C 
ATOM      9  N   UNL     1      -2.554   2.153  24.896  0.00  0.00    -0.152 NA
ATOM     10  C   UNL     1      -2.076   2.680  25.314  0.00  0.00    +0.117 C 
ATOM     11  C   UNL     1      -1.255   2.626  25.259  0.00  0.00    +0.114 C 
ATOM     12  N   UNL     1      -0.911   2.044  24.785  0.00  0.00    -0.261 N 
ATOM     13  C   UNL     1      -0.124   1.858  24.624  0.00  0.00    +0.307 C 
ATOM     14  O   UNL     1       0.538   2.245  24.928  0.00  0.00    -0.252 OA
ENDROOT
BRANCH   9  15
ATOM     15  S   UNL     1      -3.375   2.209  24.952  0.00  0.00    +0.063 S 
ATOM     16  O   UNL     1      -3.360   2.895  24.496  0.00  0.00    -0.153 OA
ATOM     17  O   UNL     1      -3.389   1.521  25.409  0.00  0.00    -0.153 OA
BRANCH  15  18
ATOM     18  C   UNL     1      -4.196   2.263  25.009  0.00  0.00    +0.122 A 
ATOM     19  C   UNL     1      -4.669   1.625  24.784  0.00  0.00    +0.020 A 
ATOM     20  C   UNL     1      -5.490   1.681  24.841  0.00  0.00    +0.001 A 
ATOM     21  C   UNL     1      -5.839   2.373  25.123  0.00  0.00    +0.000 A 
ATOM     22  C   UNL     1      -5.366   3.010  25.348  0.00  0.00    +0.001 A 
ATOM     23  C   UNL     1      -4.545   2.956  25.291  0.00  0.00    +0.020 A 
ENDBRANCH  15  18
ENDBRANCH   9  15
BRANCH   5   4
ATOM      4  C   UNL     1       0.557   0.848  23.801  0.00  0.00    +0.127 C 
BRANCH   4   3
ATOM      3  C   UNL     1       0.482   0.262  23.225  0.00  0.00    +0.164 C 
BRANCH   3   2
ATOM      1  C   UNL     1       1.464  -0.231  22.312  0.00  0.00    +0.174 C 
ATOM      2  O   UNL     1       1.117  -0.239  23.060  0.00  0.00    -0.349 OA
ENDBRANCH   3   2
ENDBRANCH   4   3
ENDBRANCH   5   4
TORSDOF 5
ENDMDL
MODEL 9
REMARK VINA RESULT:      -7.6      1.766      4.536
REMARK  Name = 
REMARK  5 active torsions:
REMARK  status: ('A' for Active; 'I' for Inactive)
REMARK    1  A    between atoms: O_2  and  C_3
REMARK    2  A    between atoms: C_3  and  C_4
REMARK    3  A    between atoms: C_4  and  N_5
REMARK    4  A    between atoms: N_9  and  S_15
REMARK    5  A    between atoms: S_15  and  C_18
REMARK                            x       y       z     vdW  Elec       q    Type
REMARK                         _______ _______ _______ _____ _____    ______ ____
ROOT
ATOM      5  N   UNL     1      -2.604  -1.486  24.616  0.00  0.00    -0.260 N 
ATOM      6  C   UNL     1      -2.507  -0.707  24.872  0.00  0.00    +0.116 C 
ATOM      7  C   UNL     1      -3.221  -0.312  24.760  0.00  0.00    +0.114 C 
ATOM      8  C   UNL     1      -3.452   0.466  24.912  0.00  0.00    +0.117 C 
ATOM      9  N   UNL     1      -4.220   0.710  24.739  0.00  0.00    -0.152 NA
ATOM     10  C   UNL     1      -4.759   0.177  24.413  0.00  0.00    +0.117 C 
ATOM     11  C   UNL     1      -4.529  -0.600  24.261  0.00  0.00    +0.114 C 
ATOM     12  N   UNL     1      -3.760  -0.845  24.434  0.00  0.00    -0.261 N 
ATOM     13  C   UNL     1      -3.379  -1.570  24.345  0.00  0.00    +0.307 C 
ATOM     14  O   UNL     1      -3.713  -2.260  24.039  0.00  0.00    -0.252 OA
ENDROOT
BRANCH   9  15
ATOM     15  S   UNL     1      -4.450   1.488  24.892  0.00  0.00    +0.063 S 
ATOM     16  O   UNL     1      -4.730   1.261  25.633  0.00  0.00    -0.153 OA
ATOM     17  O   UNL     1      -4.170   1.716  24.149  0.00  0.00    -0.153 OA
BRANCH  15  18
ATOM     18  C   UNL     1      -4.680   2.266  25.043  0.00  0.00    +0.122 A 
ATOM     19  C   UNL     1      -4.180   2.891  24.843  0.00  0.00    +0.020 A 
ATOM     20  C   UNL     1      -4.411   3.668  24.995  0.00  0.00    +0.001 A 
ATOM     21  C   UNL     1      -5.142   3.821  25.345  0.00  0.00    +0.000 A 
ATOM     22  C   UNL     1      -5.642   3.196  25.544  0.00  0.00    +0.001 A 
ATOM     23  C   UNL     1      -5.412   2.418  25.393  0.00  0.00    +0.020 A 
ENDBRANCH  15  18
ENDBRANCH   9  15
BRANCH   5   4
ATOM      4  C   UNL     1      -2.028  -2.076  24.628  0.00  0.00    +0.127 C 
BRANCH   4   3
ATOM      3  C   UNL     1      -1.281  -1.917  24.940  0.00  0.00    +0.164 C 
BRANCH   3   2
ATOM      1  C   UNL     1       0.032  -2.359  25.287  0.00  0.00    +0.174 C 
ATOM      2  O   UNL     1      -0.735  -2.528  25.035  0.00  0.00    -0.349 OA
ENDBRANCH   3   2
ENDBRANCH   4   3
ENDBRANCH   5   4
TORSDOF 5
ENDMDL
MODEL 10
REMARK VINA RESULT:      -7.2     16.711     19.381
REMARK  Name = 
REMARK  5 active torsions:
REMARK  status: ('A' for Active; 'I' for Inactive)
REMARK    1  A    between atoms: O_2  and  C_3
REMARK    2  A    between atoms: C_3  and  C_4
REMARK    3  A    between atoms: C_4  and  N_5
REMARK    4  A    between atoms: N_9  and  S_15
REMARK    5  A    between atoms: S_15  and  C_18
REMARK                            x       y       z     vdW  Elec       q    Type
REMARK                         _______ _______ _______ _____ _____    ______ ____
ROOT
ATOM      5  N   UNL     1      11.793   7.994  20.196  0.00  0.00    -0.260 N 
ATOM      6  C   UNL     1      12.482   7.727  20.563  0.00  0.00    +0.116 C 
ATOM      7  C   UNL     1      13.051   7.604  19.978  0.00  0.00    +0.114 C 
ATOM      8  C   UNL     1      13.833   7.343  20.014  0.00  0.00    +0.117 C 
ATOM      9  N   UNL     1      14.277   7.273  19.323  0.00  0.00    -0.152 NA
ATOM     10  C   UNL     1      13.939   7.465  18.595  0.00  0.00    +0.117 C 
ATOM     11  C   UNL     1      13.158   7.726  18.558  0.00  0.00    +0.114 C 
ATOM     12  N   UNL     1      12.713   7.796  19.250  0.00  0.00    -0.261 N 
ATOM     13  C   UNL     1      11.937   8.037  19.385  0.00  0.00    +0.307 C 
ATOM     14  O   UNL     1      11.397   8.279  18.809  0.00  0.00    -0.252 OA
ENDROOT
BRANCH   9  15
ATOM     15  S   UNL     1      15.059   7.011  19.358  0.00  0.00    +0.063 S 
ATOM     16  O   UNL     1      14.813   6.249  19.164  0.00  0.00    -0.153 OA
ATOM     17  O   UNL     1      15.304   7.775  19.553  0.00  0.00    -0.153 OA
BRANCH  15  18
ATOM     18  C   UNL     1      15.840   6.751  19.394  0.00  0.00    +0.122 A 
ATOM     19  C   UNL     1      16.107   6.169  18.873  0.00  0.00    +0.020 A 
ATOM     20  C   UNL     1      16.889   5.910  18.910  0.00  0.00    +0.001 A 
ATOM     21  C   UNL     1      17.405   6.231  19.467  0.00  0.00    +0.000 A 
ATOM     22  C   UNL     1      17.139   6.813  19.988  0.00  0.00    +0.001 A 
ATOM     23  C   UNL     1      16.357   7.073  19.952  0.00  0.00    +0.020 A 
ENDBRANCH  15  18
ENDBRANCH   9  15
BRANCH   5   4
ATOM      4  C   UNL     1      11.086   8.186  20.574  0.00  0.00    +0.127 C 
BRANCH   4   3
ATOM      3  C   UNL     1      10.983   8.007  21.373  0.00  0.00    +0.164 C 
BRANCH   3   2
ATOM      1  C   UNL     1      10.217   8.105  22.575  0.00  0.00    +0.174 C 
ATOM      2  O   UNL     1      10.315   8.279  21.774  0.00  0.00    -0.349 OA
ENDBRANCH   3   2
ENDBRANCH   4   3
ENDBRANCH   5   4
TORSDOF 5
ENDMDL
