MODEL 1
REMARK VINA RESULT:     -13.2      0.000      0.000
REMARK  Name = 
REMARK  6 active torsions:
REMARK  status: ('A' for Active; 'I' for Inactive)
REMARK    1  A    between atoms: S_2  and  C_5
REMARK    2  A    between atoms: C_8  and  C_9
REMARK    3  A    between atoms: C_9  and  N_10
REMARK    4  A    between atoms: C_15  and  C_16
REMARK    5  A    between atoms: C_18  and  C_19
REMARK    6  A    between atoms: C_19  and  C_20
REMARK                            x       y       z     vdW  Elec       q    Type
REMARK                         _______ _______ _______ _____ _____    ______ ____
ROOT
ATOM     10  N   UNL     1      -4.663   1.559  24.764  0.00  0.00    -0.260 NA
ATOM     11  C   UNL     1      -5.383   1.187  24.919  0.00  0.00    +0.106 C 
ATOM     12  C   UNL     1      -5.923   1.765  25.153  0.00  0.00    +0.170 C 
ATOM     13  O   UNL     1      -6.711   1.636  25.361  0.00  0.00    -0.222 OA
ATOM     14  C   UNL     1      -5.537   2.494  25.144  0.00  0.00    +0.060 C 
ATOM     15  C   UNL     1      -4.758   2.367  24.903  0.00  0.00    +0.140 C 
ENDROOT
BRANCH  15  16
ATOM     16  C   UNL     1      -4.176   2.946  24.817  0.00  0.00    +0.251 A 
ATOM     17  N   UNL     1      -3.669   3.215  25.409  0.00  0.00    -0.193 NA
ATOM     18  C   UNL     1      -3.179   3.793  25.081  0.00  0.00    +0.185 A 
ATOM     28  N   UNL     1      -3.384   3.880  24.287  0.00  0.00    -0.060 NA
ATOM     29  O   UNL     1      -4.000   3.357  24.123  0.00  0.00    -0.336 OA
BRANCH  18  19
ATOM     19  C   UNL     1      -2.589   4.210  25.479  0.00  0.00    +0.096 C 
BRANCH  19  20
ATOM     20  C   UNL     1      -1.820   3.911  25.507  0.00  0.00    -0.004 A 
ATOM     21  C   UNL     1      -1.685   3.144  25.777  0.00  0.00    -0.001 A 
ATOM     22  C   UNL     1      -0.916   2.846  25.804  0.00  0.00    +0.029 A 
ATOM     23  C   UNL     1      -0.282   3.315  25.562  0.00  0.00    +0.141 A 
ATOM     24  F   UNL     1       0.486   3.017  25.590  0.00  0.00    -0.204 F 
ATOM     25  C   UNL     1      -0.418   4.083  25.292  0.00  0.00    +0.041 A 
ATOM     26  C   UNL     1      -1.186   4.381  25.264  0.00  0.00    +0.056 A 
ATOM     27 CL   UNL     1      -1.322   5.149  24.994  0.00  0.00    -0.082 Cl
ENDBRANCH  19  20
ENDBRANCH  18  19
ENDBRANCH  15  16
BRANCH  10   9
ATOM      9  C   UNL     1      -3.969   1.189  24.515  0.00  0.00    +0.100 C 
BRANCH   9   8
ATOM      5  C   UNL     1      -3.795  -1.280  24.578  0.00  0.00    +0.106 A 
ATOM      6  C   UNL     1      -3.636  -0.837  25.257  0.00  0.00    +0.018 A 
ATOM      7  C   UNL     1      -3.695  -0.014  25.235  0.00  0.00    -0.002 A 
ATOM      8  C   UNL     1      -3.911   0.366  24.537  0.00  0.00    -0.006 A 
ATOM     30  C   UNL     1      -4.069  -0.077  23.858  0.00  0.00    -0.002 A 
ATOM     31  C   UNL     1      -4.011  -0.899  23.879  0.00  0.00    +0.018 A 
BRANCH   5   2
ATOM      1  C   UNL     1      -3.678  -2.925  24.622  0.00  0.00    +0.182 C 
ATOM      2  S   UNL     1      -3.736  -2.102  24.600  0.00  0.00    +0.010 S 
ATOM      3  O   UNL     1      -4.116  -2.148  23.868  0.00  0.00    -0.169 OA
ATOM      4  O   UNL     1      -3.357  -2.056  25.331  0.00  0.00    -0.169 OA
ENDBRANCH   5   2
ENDBRANCH   9   8
ENDBRANCH  10   9
TORSDOF 6
ENDMDL
MODEL 2
REMARK VINA RESULT:     -12.4      2.669      5.025
REMARK  Name = 
REMARK  6 active torsions:
REMARK  status: ('A' for Active; 'I' for Inactive)
REMARK    1  A    between atoms: S_2  and  C_5
REMARK    2  A    between atoms: C_8  and  C_9
REMARK    3  A    between atoms: C_9  and  N_10
REMARK    4  A    between atoms: C_15  and  C_16
REMARK    5  A    between atoms: C_18  and  C_19
REMARK    6  A    between atoms: C_19  and  C_20
REMARK                            x       y       z     vdW  Elec       q    Type
REMARK                         _______ _______ _______ _____ _____    ______ ____
ROOT
ATOM     10  N   UNL     1      -4.002   2.098  25.102  0.00  0.00    -0.260 NA
ATOM     11  C   UNL     1      -4.401   2.777  25.351  0.00  0.00    +0.106 C 
ATOM     12  C   UNL     1      -5.206   2.598  25.391  0.00  0.00    +0.170 C 
ATOM     13  O   UNL     1      -5.807   3.117  25.616  0.00  0.00    -0.222 OA
ATOM     14  C   UNL     1      -5.305   1.811  25.165  0.00  0.00    +0.060 C 
ATOM     15  C   UNL     1      -4.560   1.502  24.987  0.00  0.00    +0.140 C 
ENDROOT
BRANCH  15  16
ATOM     16  C   UNL     1      -4.402   0.731  24.737  0.00  0.00    +0.251 A 
ATOM     17  N   UNL     1      -4.271   0.081  25.227  0.00  0.00    -0.193 NA
ATOM     18  C   UNL     1      -4.135  -0.577  24.746  0.00  0.00    +0.185 A 
ATOM     28  N   UNL     1      -4.182  -0.331  23.960  0.00  0.00    -0.060 NA
ATOM     29  O   UNL     1      -4.347   0.477  23.954  0.00  0.00    -0.336 OA
BRANCH  18  19
ATOM     19  C   UNL     1      -3.979  -1.343  25.007  0.00  0.00    +0.096 C 
BRANCH  19  20
ATOM     20  C   UNL     1      -3.226  -1.667  24.911  0.00  0.00    -0.004 A 
ATOM     21  C   UNL     1      -2.560  -1.237  25.138  0.00  0.00    -0.001 A 
ATOM     22  C   UNL     1      -1.807  -1.561  25.042  0.00  0.00    +0.029 A 
ATOM     23  C   UNL     1      -1.721  -2.316  24.719  0.00  0.00    +0.141 A 
ATOM     24  F   UNL     1      -0.969  -2.640  24.623  0.00  0.00    -0.204 F 
ATOM     25  C   UNL     1      -2.388  -2.746  24.491  0.00  0.00    +0.041 A 
ATOM     26  C   UNL     1      -3.140  -2.421  24.587  0.00  0.00    +0.056 A 
ATOM     27 CL   UNL     1      -3.807  -2.852  24.360  0.00  0.00    -0.082 Cl
ENDBRANCH  19  20
ENDBRANCH  18  19
ENDBRANCH  15  16
BRANCH  10   9
ATOM      9  C   UNL     1      -3.188   2.030  24.987  0.00  0.00    +0.100 C 
BRANCH   9   8
ATOM      5  C   UNL     1      -1.762   4.053  25.011  0.00  0.00    +0.106 A 
ATOM      6  C   UNL     1      -2.141   3.823  24.314  0.00  0.00    +0.018 A 
ATOM      7  C   UNL     1      -2.616   3.149  24.307  0.00  0.00    -0.002 A 
ATOM      8  C   UNL     1      -2.713   2.704  24.994  0.00  0.00    -0.006 A 
ATOM     30  C   UNL     1      -2.334   2.934  25.691  0.00  0.00    -0.002 A 
ATOM     31  C   UNL     1      -1.859   3.608  25.699  0.00  0.00    +0.018 A 
BRANCH   5   2
ATOM      1  C   UNL     1      -0.811   5.401  25.026  0.00  0.00    +0.182 C 
ATOM      2  S   UNL     1      -1.287   4.727  25.018  0.00  0.00    +0.010 S 
ATOM      3  O   UNL     1      -1.900   5.155  25.368  0.00  0.00    -0.169 OA
ATOM      4  O   UNL     1      -0.674   4.298  24.669  0.00  0.00    -0.169 OA
ENDBRANCH   5   2
ENDBRANCH   9   8
ENDBRANCH  10   9
TORSDOF 6
ENDMDL
MODEL 3
REMARK VINA RESULT:     -12.3      3.283      5.947
REMARK  Name = 
REMARK  6 active torsions:
REMARK  status: ('A' for Active; 'I' for Inactive)
REMARK    1  A    between atoms: S_2  and  C_5
REMARK    2  A    between atoms: C_8  and  C_9
REMARK    3  A    between atoms: C_9  and  N_10
REMARK    4  A    between atoms: C_15  and  C_16
REMARK    5  A    between atoms: C_18  and  C_19
REMARK    6  A    between atoms: C_19  and  C_20
REMARK                            x       y       z     vdW  Elec       q    Type
REMARK                         _______ _______ _______ _____ _____    ______ ____
ROOT
ATOM     10  N   UNL     1      -0.588   1.095  24.948  0.00  0.00    -0.260 NA
ATOM     11  C   UNL     1      -0.007   1.349  24.420  0.00  0.00    +0.106 C 
ATOM     12  C   UNL     1       0.197   0.711  23.938  0.00  0.00    +0.170 C 
ATOM     13  O   UNL     1       0.757   0.720  23.333  0.00  0.00    -0.222 OA
ATOM     14  C   UNL     1      -0.258   0.062  24.169  0.00  0.00    +0.060 C 
ATOM     15  C   UNL     1      -0.743   0.300  24.793  0.00  0.00    +0.140 C 
ENDROOT
BRANCH  15  16
ATOM     16  C   UNL     1      -1.287  -0.175  25.192  0.00  0.00    +0.251 A 
ATOM     17  N   UNL     1      -2.094  -0.229  25.030  0.00  0.00    -0.193 NA
ATOM     18  C   UNL     1      -2.426  -0.766  25.561  0.00  0.00    +0.185 A 
ATOM     28  N   UNL     1      -1.823  -1.045  26.051  0.00  0.00    -0.060 NA
ATOM     29  O   UNL     1      -1.119  -0.680  25.823  0.00  0.00    -0.336 OA
BRANCH  18  19
ATOM     19  C   UNL     1      -3.220  -0.986  25.596  0.00  0.00    +0.096 C 
BRANCH  19  20
ATOM     20  C   UNL     1      -3.531  -1.501  25.030  0.00  0.00    -0.004 A 
ATOM     21  C   UNL     1      -3.238  -2.269  24.965  0.00  0.00    -0.001 A 
ATOM     22  C   UNL     1      -3.549  -2.782  24.399  0.00  0.00    +0.029 A 
ATOM     23  C   UNL     1      -4.153  -2.528  23.898  0.00  0.00    +0.141 A 
ATOM     24  F   UNL     1      -4.465  -3.041  23.333  0.00  0.00    -0.204 F 
ATOM     25  C   UNL     1      -4.446  -1.759  23.964  0.00  0.00    +0.041 A 
ATOM     26  C   UNL     1      -4.135  -1.245  24.529  0.00  0.00    +0.056 A 
ATOM     27 CL   UNL     1      -4.428  -0.476  24.594  0.00  0.00    -0.082 Cl
ENDBRANCH  19  20
ENDBRANCH  18  19
ENDBRANCH  15  16
BRANCH  10   9
ATOM      9  C   UNL     1      -0.950   1.555  25.529  0.00  0.00    +0.100 C 
BRANCH   9   8
ATOM      5  C   UNL     1      -1.189   3.997  25.200  0.00  0.00    +0.106 A 
ATOM      6  C   UNL     1      -1.764   3.482  24.906  0.00  0.00    +0.018 A 
ATOM      7  C   UNL     1      -1.684   2.669  25.016  0.00  0.00    -0.002 A 
ATOM      8  C   UNL     1      -1.030   2.369  25.419  0.00  0.00    -0.006 A 
ATOM     30  C   UNL     1      -0.455   2.884  25.713  0.00  0.00    -0.002 A 
ATOM     31  C   UNL     1      -0.535   3.697  25.604  0.00  0.00    +0.018 A 
BRANCH   5   2
ATOM      1  C   UNL     1      -1.348   5.624  24.980  0.00  0.00    +0.182 C 
ATOM      2  S   UNL     1      -1.269   4.810  25.091  0.00  0.00    +0.010 S 
ATOM      3  O   UNL     1      -1.970   4.800  25.526  0.00  0.00    -0.169 OA
ATOM      4  O   UNL     1      -0.567   4.820  24.656  0.00  0.00    -0.169 OA
ENDBRANCH   5   2
ENDBRANCH   9   8
ENDBRANCH  10   9
TORSDOF 6
ENDMDL
MODEL 4
REMARK VINA RESULT:     -12.2      2.505      3.526
REMARK  Name = 
REMARK  6 active torsions:
REMARK  status: ('A' for Active; 'I' for Inactive)
REMARK    1  A    between atoms: S_2  and  C_5
REMARK    2  A    between atoms: C_8  and  C_9
REMARK    3  A    between atoms: C_9  and  N_10
REMARK    4  A    between atoms: C_15  and  C_16
REMARK    5  A    between atoms: C_18  and  C_19
REMARK    6  A    between atoms: C_19  and  C_20
REMARK                            x       y       z     vdW  Elec       q    Type
REMARK                         _______ _______ _______ _____ _____    ______ ____
ROOT
ATOM     10  N   UNL     1      -0.389   0.353  24.442  0.00  0.00    -0.260 NA
ATOM     11  C   UNL     1      -0.135  -0.208  23.892  0.00  0.00    +0.106 C 
ATOM     12  C   UNL     1       0.443   0.143  23.418  0.00  0.00    +0.170 C 
ATOM     13  O   UNL     1       0.846  -0.220  22.797  0.00  0.00    -0.222 OA
ATOM     14  C   UNL     1       0.545   0.921  23.674  0.00  0.00    +0.060 C 
ATOM     15  C   UNL     1       0.031   1.050  24.307  0.00  0.00    +0.140 C 
ENDROOT
BRANCH  15  16
ATOM     16  C   UNL     1      -0.050   1.754  24.731  0.00  0.00    +0.251 A 
ATOM     17  N   UNL     1      -0.422   2.440  24.465  0.00  0.00    -0.193 NA
ATOM     18  C   UNL     1      -0.374   3.006  25.064  0.00  0.00    +0.185 A 
ATOM     28  N   UNL     1       0.028   2.668  25.701  0.00  0.00    -0.060 NA
ATOM     29  O   UNL     1       0.229   1.895  25.495  0.00  0.00    -0.336 OA
BRANCH  18  19
ATOM     19  C   UNL     1      -0.675   3.773  25.032  0.00  0.00    +0.096 C 
BRANCH  19  20
ATOM     20  C   UNL     1      -1.421   3.937  25.345  0.00  0.00    -0.004 A 
ATOM     21  C   UNL     1      -1.876   3.330  25.669  0.00  0.00    -0.001 A 
ATOM     22  C   UNL     1      -2.621   3.494  25.981  0.00  0.00    +0.029 A 
ATOM     23  C   UNL     1      -2.912   4.266  25.970  0.00  0.00    +0.141 A 
ATOM     24  F   UNL     1      -3.657   4.431  26.283  0.00  0.00    -0.204 F 
ATOM     25  C   UNL     1      -2.456   4.874  25.647  0.00  0.00    +0.041 A 
ATOM     26  C   UNL     1      -1.711   4.709  25.334  0.00  0.00    +0.056 A 
ATOM     27 CL   UNL     1      -1.256   5.317  25.011  0.00  0.00    -0.082 Cl
ENDBRANCH  19  20
ENDBRANCH  18  19
ENDBRANCH  15  16
BRANCH  10   9
ATOM      9  C   UNL     1      -0.962   0.237  25.024  0.00  0.00    +0.100 C 
BRANCH   9   8
ATOM      5  C   UNL     1      -2.577  -1.628  24.812  0.00  0.00    +0.106 A 
ATOM      6  C   UNL     1      -1.845  -1.754  25.175  0.00  0.00    +0.018 A 
ATOM      7  C   UNL     1      -1.308  -1.132  25.245  0.00  0.00    -0.002 A 
ATOM      8  C   UNL     1      -1.500  -0.385  24.954  0.00  0.00    -0.006 A 
ATOM     30  C   UNL     1      -2.231  -0.259  24.591  0.00  0.00    -0.002 A 
ATOM     31  C   UNL     1      -2.769  -0.881  24.521  0.00  0.00    +0.018 A 
BRANCH   5   2
ATOM      1  C   UNL     1      -3.652  -2.871  24.672  0.00  0.00    +0.182 C 
ATOM      2  S   UNL     1      -3.114  -2.249  24.742  0.00  0.00    +0.010 S 
ATOM      3  O   UNL     1      -2.625  -2.608  24.182  0.00  0.00    -0.169 OA
ATOM      4  O   UNL     1      -3.602  -1.890  25.302  0.00  0.00    -0.169 OA
ENDBRANCH   5   2
ENDBRANCH   9   8
ENDBRANCH  10   9
TORSDOF 6
ENDMDL
MODEL 5
REMARK VINA RESULT:     -11.7      2.457      3.864
REMARK  Name = 
REMARK  6 active torsions:
REMARK  status: ('A' for Active; 'I' for Inactive)
REMARK    1  A    between atoms: S_2  and  C_5
REMARK    2  A    between atoms: C_8  and  C_9
REMARK    3  A    between atoms: C_9  and  N_10
REMARK    4  A    between atoms: C_15  and  C_16
REMARK    5  A    between atoms: C_18  and  C_19
REMARK    6  A    between atoms: C_19  and  C_20
REMARK                            x       y       z     vdW  Elec       q    Type
REMARK                         _______ _______ _______ _____ _____    ______ ____
ROOT
ATOM     10  N   UNL     1      -0.963   2.042  25.168  0.00  0.00    -0.260 NA
ATOM     11  C   UNL     1      -0.249   1.890  25.553  0.00  0.00    +0.106 C 
ATOM     12  C   UNL     1      -0.074   2.539  26.032  0.00  0.00    +0.170 C 
ATOM     13  O   UNL     1       0.590   2.620  26.514  0.00  0.00    -0.222 OA
ATOM     14  C   UNL     1      -0.680   3.091  25.944  0.00  0.00    +0.060 C 
ATOM     15  C   UNL     1      -1.230   2.784  25.410  0.00  0.00    +0.140 C 
ENDROOT
BRANCH  15  16
ATOM     16  C   UNL     1      -1.924   3.154  25.162  0.00  0.00    +0.251 A 
ATOM     17  N   UNL     1      -2.644   3.153  25.564  0.00  0.00    -0.193 NA
ATOM     18  C   UNL     1      -3.186   3.589  25.119  0.00  0.00    +0.185 A 
ATOM     28  N   UNL     1      -2.799   3.859  24.441  0.00  0.00    -0.060 NA
ATOM     29  O   UNL     1      -2.020   3.591  24.468  0.00  0.00    -0.336 OA
BRANCH  18  19
ATOM     19  C   UNL     1      -3.974   3.730  25.316  0.00  0.00    +0.096 C 
BRANCH  19  20
ATOM     20  C   UNL     1      -4.546   3.153  25.167  0.00  0.00    -0.004 A 
ATOM     21  C   UNL     1      -4.514   2.709  24.474  0.00  0.00    -0.001 A 
ATOM     22  C   UNL     1      -5.086   2.133  24.326  0.00  0.00    +0.029 A 
ATOM     23  C   UNL     1      -5.690   2.002  24.872  0.00  0.00    +0.141 A 
ATOM     24  F   UNL     1      -6.262   1.426  24.724  0.00  0.00    -0.204 F 
ATOM     25  C   UNL     1      -5.722   2.447  25.566  0.00  0.00    +0.041 A 
ATOM     26  C   UNL     1      -5.150   3.023  25.714  0.00  0.00    +0.056 A 
ATOM     27 CL   UNL     1      -5.182   3.468  26.408  0.00  0.00    -0.082 Cl
ENDBRANCH  19  20
ENDBRANCH  18  19
ENDBRANCH  15  16
BRANCH  10   9
ATOM      9  C   UNL     1      -1.344   1.540  24.636  0.00  0.00    +0.100 C 
BRANCH   9   8
ATOM      5  C   UNL     1      -1.093  -0.914  24.856  0.00  0.00    +0.106 A 
ATOM      6  C   UNL     1      -0.595  -0.491  24.350  0.00  0.00    +0.018 A 
ATOM      7  C   UNL     1      -0.679   0.326  24.278  0.00  0.00    -0.002 A 
ATOM      8  C   UNL     1      -1.260   0.722  24.709  0.00  0.00    -0.006 A 
ATOM     30  C   UNL     1      -1.758   0.299  25.215  0.00  0.00    -0.002 A 
ATOM     31  C   UNL     1      -1.674  -0.517  25.288  0.00  0.00    +0.018 A 
BRANCH   5   2
ATOM      1  C   UNL     1      -0.926  -2.548  25.002  0.00  0.00    +0.182 C 
ATOM      2  S   UNL     1      -1.009  -1.730  24.929  0.00  0.00    +0.010 S 
ATOM      3  O   UNL     1      -0.380  -1.619  25.452  0.00  0.00    -0.169 OA
ATOM      4  O   UNL     1      -1.638  -1.841  24.407  0.00  0.00    -0.169 OA
ENDBRANCH   5   2
ENDBRANCH   9   8
ENDBRANCH  10   9
TORSDOF 6
ENDMDL
MODEL 6
REMARK VINA RESULT:     -11.5      2.992      5.283
REMARK  Name = 
REMARK  6 active torsions:
REMARK  status: ('A' for Active; 'I' for Inactive)
REMARK    1  A    between atoms: S_2  and  C_5
REMARK    2  A    between atoms: C_8  and  C_9
REMARK    3  A    between atoms: C_9  and  N_10
REMARK    4  A    between atoms: C_15  and  C_16
REMARK    5  A    between atoms: C_18  and  C_19
REMARK    6  A    between atoms: C_19  and  C_20
REMARK                            x       y       z     vdW  Elec       q    Type
REMARK                         _______ _______ _______ _____ _____    ______ ____
ROOT
ATOM     10  N   UNL     1      -1.556   1.992  24.980  0.00  0.00    -0.260 NA
ATOM     11  C   UNL     1      -1.332   2.693  25.354  0.00  0.00    +0.106 C 
ATOM     12  C   UNL     1      -0.617   2.556  25.744  0.00  0.00    +0.170 C 
ATOM     13  O   UNL     1      -0.195   3.107  26.189  0.00  0.00    -0.222 OA
ATOM     14  C   UNL     1      -0.400   1.772  25.610  0.00  0.00    +0.060 C 
ATOM     15  C   UNL     1      -0.980   1.423  25.137  0.00  0.00    +0.140 C 
ENDROOT
BRANCH  15  16
ATOM     16  C   UNL     1      -0.983   0.643  24.869  0.00  0.00    +0.251 A 
ATOM     17  N   UNL     1      -1.198  -0.020  25.311  0.00  0.00    -0.193 NA
ATOM     18  C   UNL     1      -1.120  -0.685  24.828  0.00  0.00    +0.185 A 
ATOM     28  N   UNL     1      -0.856  -0.432  24.087  0.00  0.00    -0.060 NA
ATOM     29  O   UNL     1      -0.772   0.388  24.113  0.00  0.00    -0.336 OA
BRANCH  18  19
ATOM     19  C   UNL     1      -1.277  -1.464  25.046  0.00  0.00    +0.096 C 
BRANCH  19  20
ATOM     20  C   UNL     1      -2.020  -1.792  24.899  0.00  0.00    -0.004 A 
ATOM     21  C   UNL     1      -2.697  -1.432  25.203  0.00  0.00    -0.001 A 
ATOM     22  C   UNL     1      -3.440  -1.760  25.056  0.00  0.00    +0.029 A 
ATOM     23  C   UNL     1      -3.505  -2.449  24.606  0.00  0.00    +0.141 A 
ATOM     24  F   UNL     1      -4.248  -2.777  24.459  0.00  0.00    -0.204 F 
ATOM     25  C   UNL     1      -2.827  -2.809  24.303  0.00  0.00    +0.041 A 
ATOM     26  C   UNL     1      -2.085  -2.481  24.449  0.00  0.00    +0.056 A 
ATOM     27 CL   UNL     1      -1.407  -2.841  24.146  0.00  0.00    -0.082 Cl
ENDBRANCH  19  20
ENDBRANCH  18  19
ENDBRANCH  15  16
BRANCH  10   9
ATOM      9  C   UNL     1      -2.236   1.881  24.527  0.00  0.00    +0.100 C 
BRANCH   9   8
ATOM      5  C   UNL     1      -4.316   3.094  25.102  0.00  0.00    +0.106 A 
ATOM      6  C   UNL     1      -3.780   3.424  24.567  0.00  0.00    +0.018 A 
ATOM      7  C   UNL     1      -3.087   3.019  24.376  0.00  0.00    -0.002 A 
ATOM      8  C   UNL     1      -2.930   2.286  24.718  0.00  0.00    -0.006 A 
ATOM     30  C   UNL     1      -3.466   1.956  25.253  0.00  0.00    -0.002 A 
ATOM     31  C   UNL     1      -4.158   2.360  25.444  0.00  0.00    +0.018 A 
BRANCH   5   2
ATOM      1  C   UNL     1      -5.702   3.903  25.485  0.00  0.00    +0.182 C 
ATOM      2  S   UNL     1      -5.009   3.498  25.293  0.00  0.00    +0.010 S 
ATOM      3  O   UNL     1      -4.561   4.146  25.542  0.00  0.00    -0.169 OA
ATOM      4  O   UNL     1      -5.455   2.850  25.045  0.00  0.00    -0.169 OA
ENDBRANCH   5   2
ENDBRANCH   9   8
ENDBRANCH  10   9
TORSDOF 6
ENDMDL
MODEL 7
REMARK VINA RESULT:     -11.2      2.310      3.319
REMARK  Name = 
REMARK  6 active torsions:
REMARK  status: ('A' for Active; 'I' for Inactive)
REMARK    1  A    between atoms: S_2  and  C_5
REMARK    2  A    between atoms: C_8  and  C_9
REMARK    3  A    between atoms: C_9  and  N_10
REMARK    4  A    between atoms: C_15  and  C_16
REMARK    5  A    between atoms: C_18  and  C_19
REMARK    6  A    between atoms: C_19  and  C_20
REMARK                            x       y       z     vdW  Elec       q    Type
REMARK                         _______ _______ _______ _____ _____    ______ ____
ROOT
ATOM     10  N   UNL     1      -3.321  -0.413  24.693  0.00  0.00    -0.260 NA
ATOM     11  C   UNL     1      -3.241  -1.170  24.375  0.00  0.00    +0.106 C 
ATOM     12  C   UNL     1      -3.981  -1.411  24.100  0.00  0.00    +0.170 C 
ATOM     13  O   UNL     1      -4.153  -2.133  23.740  0.00  0.00    -0.222 OA
ATOM     14  C   UNL     1      -4.518  -0.802  24.248  0.00  0.00    +0.060 C 
ATOM     15  C   UNL     1      -4.110  -0.185  24.614  0.00  0.00    +0.140 C 
ENDROOT
BRANCH  15  16
ATOM     16  C   UNL     1      -4.434   0.533  24.859  0.00  0.00    +0.251 A 
ATOM     17  N   UNL     1      -4.358   1.257  24.471  0.00  0.00    -0.193 NA
ATOM     18  C   UNL     1      -4.768   1.825  24.907  0.00  0.00    +0.185 A 
ATOM     28  N   UNL     1      -5.098   1.451  25.565  0.00  0.00    -0.060 NA
ATOM     29  O   UNL     1      -4.891   0.653  25.535  0.00  0.00    -0.336 OA
BRANCH  18  19
ATOM     19  C   UNL     1      -4.836   2.624  24.718  0.00  0.00    +0.096 C 
BRANCH  19  20
ATOM     20  C   UNL     1      -4.237   3.152  24.930  0.00  0.00    -0.004 A 
ATOM     21  C   UNL     1      -4.042   3.256  25.724  0.00  0.00    -0.001 A 
ATOM     22  C   UNL     1      -3.444   3.783  25.935  0.00  0.00    +0.029 A 
ATOM     23  C   UNL     1      -3.041   4.205  25.353  0.00  0.00    +0.141 A 
ATOM     24  F   UNL     1      -2.442   4.732  25.564  0.00  0.00    -0.204 F 
ATOM     25  C   UNL     1      -3.236   4.101  24.558  0.00  0.00    +0.041 A 
ATOM     26  C   UNL     1      -3.835   3.574  24.346  0.00  0.00    +0.056 A 
ATOM     27 CL   UNL     1      -4.031   3.469  23.552  0.00  0.00    -0.082 Cl
ENDBRANCH  19  20
ENDBRANCH  18  19
ENDBRANCH  15  16
BRANCH  10   9
ATOM      9  C   UNL     1      -2.717   0.038  25.030  0.00  0.00    +0.100 C 
BRANCH   9   8
ATOM      5  C   UNL     1      -0.447  -0.002  24.044  0.00  0.00    +0.106 A 
ATOM      6  C   UNL     1      -0.635  -0.510  24.667  0.00  0.00    +0.018 A 
ATOM      7  C   UNL     1      -1.392  -0.496  24.995  0.00  0.00    -0.002 A 
ATOM      8  C   UNL     1      -1.960   0.024  24.702  0.00  0.00    -0.006 A 
ATOM     30  C   UNL     1      -1.772   0.532  24.078  0.00  0.00    -0.002 A 
ATOM     31  C   UNL     1      -1.016   0.519  23.750  0.00  0.00    +0.018 A 
BRANCH   5   2
ATOM      1  C   UNL     1       1.066  -0.029  23.386  0.00  0.00    +0.182 C 
ATOM      2  S   UNL     1       0.309  -0.015  23.715  0.00  0.00    +0.010 S 
ATOM      3  O   UNL     1       0.377   0.799  23.839  0.00  0.00    -0.169 OA
ATOM      4  O   UNL     1       0.241  -0.828  23.592  0.00  0.00    -0.169 OA
ENDBRANCH   5   2
ENDBRANCH   9   8
ENDBRANCH  10   9
TORSDOF 6
ENDMDL
MODEL 8
REMARK VINA RESULT:      -9.5     17.047     19.052
REMARK  Name = 
REMARK  6 active torsions:
REMARK  status: ('A' for Active; 'I' for Inactive)
REMARK    1  A    between atoms: S_2  and  C_5
REMARK    2  A    between atoms: C_8  and  C_9
REMARK    3  A    between atoms: C_9  and  N_10
REMARK    4  A    between atoms: C_15  and  C_16
REMARK    5  A    between atoms: C_18  and  C_19
REMARK    6  A    between atoms: C_19  and  C_20
REMARK                            x       y       z     vdW  Elec       q    Type
REMARK                         _______ _______ _______ _____ _____    ______ ____
ROOT
ATOM     10  N   UNL     1      12.541   7.710  20.372  0.00  0.00    -0.260 NA
ATOM     11  C   UNL     1      11.739   7.550  20.481  0.00  0.00    +0.106 C 
ATOM     12  C   UNL     1      11.655   7.134  21.189  0.00  0.00    +0.170 C 
ATOM     13  O   UNL     1      10.946   6.862  21.510  0.00  0.00    -0.222 OA
ATOM     14  C   UNL     1      12.406   7.037  21.518  0.00  0.00    +0.060 C 
ATOM     15  C   UNL     1      12.953   7.394  21.013  0.00  0.00    +0.140 C 
ENDROOT
BRANCH  15  16
ATOM     16  C   UNL     1      13.770   7.428  21.129  0.00  0.00    +0.251 A 
ATOM     17  N   UNL     1      14.292   6.790  21.088  0.00  0.00    -0.193 NA
ATOM     18  C   UNL     1      15.052   7.074  21.240  0.00  0.00    +0.185 A 
ATOM     28  N   UNL     1      14.999   7.886  21.375  0.00  0.00    -0.060 NA
ATOM     29  O   UNL     1      14.207   8.105  21.306  0.00  0.00    -0.336 OA
BRANCH  18  19
ATOM     19  C   UNL     1      15.743   6.624  21.254  0.00  0.00    +0.096 C 
BRANCH  19  20
ATOM     20  C   UNL     1      16.158   6.482  20.555  0.00  0.00    -0.004 A 
ATOM     21  C   UNL     1      15.749   6.357  19.850  0.00  0.00    -0.001 A 
ATOM     22  C   UNL     1      16.165   6.215  19.152  0.00  0.00    +0.029 A 
ATOM     23  C   UNL     1      16.989   6.199  19.159  0.00  0.00    +0.141 A 
ATOM     24  F   UNL     1      17.405   6.057  18.460  0.00  0.00    -0.204 F 
ATOM     25  C   UNL     1      17.399   6.324  19.864  0.00  0.00    +0.041 A 
ATOM     26  C   UNL     1      16.983   6.465  20.563  0.00  0.00    +0.056 A 
ATOM     27 CL   UNL     1      17.392   6.590  21.268  0.00  0.00    -0.082 Cl
ENDBRANCH  19  20
ENDBRANCH  18  19
ENDBRANCH  15  16
BRANCH  10   9
ATOM      9  C   UNL     1      12.873   8.116  19.735  0.00  0.00    +0.100 C 
BRANCH   9   8
ATOM      5  C   UNL     1      11.566   8.432  17.656  0.00  0.00    +0.106 A 
ATOM      6  C   UNL     1      12.039   7.762  17.748  0.00  0.00    +0.018 A 
ATOM      7  C   UNL     1      12.475   7.657  18.442  0.00  0.00    -0.002 A 
ATOM      8  C   UNL     1      12.437   8.221  19.042  0.00  0.00    -0.006 A 
ATOM     30  C   UNL     1      11.964   8.891  18.950  0.00  0.00    -0.002 A 
ATOM     31  C   UNL     1      11.528   8.996  18.258  0.00  0.00    +0.018 A 
BRANCH   5   2
ATOM      1  C   UNL     1      10.695   8.643  16.271  0.00  0.00    +0.182 C 
ATOM      2  S   UNL     1      11.131   8.537  16.964  0.00  0.00    +0.010 S 
ATOM      3  O   UNL     1      10.434   8.376  17.378  0.00  0.00    -0.169 OA
ATOM      4  O   UNL     1      11.827   8.698  16.552  0.00  0.00    -0.169 OA
ENDBRANCH   5   2
ENDBRANCH   9   8
ENDBRANCH  10   9
TORSDOF 6
ENDMDL
