MODEL 1
REMARK VINA RESULT:     -10.0      0.000      0.000
REMARK  Name = 
REMARK  6 active torsions:
REMARK  status: ('A' for Active; 'I' for Inactive)
REMARK    1  A    between atoms: N_2  and  C_4
REMARK    2  A    between atoms: C_4  and  C_5
REMARK    3  A    between atoms: C_5  and  N_6
REMARK    4  A    between atoms: N_6  and  C_8
REMARK    5  A    between atoms: C_21  and  C_22
REMARK    6  A    between atoms: C_22  and  C_23
REMARK                            x       y       z     vdW  Elec       q    Type
REMARK                         _______ _______ _______ _____ _____    ______ ____
ROOT
ATOM      8  C   UNL     1      -0.519   0.270  24.020  0.00  0.00    +0.048 A 
ATOM      9  C   UNL     1      -0.408   1.044  24.282  0.00  0.00    +0.015 A 
ATOM     10  C   UNL     1      -1.060   1.508  24.487  0.00  0.00    +0.030 A 
ATOM     11  C   UNL     1      -1.822   1.196  24.430  0.00  0.00    +0.136 A 
ATOM     12  O   UNL     1      -2.283   0.472  24.210  0.00  0.00    -0.476 OA
ATOM     13  C   UNL     1      -3.093   0.593  24.307  0.00  0.00    +0.205 C 
ATOM     14  C   UNL     1      -3.205   1.363  24.582  0.00  0.00    +0.047 C 
ATOM     15  C   UNL     1      -3.866   1.928  24.823  0.00  0.00    +0.006 C 
ATOM     16  C   UNL     1      -3.720   2.698  25.081  0.00  0.00    +0.021 C 
ATOM     17  C   UNL     1      -2.945   2.978  25.126  0.00  0.00    +0.093 C 
ATOM     18  N   UNL     1      -2.799   3.748  25.383  0.00  0.00    -0.278 N 
ATOM     19  C   UNL     1      -3.428   4.238  25.597  0.00  0.00    +0.093 C 
ATOM     20  C   UNL     1      -4.202   3.957  25.551  0.00  0.00    +0.022 C 
ATOM     21  C   UNL     1      -4.348   3.187  25.294  0.00  0.00    +0.015 C 
ATOM     26  C   UNL     1      -2.025   4.027  25.428  0.00  0.00    +0.243 C 
ATOM     27  O   UNL     1      -1.879   4.797  25.686  0.00  0.00    -0.273 OA
ATOM     28  C   UNL     1      -1.396   3.537  25.215  0.00  0.00    +0.174 C 
ATOM     29  N   UNL     1      -1.542   2.767  24.957  0.00  0.00    -0.204 NA
ATOM     30  C   UNL     1      -0.914   2.278  24.745  0.00  0.00    +0.119 C 
ATOM     31  C   UNL     1      -1.932   0.422  24.168  0.00  0.00    +0.038 A 
ATOM     32  C   UNL     1      -1.281  -0.041  23.963  0.00  0.00    +0.018 A 
ENDROOT
BRANCH   8   6
ATOM      6  N   UNL     1       0.132  -0.194  23.815  0.00  0.00    -0.304 N 
ATOM      7  C   UNL     1       0.268  -0.909  24.202  0.00  0.00    +0.112 C 
BRANCH   6   5
ATOM      5  C   UNL     1       0.647   0.060  23.222  0.00  0.00    +0.108 C 
BRANCH   5   4
ATOM      4  C   UNL     1       1.304  -0.399  23.023  0.00  0.00    +0.094 C 
BRANCH   4   2
ATOM      1  C   UNL     1       2.509   0.252  22.618  0.00  0.00    +0.090 C 
ATOM      2  N   UNL     1       1.815  -0.150  22.425  0.00  0.00    -0.269 NA
ATOM      3  C   UNL     1       1.632  -0.303  21.635  0.00  0.00    +0.090 C 
ENDBRANCH   4   2
ENDBRANCH   5   4
ENDBRANCH   6   5
ENDBRANCH   8   6
BRANCH  21  22
ATOM     22  C   UNL     1      -5.124   2.907  25.249  0.00  0.00    +0.114 C 
BRANCH  22  23
ATOM     23  C   UNL     1      -5.694   3.184  25.778  0.00  0.00    +0.365 C 
ATOM     24  O   UNL     1      -6.105   3.880  25.614  0.00  0.00    -0.246 OA
ATOM     25  O   UNL     1      -5.852   2.765  26.470  0.00  0.00    -0.246 OA
ENDBRANCH  22  23
ENDBRANCH  21  22
TORSDOF 6
ENDMDL
MODEL 2
REMARK VINA RESULT:      -9.6      2.150      4.925
REMARK  Name = 
REMARK  6 active torsions:
REMARK  status: ('A' for Active; 'I' for Inactive)
REMARK    1  A    between atoms: N_2  and  C_4
REMARK    2  A    between atoms: C_4  and  C_5
REMARK    3  A    between atoms: C_5  and  N_6
REMARK    4  A    between atoms: N_6  and  C_8
REMARK    5  A    between atoms: C_21  and  C_22
REMARK    6  A    between atoms: C_22  and  C_23
REMARK                            x       y       z     vdW  Elec       q    Type
REMARK                         _______ _______ _______ _____ _____    ______ ____
ROOT
ATOM      8  C   UNL     1      -2.754   2.977  25.363  0.00  0.00    +0.048 A 
ATOM      9  C   UNL     1      -2.120   2.451  25.403  0.00  0.00    +0.015 A 
ATOM     10  C   UNL     1      -2.239   1.649  25.244  0.00  0.00    +0.030 A 
ATOM     11  C   UNL     1      -2.992   1.375  25.046  0.00  0.00    +0.136 A 
ATOM     12  O   UNL     1      -3.832   1.626  24.918  0.00  0.00    -0.476 OA
ATOM     13  C   UNL     1      -4.307   0.983  24.714  0.00  0.00    +0.205 C 
ATOM     14  C   UNL     1      -3.832   0.309  24.698  0.00  0.00    +0.047 C 
ATOM     15  C   UNL     1      -3.884  -0.578  24.538  0.00  0.00    +0.006 C 
ATOM     16  C   UNL     1      -3.230  -1.077  24.587  0.00  0.00    +0.021 C 
ATOM     17  C   UNL     1      -2.491  -0.770  24.788  0.00  0.00    +0.093 C 
ATOM     18  N   UNL     1      -1.836  -1.269  24.837  0.00  0.00    -0.278 N 
ATOM     19  C   UNL     1      -1.920  -2.076  24.684  0.00  0.00    +0.093 C 
ATOM     20  C   UNL     1      -2.659  -2.383  24.484  0.00  0.00    +0.022 C 
ATOM     21  C   UNL     1      -3.314  -1.883  24.435  0.00  0.00    +0.015 C 
ATOM     26  C   UNL     1      -1.097  -0.962  25.037  0.00  0.00    +0.243 C 
ATOM     27  O   UNL     1      -0.443  -1.462  25.086  0.00  0.00    -0.273 OA
ATOM     28  C   UNL     1      -1.014  -0.155  25.190  0.00  0.00    +0.174 C 
ATOM     29  N   UNL     1      -1.669   0.344  25.141  0.00  0.00    -0.204 NA
ATOM     30  C   UNL     1      -1.584   1.150  25.293  0.00  0.00    +0.119 C 
ATOM     31  C   UNL     1      -3.625   1.903  25.006  0.00  0.00    +0.038 A 
ATOM     32  C   UNL     1      -3.507   2.703  25.165  0.00  0.00    +0.018 A 
ENDROOT
BRANCH   8   6
ATOM      6  N   UNL     1      -2.635   3.779  25.521  0.00  0.00    -0.304 N 
ATOM      7  C   UNL     1      -3.057   4.147  26.127  0.00  0.00    +0.112 C 
BRANCH   6   5
ATOM      5  C   UNL     1      -2.094   4.211  25.073  0.00  0.00    +0.108 C 
BRANCH   5   4
ATOM      4  C   UNL     1      -1.734   4.881  25.395  0.00  0.00    +0.094 C 
BRANCH   4   2
ATOM      1  C   UNL     1      -1.393   6.077  24.692  0.00  0.00    +0.090 C 
ATOM      2  N   UNL     1      -1.197   5.316  24.945  0.00  0.00    -0.269 NA
ATOM      3  C   UNL     1      -0.465   4.991  24.748  0.00  0.00    +0.090 C 
ENDBRANCH   4   2
ENDBRANCH   5   4
ENDBRANCH   6   5
ENDBRANCH   8   6
BRANCH  21  22
ATOM     22  C   UNL     1      -4.053  -2.191  24.234  0.00  0.00    +0.114 C 
BRANCH  22  23
ATOM     23  C   UNL     1      -4.107  -2.920  23.852  0.00  0.00    +0.365 C 
ATOM     24  O   UNL     1      -3.984  -3.618  24.275  0.00  0.00    -0.246 OA
ATOM     25  O   UNL     1      -4.282  -2.952  23.047  0.00  0.00    -0.246 OA
ENDBRANCH  22  23
ENDBRANCH  21  22
TORSDOF 6
ENDMDL
MODEL 3
REMARK VINA RESULT:      -8.8      1.219      2.223
REMARK  Name = 
REMARK  6 active torsions:
REMARK  status: ('A' for Active; 'I' for Inactive)
REMARK    1  A    between atoms: N_2  and  C_4
REMARK    2  A    between atoms: C_4  and  C_5
REMARK    3  A    between atoms: C_5  and  N_6
REMARK    4  A    between atoms: N_6  and  C_8
REMARK    5  A    between atoms: C_21  and  C_22
REMARK    6  A    between atoms: C_22  and  C_23
REMARK                            x       y       z     vdW  Elec       q    Type
REMARK                         _______ _______ _______ _____ _____    ______ ____
ROOT
ATOM      8  C   UNL     1      -0.344   0.276  23.983  0.00  0.00    +0.048 A 
ATOM      9  C   UNL     1      -1.070  -0.113  24.022  0.00  0.00    +0.015 A 
ATOM     10  C   UNL     1      -1.756   0.310  24.202  0.00  0.00    +0.030 A 
ATOM     11  C   UNL     1      -1.714   1.122  24.343  0.00  0.00    +0.136 A 
ATOM     12  O   UNL     1      -1.159   1.812  24.385  0.00  0.00    -0.476 OA
ATOM     13  C   UNL     1      -1.562   2.507  24.571  0.00  0.00    +0.205 C 
ATOM     14  C   UNL     1      -2.362   2.324  24.658  0.00  0.00    +0.047 C 
ATOM     15  C   UNL     1      -3.151   2.719  24.848  0.00  0.00    +0.006 C 
ATOM     16  C   UNL     1      -3.861   2.299  24.879  0.00  0.00    +0.021 C 
ATOM     17  C   UNL     1      -3.867   1.488  24.733  0.00  0.00    +0.093 C 
ATOM     18  N   UNL     1      -4.576   1.069  24.764  0.00  0.00    -0.278 N 
ATOM     19  C   UNL     1      -5.280   1.461  24.941  0.00  0.00    +0.093 C 
ATOM     20  C   UNL     1      -5.273   2.273  25.087  0.00  0.00    +0.022 C 
ATOM     21  C   UNL     1      -4.564   2.692  25.056  0.00  0.00    +0.015 C 
ATOM     26  C   UNL     1      -4.582   0.257  24.618  0.00  0.00    +0.243 C 
ATOM     27  O   UNL     1      -5.292  -0.162  24.648  0.00  0.00    -0.273 OA
ATOM     28  C   UNL     1      -3.878  -0.136  24.441  0.00  0.00    +0.174 C 
ATOM     29  N   UNL     1      -3.169   0.283  24.410  0.00  0.00    -0.204 NA
ATOM     30  C   UNL     1      -2.466  -0.109  24.233  0.00  0.00    +0.119 C 
ATOM     31  C   UNL     1      -0.987   1.510  24.304  0.00  0.00    +0.038 A 
ATOM     32  C   UNL     1      -0.302   1.088  24.124  0.00  0.00    +0.018 A 
ENDROOT
BRANCH   8   6
ATOM      6  N   UNL     1       0.342  -0.148  23.804  0.00  0.00    -0.304 N 
ATOM      7  C   UNL     1       0.538  -0.820  24.240  0.00  0.00    +0.112 C 
BRANCH   6   5
ATOM      5  C   UNL     1       0.830   0.101  23.187  0.00  0.00    +0.108 C 
BRANCH   5   4
ATOM      4  C   UNL     1       1.538  -0.295  23.036  0.00  0.00    +0.094 C 
BRANCH   4   2
ATOM      1  C   UNL     1       1.790  -0.244  21.630  0.00  0.00    +0.090 C 
ATOM      2  N   UNL     1       2.014  -0.062  22.404  0.00  0.00    -0.269 NA
ATOM      3  C   UNL     1       2.713   0.353  22.544  0.00  0.00    +0.090 C 
ENDBRANCH   4   2
ENDBRANCH   5   4
ENDBRANCH   6   5
ENDBRANCH   8   6
BRANCH  21  22
ATOM     22  C   UNL     1      -4.557   3.505  25.203  0.00  0.00    +0.114 C 
BRANCH  22  23
ATOM     23  C   UNL     1      -5.134   3.841  25.688  0.00  0.00    +0.365 C 
ATOM     24  O   UNL     1      -5.053   3.806  26.509  0.00  0.00    -0.246 OA
ATOM     25  O   UNL     1      -5.790   4.211  25.354  0.00  0.00    -0.246 OA
ENDBRANCH  22  23
ENDBRANCH  21  22
TORSDOF 6
ENDMDL
MODEL 4
REMARK VINA RESULT:      -8.8      2.248      3.746
REMARK  Name = 
REMARK  6 active torsions:
REMARK  status: ('A' for Active; 'I' for Inactive)
REMARK    1  A    between atoms: N_2  and  C_4
REMARK    2  A    between atoms: C_4  and  C_5
REMARK    3  A    between atoms: C_5  and  N_6
REMARK    4  A    between atoms: N_6  and  C_8
REMARK    5  A    between atoms: C_21  and  C_22
REMARK    6  A    between atoms: C_22  and  C_23
REMARK                            x       y       z     vdW  Elec       q    Type
REMARK                         _______ _______ _______ _____ _____    ______ ____
ROOT
ATOM      8  C   UNL     1      -2.898  -0.697  25.355  0.00  0.00    +0.048 A 
ATOM      9  C   UNL     1      -3.480  -0.121  25.257  0.00  0.00    +0.015 A 
ATOM     10  C   UNL     1      -3.269   0.676  25.221  0.00  0.00    +0.030 A 
ATOM     11  C   UNL     1      -2.477   0.896  25.283  0.00  0.00    +0.136 A 
ATOM     12  O   UNL     1      -1.654   0.582  25.385  0.00  0.00    -0.476 OA
ATOM     13  C   UNL     1      -1.101   1.194  25.396  0.00  0.00    +0.205 C 
ATOM     14  C   UNL     1      -1.506   1.907  25.305  0.00  0.00    +0.047 C 
ATOM     15  C   UNL     1      -1.353   2.795  25.257  0.00  0.00    +0.006 C 
ATOM     16  C   UNL     1      -1.959   3.345  25.158  0.00  0.00    +0.021 C 
ATOM     17  C   UNL     1      -2.741   3.091  25.100  0.00  0.00    +0.093 C 
ATOM     18  N   UNL     1      -3.348   3.641  25.001  0.00  0.00    -0.278 N 
ATOM     19  C   UNL     1      -3.172   4.447  24.960  0.00  0.00    +0.093 C 
ATOM     20  C   UNL     1      -2.389   4.700  25.019  0.00  0.00    +0.022 C 
ATOM     21  C   UNL     1      -1.783   4.150  25.118  0.00  0.00    +0.015 C 
ATOM     26  C   UNL     1      -4.130   3.387  24.942  0.00  0.00    +0.243 C 
ATOM     27  O   UNL     1      -4.736   3.937  24.844  0.00  0.00    -0.273 OA
ATOM     28  C   UNL     1      -4.306   2.582  24.983  0.00  0.00    +0.174 C 
ATOM     29  N   UNL     1      -3.699   2.031  25.082  0.00  0.00    -0.204 NA
ATOM     30  C   UNL     1      -3.876   1.227  25.122  0.00  0.00    +0.119 C 
ATOM     31  C   UNL     1      -1.895   0.319  25.381  0.00  0.00    +0.038 A 
ATOM     32  C   UNL     1      -2.105  -0.477  25.417  0.00  0.00    +0.018 A 
ENDROOT
BRANCH   8   6
ATOM      6  N   UNL     1      -3.109  -1.495  25.392  0.00  0.00    -0.304 N 
ATOM      7  C   UNL     1      -3.219  -1.859  26.123  0.00  0.00    +0.112 C 
BRANCH   6   5
ATOM      5  C   UNL     1      -3.210  -1.926  24.696  0.00  0.00    +0.108 C 
BRANCH   5   4
ATOM      4  C   UNL     1      -3.600  -2.654  24.715  0.00  0.00    +0.094 C 
BRANCH   4   2
ATOM      1  C   UNL     1      -3.194  -3.619  23.743  0.00  0.00    +0.090 C 
ATOM      2  N   UNL     1      -3.741  -3.063  24.013  0.00  0.00    -0.269 NA
ATOM      3  C   UNL     1      -4.429  -2.917  23.581  0.00  0.00    +0.090 C 
ENDBRANCH   4   2
ENDBRANCH   5   4
ENDBRANCH   6   5
ENDBRANCH   8   6
BRANCH  21  22
ATOM     22  C   UNL     1      -0.999   4.405  25.176  0.00  0.00    +0.114 C 
BRANCH  22  23
ATOM     23  C   UNL     1      -0.754   5.081  24.771  0.00  0.00    +0.365 C 
ATOM     24  O   UNL     1      -0.332   5.010  24.066  0.00  0.00    -0.246 OA
ATOM     25  O   UNL     1      -0.932   5.828  25.072  0.00  0.00    -0.246 OA
ENDBRANCH  22  23
ENDBRANCH  21  22
TORSDOF 6
ENDMDL
MODEL 5
REMARK VINA RESULT:      -8.1      2.251      3.712
REMARK  Name = 
REMARK  6 active torsions:
REMARK  status: ('A' for Active; 'I' for Inactive)
REMARK    1  A    between atoms: N_2  and  C_4
REMARK    2  A    between atoms: C_4  and  C_5
REMARK    3  A    between atoms: C_5  and  N_6
REMARK    4  A    between atoms: N_6  and  C_8
REMARK    5  A    between atoms: C_21  and  C_22
REMARK    6  A    between atoms: C_22  and  C_23
REMARK                            x       y       z     vdW  Elec       q    Type
REMARK                         _______ _______ _______ _____ _____    ______ ____
ROOT
ATOM      8  C   UNL     1      -3.257  -0.527  25.265  0.00  0.00    +0.048 A 
ATOM      9  C   UNL     1      -2.460  -0.362  25.401  0.00  0.00    +0.015 A 
ATOM     10  C   UNL     1      -2.185   0.415  25.349  0.00  0.00    +0.030 A 
ATOM     11  C   UNL     1      -2.707   1.026  25.162  0.00  0.00    +0.136 A 
ATOM     12  O   UNL     1      -3.552   1.209  24.970  0.00  0.00    -0.476 OA
ATOM     13  C   UNL     1      -3.660   2.016  24.838  0.00  0.00    +0.205 C 
ATOM     14  C   UNL     1      -2.931   2.390  24.931  0.00  0.00    +0.047 C 
ATOM     15  C   UNL     1      -2.558   3.211  24.893  0.00  0.00    +0.006 C 
ATOM     16  C   UNL     1      -1.756   3.341  25.034  0.00  0.00    +0.021 C 
ATOM     17  C   UNL     1      -1.262   2.707  25.218  0.00  0.00    +0.093 C 
ATOM     18  N   UNL     1      -0.459   2.837  25.359  0.00  0.00    -0.278 N 
ATOM     19  C   UNL     1      -0.151   3.602  25.316  0.00  0.00    +0.093 C 
ATOM     20  C   UNL     1      -0.646   4.235  25.131  0.00  0.00    +0.022 C 
ATOM     21  C   UNL     1      -1.449   4.105  24.990  0.00  0.00    +0.015 C 
ATOM     26  C   UNL     1       0.035   2.203  25.544  0.00  0.00    +0.243 C 
ATOM     27  O   UNL     1       0.837   2.334  25.685  0.00  0.00    -0.273 OA
ATOM     28  C   UNL     1      -0.273   1.439  25.587  0.00  0.00    +0.174 C 
ATOM     29  N   UNL     1      -1.075   1.309  25.446  0.00  0.00    -0.204 NA
ATOM     30  C   UNL     1      -1.383   0.545  25.490  0.00  0.00    +0.119 C 
ATOM     31  C   UNL     1      -3.504   0.860  25.027  0.00  0.00    +0.038 A 
ATOM     32  C   UNL     1      -3.779   0.084  25.078  0.00  0.00    +0.018 A 
ENDROOT
BRANCH   8   6
ATOM      6  N   UNL     1      -3.532  -1.303  25.317  0.00  0.00    -0.304 N 
ATOM      7  C   UNL     1      -3.695  -1.635  26.055  0.00  0.00    +0.112 C 
BRANCH   6   5
ATOM      5  C   UNL     1      -3.644  -1.747  24.631  0.00  0.00    +0.108 C 
BRANCH   5   4
ATOM      4  C   UNL     1      -3.710  -2.569  24.677  0.00  0.00    +0.094 C 
BRANCH   4   2
ATOM      1  C   UNL     1      -4.385  -2.923  23.469  0.00  0.00    +0.090 C 
ATOM      2  N   UNL     1      -3.750  -3.019  23.987  0.00  0.00    -0.269 NA
ATOM      3  C   UNL     1      -3.155  -3.564  23.815  0.00  0.00    +0.090 C 
ENDBRANCH   4   2
ENDBRANCH   5   4
ENDBRANCH   6   5
ENDBRANCH   8   6
BRANCH  21  22
ATOM     22  C   UNL     1      -1.944   4.739  24.806  0.00  0.00    +0.114 C 
BRANCH  22  23
ATOM     23  C   UNL     1      -1.771   5.494  25.092  0.00  0.00    +0.365 C 
ATOM     24  O   UNL     1      -1.205   5.960  24.713  0.00  0.00    -0.246 OA
ATOM     25  O   UNL     1      -2.165   5.782  25.757  0.00  0.00    -0.246 OA
ENDBRANCH  22  23
ENDBRANCH  21  22
TORSDOF 6
ENDMDL
MODEL 6
REMARK VINA RESULT:      -8.1      1.701      5.939
REMARK  Name = 
REMARK  6 active torsions:
REMARK  status: ('A' for Active; 'I' for Inactive)
REMARK    1  A    between atoms: N_2  and  C_4
REMARK    2  A    between atoms: C_4  and  C_5
REMARK    3  A    between atoms: C_5  and  N_6
REMARK    4  A    between atoms: N_6  and  C_8
REMARK    5  A    between atoms: C_21  and  C_22
REMARK    6  A    between atoms: C_22  and  C_23
REMARK                            x       y       z     vdW  Elec       q    Type
REMARK                         _______ _______ _______ _____ _____    ______ ____
ROOT
ATOM      8  C   UNL     1      -2.692   3.097  25.353  0.00  0.00    +0.048 A 
ATOM      9  C   UNL     1      -2.737   2.274  25.394  0.00  0.00    +0.015 A 
ATOM     10  C   UNL     1      -2.140   1.811  25.062  0.00  0.00    +0.030 A 
ATOM     11  C   UNL     1      -1.498   2.171  24.689  0.00  0.00    +0.136 A 
ATOM     12  O   UNL     1      -1.145   2.955  24.473  0.00  0.00    -0.476 OA
ATOM     13  C   UNL     1      -0.433   2.860  24.068  0.00  0.00    +0.205 C 
ATOM     14  C   UNL     1      -0.284   2.051  23.999  0.00  0.00    +0.047 C 
ATOM     15  C   UNL     1       0.328   1.481  23.660  0.00  0.00    +0.006 C 
ATOM     16  C   UNL     1       0.252   0.662  23.719  0.00  0.00    +0.021 C 
ATOM     17  C   UNL     1      -0.403   0.335  24.099  0.00  0.00    +0.093 C 
ATOM     18  N   UNL     1      -0.478  -0.484  24.158  0.00  0.00    -0.278 N 
ATOM     19  C   UNL     1       0.101  -0.977  23.837  0.00  0.00    +0.093 C 
ATOM     20  C   UNL     1       0.755  -0.649  23.457  0.00  0.00    +0.022 C 
ATOM     21  C   UNL     1       0.831   0.170  23.398  0.00  0.00    +0.015 C 
ATOM     26  C   UNL     1      -1.133  -0.811  24.538  0.00  0.00    +0.243 C 
ATOM     27  O   UNL     1      -1.209  -1.631  24.597  0.00  0.00    -0.273 OA
ATOM     28  C   UNL     1      -1.712  -0.319  24.860  0.00  0.00    +0.174 C 
ATOM     29  N   UNL     1      -1.637   0.500  24.800  0.00  0.00    -0.204 NA
ATOM     30  C   UNL     1      -2.215   0.992  25.121  0.00  0.00    +0.119 C 
ATOM     31  C   UNL     1      -1.454   2.994  24.648  0.00  0.00    +0.038 A 
ATOM     32  C   UNL     1      -2.050   3.457  24.979  0.00  0.00    +0.018 A 
ENDROOT
BRANCH   8   6
ATOM      6  N   UNL     1      -3.289   3.560  25.685  0.00  0.00    -0.304 N 
ATOM      7  C   UNL     1      -3.099   4.150  26.230  0.00  0.00    +0.112 C 
BRANCH   6   5
ATOM      5  C   UNL     1      -4.076   3.433  25.471  0.00  0.00    +0.108 C 
BRANCH   5   4
ATOM      4  C   UNL     1      -4.684   3.735  25.940  0.00  0.00    +0.094 C 
BRANCH   4   2
ATOM      1  C   UNL     1      -5.795   2.850  25.784  0.00  0.00    +0.090 C 
ATOM      2  N   UNL     1      -5.471   3.607  25.727  0.00  0.00    -0.269 NA
ATOM      3  C   UNL     1      -5.933   4.235  25.457  0.00  0.00    +0.090 C 
ENDBRANCH   4   2
ENDBRANCH   5   4
ENDBRANCH   6   5
ENDBRANCH   8   6
BRANCH  21  22
ATOM     22  C   UNL     1       1.487   0.498  23.017  0.00  0.00    +0.114 C 
BRANCH  22  23
ATOM     23  C   UNL     1       1.982   0.019  22.563  0.00  0.00    +0.365 C 
ATOM     24  O   UNL     1       1.759  -0.197  21.799  0.00  0.00    -0.246 OA
ATOM     25  O   UNL     1       2.699  -0.244  22.874  0.00  0.00    -0.246 OA
ENDBRANCH  22  23
ENDBRANCH  21  22
TORSDOF 6
ENDMDL
MODEL 7
REMARK VINA RESULT:      -8.0      2.406      4.634
REMARK  Name = 
REMARK  6 active torsions:
REMARK  status: ('A' for Active; 'I' for Inactive)
REMARK    1  A    between atoms: N_2  and  C_4
REMARK    2  A    between atoms: C_4  and  C_5
REMARK    3  A    between atoms: C_5  and  N_6
REMARK    4  A    between atoms: N_6  and  C_8
REMARK    5  A    between atoms: C_21  and  C_22
REMARK    6  A    between atoms: C_22  and  C_23
REMARK                            x       y       z     vdW  Elec       q    Type
REMARK                         _______ _______ _______ _____ _____    ______ ____
ROOT
ATOM      8  C   UNL     1      -0.901   2.397  25.289  0.00  0.00    +0.048 A 
ATOM      9  C   UNL     1      -1.718   2.395  25.178  0.00  0.00    +0.015 A 
ATOM     10  C   UNL     1      -2.112   1.685  25.031  0.00  0.00    +0.030 A 
ATOM     11  C   UNL     1      -1.689   0.978  24.995  0.00  0.00    +0.136 A 
ATOM     12  O   UNL     1      -0.877   0.628  25.059  0.00  0.00    -0.476 OA
ATOM     13  C   UNL     1      -0.895  -0.190  24.949  0.00  0.00    +0.205 C 
ATOM     14  C   UNL     1      -1.678  -0.412  24.814  0.00  0.00    +0.047 C 
ATOM     15  C   UNL     1      -2.176  -1.146  24.650  0.00  0.00    +0.006 C 
ATOM     16  C   UNL     1      -2.994  -1.114  24.544  0.00  0.00    +0.021 C 
ATOM     17  C   UNL     1      -3.386  -0.390  24.586  0.00  0.00    +0.093 C 
ATOM     18  N   UNL     1      -4.204  -0.357  24.480  0.00  0.00    -0.278 N 
ATOM     19  C   UNL     1      -4.629  -1.049  24.331  0.00  0.00    +0.093 C 
ATOM     20  C   UNL     1      -4.235  -1.772  24.289  0.00  0.00    +0.022 C 
ATOM     21  C   UNL     1      -3.418  -1.805  24.395  0.00  0.00    +0.015 C 
ATOM     26  C   UNL     1      -4.596   0.367  24.522  0.00  0.00    +0.243 C 
ATOM     27  O   UNL     1      -5.414   0.400  24.416  0.00  0.00    -0.273 OA
ATOM     28  C   UNL     1      -4.171   1.059  24.671  0.00  0.00    +0.174 C 
ATOM     29  N   UNL     1      -3.354   1.026  24.777  0.00  0.00    -0.204 NA
ATOM     30  C   UNL     1      -2.930   1.717  24.925  0.00  0.00    +0.119 C 
ATOM     31  C   UNL     1      -0.871   0.981  25.106  0.00  0.00    +0.038 A 
ATOM     32  C   UNL     1      -0.477   1.690  25.253  0.00  0.00    +0.018 A 
ENDROOT
BRANCH   8   6
ATOM      6  N   UNL     1      -0.507   3.108  25.435  0.00  0.00    -0.304 N 
ATOM      7  C   UNL     1       0.080   3.142  26.014  0.00  0.00    +0.112 C 
BRANCH   6   5
ATOM      5  C   UNL     1      -0.700   3.783  25.003  0.00  0.00    +0.108 C 
BRANCH   5   4
ATOM      4  C   UNL     1      -0.625   4.529  25.348  0.00  0.00    +0.094 C 
BRANCH   4   2
ATOM      1  C   UNL     1      -1.684   5.474  25.180  0.00  0.00    +0.090 C 
ATOM      2  N   UNL     1      -0.937   5.192  24.969  0.00  0.00    -0.269 NA
ATOM      3  C   UNL     1      -0.504   5.572  24.378  0.00  0.00    +0.090 C 
ENDBRANCH   4   2
ENDBRANCH   5   4
ENDBRANCH   6   5
ENDBRANCH   8   6
BRANCH  21  22
ATOM     22  C   UNL     1      -3.025  -2.530  24.353  0.00  0.00    +0.114 C 
BRANCH  22  23
ATOM     23  C   UNL     1      -3.429  -3.229  24.524  0.00  0.00    +0.365 C 
ATOM     24  O   UNL     1      -3.467  -3.504  25.301  0.00  0.00    -0.246 OA
ATOM     25  O   UNL     1      -3.795  -3.653  23.919  0.00  0.00    -0.246 OA
ENDBRANCH  22  23
ENDBRANCH  21  22
TORSDOF 6
ENDMDL
MODEL 8
REMARK VINA RESULT:      -7.3     14.615     16.303
REMARK  Name = 
REMARK  6 active torsions:
REMARK  status: ('A' for Active; 'I' for Inactive)
REMARK    1  A    between atoms: N_2  and  C_4
REMARK    2  A    between atoms: C_4  and  C_5
REMARK    3  A    between atoms: C_5  and  N_6
REMARK    4  A    between atoms: N_6  and  C_8
REMARK    5  A    between atoms: C_21  and  C_22
REMARK    6  A    between atoms: C_22  and  C_23
REMARK                            x       y       z     vdW  Elec       q    Type
REMARK                         _______ _______ _______ _____ _____    ______ ____
ROOT
ATOM      8  C   UNL     1      -7.397 -10.158  16.451  0.00  0.00    +0.048 A 
ATOM      9  C   UNL     1      -7.142 -10.251  15.672  0.00  0.00    +0.015 A 
ATOM     10  C   UNL     1      -6.335 -10.317  15.507  0.00  0.00    +0.030 A 
ATOM     11  C   UNL     1      -5.785 -10.289  16.121  0.00  0.00    +0.136 A 
ATOM     12  O   UNL     1      -5.699 -10.206  16.999  0.00  0.00    -0.476 OA
ATOM     13  C   UNL     1      -4.905 -10.232  17.224  0.00  0.00    +0.205 C 
ATOM     14  C   UNL     1      -4.450 -10.328  16.543  0.00  0.00    +0.047 C 
ATOM     15  C   UNL     1      -3.588 -10.406  16.287  0.00  0.00    +0.006 C 
ATOM     16  C   UNL     1      -3.367 -10.499  15.497  0.00  0.00    +0.021 C 
ATOM     17  C   UNL     1      -3.943 -10.523  14.908  0.00  0.00    +0.093 C 
ATOM     18  N   UNL     1      -3.722 -10.616  14.119  0.00  0.00    -0.278 N 
ATOM     19  C   UNL     1      -2.924 -10.685  13.919  0.00  0.00    +0.093 C 
ATOM     20  C   UNL     1      -2.348 -10.660  14.509  0.00  0.00    +0.022 C 
ATOM     21  C   UNL     1      -2.570 -10.568  15.298  0.00  0.00    +0.015 C 
ATOM     26  C   UNL     1      -4.298 -10.640  13.529  0.00  0.00    +0.243 C 
ATOM     27  O   UNL     1      -4.077 -10.733  12.740  0.00  0.00    -0.273 OA
ATOM     28  C   UNL     1      -5.096 -10.571  13.729  0.00  0.00    +0.174 C 
ATOM     29  N   UNL     1      -5.317 -10.479  14.518  0.00  0.00    -0.204 NA
ATOM     30  C   UNL     1      -6.114 -10.410  14.717  0.00  0.00    +0.119 C 
ATOM     31  C   UNL     1      -6.041 -10.195  16.900  0.00  0.00    +0.038 A 
ATOM     32  C   UNL     1      -6.846 -10.129  17.065  0.00  0.00    +0.018 A 
ENDROOT
BRANCH   8   6
ATOM      6  N   UNL     1      -8.203 -10.092  16.615  0.00  0.00    -0.304 N 
ATOM      7  C   UNL     1      -8.624 -10.748  16.885  0.00  0.00    +0.112 C 
BRANCH   6   5
ATOM      5  C   UNL     1      -8.587  -9.370  16.510  0.00  0.00    +0.108 C 
BRANCH   5   4
ATOM      4  C   UNL     1      -9.412  -9.341  16.488  0.00  0.00    +0.094 C 
BRANCH   4   2
ATOM      1  C   UNL     1      -9.549  -7.940  16.733  0.00  0.00    +0.090 C 
ATOM      2  N   UNL     1      -9.796  -8.625  16.344  0.00  0.00    -0.269 NA
ATOM      3  C   UNL     1     -10.425  -8.594  15.812  0.00  0.00    +0.090 C 
ENDBRANCH   4   2
ENDBRANCH   5   4
ENDBRANCH   6   5
ENDBRANCH   8   6
BRANCH  21  22
ATOM     22  C   UNL     1      -1.993 -10.543  15.888  0.00  0.00    +0.114 C 
BRANCH  22  23
ATOM     23  C   UNL     1      -1.238 -10.257  15.716  0.00  0.00    +0.365 C 
ATOM     24  O   UNL     1      -1.115  -9.446  15.626  0.00  0.00    -0.246 OA
ATOM     25  O   UNL     1      -0.607 -10.781  15.635  0.00  0.00    -0.246 OA
ENDBRANCH  22  23
ENDBRANCH  21  22
TORSDOF 6
ENDMDL
MODEL 9
REMARK VINA RESULT:      -7.0     17.279     18.947
REMARK  Name = 
REMARK  6 active torsions:
REMARK  status: ('A' for Active; 'I' for Inactive)
REMARK    1  A    between atoms: N_2  and  C_4
REMARK    2  A    between atoms: C_4  and  C_5
REMARK    3  A    between atoms: C_5  and  N_6
REMARK    4  A    between atoms: N_6  and  C_8
REMARK    5  A    between atoms: C_21  and  C_22
REMARK    6  A    between atoms: C_22  and  C_23
REMARK                            x       y       z     vdW  Elec       q    Type
REMARK                         _______ _______ _______ _____ _____    ______ ____
ROOT
ATOM      8  C   UNL     1      -7.229  -8.552   9.098  0.00  0.00    +0.048 A 
ATOM      9  C   UNL     1      -7.259  -8.816   9.879  0.00  0.00    +0.015 A 
ATOM     10  C   UNL     1      -6.567  -9.060  10.258  0.00  0.00    +0.030 A 
ATOM     11  C   UNL     1      -5.846  -9.038   9.857  0.00  0.00    +0.136 A 
ATOM     12  O   UNL     1      -5.466  -8.833   9.083  0.00  0.00    -0.476 OA
ATOM     13  C   UNL     1      -4.653  -8.972   9.104  0.00  0.00    +0.205 C 
ATOM     14  C   UNL     1      -4.463  -9.261   9.853  0.00  0.00    +0.047 C 
ATOM     15  C   UNL     1      -3.751  -9.542  10.331  0.00  0.00    +0.006 C 
ATOM     16  C   UNL     1      -3.816  -9.801  11.112  0.00  0.00    +0.021 C 
ATOM     17  C   UNL     1      -4.552  -9.810  11.484  0.00  0.00    +0.093 C 
ATOM     18  N   UNL     1      -4.616 -10.069  12.265  0.00  0.00    -0.278 N 
ATOM     19  C   UNL     1      -3.944 -10.319  12.673  0.00  0.00    +0.093 C 
ATOM     20  C   UNL     1      -3.209 -10.310  12.301  0.00  0.00    +0.022 C 
ATOM     21  C   UNL     1      -3.144 -10.051  11.520  0.00  0.00    +0.015 C 
ATOM     26  C   UNL     1      -5.352 -10.077  12.636  0.00  0.00    +0.243 C 
ATOM     27  O   UNL     1      -5.417 -10.336  13.417  0.00  0.00    -0.273 OA
ATOM     28  C   UNL     1      -6.024  -9.827  12.228  0.00  0.00    +0.174 C 
ATOM     29  N   UNL     1      -5.960  -9.568  11.447  0.00  0.00    -0.204 NA
ATOM     30  C   UNL     1      -6.631  -9.318  11.039  0.00  0.00    +0.119 C 
ATOM     31  C   UNL     1      -5.818  -8.773   9.076  0.00  0.00    +0.038 A 
ATOM     32  C   UNL     1      -6.508  -8.530   8.697  0.00  0.00    +0.018 A 
ENDROOT
BRANCH   8   6
ATOM      6  N   UNL     1      -7.921  -8.309   8.719  0.00  0.00    -0.304 N 
ATOM      7  C   UNL     1      -8.355  -8.846   8.268  0.00  0.00    +0.112 C 
BRANCH   6   5
ATOM      5  C   UNL     1      -8.177  -7.528   8.791  0.00  0.00    +0.108 C 
BRANCH   5   4
ATOM      4  C   UNL     1      -8.825  -7.265   8.352  0.00  0.00    +0.094 C 
BRANCH   4   2
ATOM      1  C   UNL     1      -9.798  -6.355   8.871  0.00  0.00    +0.090 C 
ATOM      2  N   UNL     1      -9.102  -6.494   8.449  0.00  0.00    -0.269 NA
ATOM      3  C   UNL     1      -8.684  -5.861   8.124  0.00  0.00    +0.090 C 
ENDBRANCH   4   2
ENDBRANCH   5   4
ENDBRANCH   6   5
ENDBRANCH   8   6
BRANCH  21  22
ATOM     22  C   UNL     1      -2.407 -10.042  11.147  0.00  0.00    +0.114 C 
BRANCH  22  23
ATOM     23  C   UNL     1      -1.717 -10.065  11.599  0.00  0.00    +0.365 C 
ATOM     24  O   UNL     1      -1.295  -9.370  11.743  0.00  0.00    -0.246 OA
ATOM     25  O   UNL     1      -1.448 -10.781  11.906  0.00  0.00    -0.246 OA
ENDBRANCH  22  23
ENDBRANCH  21  22
TORSDOF 6
ENDMDL
MODEL 10
REMARK VINA RESULT:      -6.8     15.056     17.421
REMARK  Name = 
REMARK  6 active torsions:
REMARK  status: ('A' for Active; 'I' for Inactive)
REMARK    1  A    between atoms: N_2  and  C_4
REMARK    2  A    between atoms: C_4  and  C_5
REMARK    3  A    between atoms: C_5  and  N_6
REMARK    4  A    between atoms: N_6  and  C_8
REMARK    5  A    between atoms: C_21  and  C_22
REMARK    6  A    between atoms: C_22  and  C_23
REMARK                            x       y       z     vdW  Elec       q    Type
REMARK                         _______ _______ _______ _____ _____    ______ ____
ROOT
ATOM      8  C   UNL     1      -5.494 -10.325  15.313  0.00  0.00    +0.048 A 
ATOM      9  C   UNL     1      -4.726 -10.501  15.070  0.00  0.00    +0.015 A 
ATOM     10  C   UNL     1      -4.510 -10.400  14.280  0.00  0.00    +0.030 A 
ATOM     11  C   UNL     1      -5.062 -10.123  13.733  0.00  0.00    +0.136 A 
ATOM     12  O   UNL     1      -5.902  -9.855  13.639  0.00  0.00    -0.476 OA
ATOM     13  C   UNL     1      -6.063  -9.645  12.858  0.00  0.00    +0.205 C 
ATOM     14  C   UNL     1      -5.374  -9.756  12.417  0.00  0.00    +0.047 C 
ATOM     15  C   UNL     1      -5.066  -9.672  11.573  0.00  0.00    +0.006 C 
ATOM     16  C   UNL     1      -4.290  -9.857  11.364  0.00  0.00    +0.021 C 
ATOM     17  C   UNL     1      -3.763 -10.132  11.936  0.00  0.00    +0.093 C 
ATOM     18  N   UNL     1      -2.987 -10.317  11.726  0.00  0.00    -0.278 N 
ATOM     19  C   UNL     1      -2.737 -10.228  10.945  0.00  0.00    +0.093 C 
ATOM     20  C   UNL     1      -3.265  -9.953  10.373  0.00  0.00    +0.022 C 
ATOM     21  C   UNL     1      -4.041  -9.768  10.583  0.00  0.00    +0.015 C 
ATOM     26  C   UNL     1      -2.460 -10.592  12.298  0.00  0.00    +0.243 C 
ATOM     27  O   UNL     1      -1.684 -10.777  12.089  0.00  0.00    -0.273 OA
ATOM     28  C   UNL     1      -2.709 -10.681  13.080  0.00  0.00    +0.174 C 
ATOM     29  N   UNL     1      -3.485 -10.496  13.289  0.00  0.00    -0.204 NA
ATOM     30  C   UNL     1      -3.734 -10.585  14.070  0.00  0.00    +0.119 C 
ATOM     31  C   UNL     1      -5.831  -9.947  13.977  0.00  0.00    +0.038 A 
ATOM     32  C   UNL     1      -6.047 -10.048  14.766  0.00  0.00    +0.018 A 
ENDROOT
BRANCH   8   6
ATOM      6  N   UNL     1      -5.711 -10.426  16.103  0.00  0.00    -0.304 N 
ATOM      7  C   UNL     1      -5.147 -10.659  16.658  0.00  0.00    +0.112 C 
BRANCH   6   5
ATOM      5  C   UNL     1      -6.491 -10.293  16.337  0.00  0.00    +0.108 C 
BRANCH   5   4
ATOM      4  C   UNL     1      -6.682 -10.271  17.140  0.00  0.00    +0.094 C 
BRANCH   4   2
ATOM      1  C   UNL     1      -8.012 -10.781  17.247  0.00  0.00    +0.090 C 
ATOM      2  N   UNL     1      -7.467 -10.174  17.373  0.00  0.00    -0.269 NA
ATOM      3  C   UNL     1      -7.708  -9.471  17.732  0.00  0.00    +0.090 C 
ENDBRANCH   4   2
ENDBRANCH   5   4
ENDBRANCH   6   5
ENDBRANCH   8   6
BRANCH  21  22
ATOM     22  C   UNL     1      -4.568  -9.492  10.010  0.00  0.00    +0.114 C 
BRANCH  22  23
ATOM     23  C   UNL     1      -4.300  -9.328   9.247  0.00  0.00    +0.365 C 
ATOM     24  O   UNL     1      -4.342  -9.908   8.661  0.00  0.00    -0.246 OA
ATOM     25  O   UNL     1      -3.991  -8.585   9.070  0.00  0.00    -0.246 OA
ENDBRANCH  22  23
ENDBRANCH  21  22
TORSDOF 6
ENDMDL
