MODEL 1
REMARK VINA RESULT:      -8.4      0.000      0.000
REMARK  Name = 
REMARK  8 active torsions:
REMARK  status: ('A' for Active; 'I' for Inactive)
REMARK    1  A    between atoms: N_2  and  C_4
REMARK    2  A    between atoms: C_7  and  C_10
REMARK    3  A    between atoms: N_15  and  C_16
REMARK    4  A    between atoms: C_20  and  N_24
REMARK    5  A    between atoms: C_25  and  C_27
REMARK    6  A    between atoms: C_27  and  C_28
REMARK    7  A    between atoms: C_28  and  C_29
REMARK    8  A    between atoms: C_29  and  C_30
REMARK                            x       y       z     vdW  Elec       q    Type
REMARK                         _______ _______ _______ _____ _____    ______ ____
ROOT
ATOM     16  C   UNL     1      -0.379   0.973  23.970  0.00  0.00    +0.154 C 
ATOM     17  C   UNL     1      -0.866   0.323  23.827  0.00  0.00    +0.166 C 
ATOM     18  O   UNL     1      -1.645   0.591  23.794  0.00  0.00    -0.350 OA
ATOM     19  C   UNL     1      -1.641   1.406  23.917  0.00  0.00    +0.166 C 
ATOM     20  C   UNL     1      -2.119   2.076  23.973  0.00  0.00    +0.154 C 
ATOM     21  C   UNL     1      -1.632   2.726  24.116  0.00  0.00    +0.166 C 
ATOM     22  O   UNL     1      -0.853   2.459  24.149  0.00  0.00    -0.350 OA
ATOM     23  C   UNL     1      -0.858   1.642  24.026  0.00  0.00    +0.166 C 
ENDROOT
BRANCH  16  15
ATOM     10  C   UNL     1       2.182   0.191  22.970  0.00  0.00    +0.086 A 
ATOM     11  C   UNL     1       1.819  -0.167  22.321  0.00  0.00    +0.040 A 
ATOM     12  C   UNL     1       0.997  -0.150  22.247  0.00  0.00    +0.103 A 
ATOM     13  N   UNL     1       0.538   0.224  22.821  0.00  0.00    -0.211 NA
ATOM     14  C   UNL     1       0.902   0.582  23.470  0.00  0.00    +0.237 A 
ATOM     15  N   UNL     1       0.442   0.957  24.044  0.00  0.00    -0.200 NA
ATOM     37  N   UNL     1       1.723   0.566  23.544  0.00  0.00    -0.212 NA
BRANCH  10   7
ATOM      4  C   UNL     1       4.646   0.141  23.192  0.00  0.00    +0.048 A 
ATOM      5  C   UNL     1       4.273   0.810  22.885  0.00  0.00    +0.015 A 
ATOM      6  C   UNL     1       3.452   0.827  22.811  0.00  0.00    +0.003 A 
ATOM      7  C   UNL     1       3.003   0.175  23.044  0.00  0.00    +0.018 A 
ATOM      8  C   UNL     1       3.376  -0.494  23.351  0.00  0.00    +0.003 A 
ATOM      9  C   UNL     1       4.197  -0.511  23.425  0.00  0.00    +0.015 A 
BRANCH   4   2
ATOM      1  C   UNL     1       5.828   0.447  23.935  0.00  0.00    +0.112 C 
ATOM      2  N   UNL     1       5.467   0.125  23.266  0.00  0.00    -0.304 N 
ATOM      3  C   UNL     1       5.929  -0.214  22.672  0.00  0.00    +0.112 C 
ENDBRANCH   4   2
ENDBRANCH  10   7
ENDBRANCH  16  15
BRANCH  20  24
ATOM     24  N   UNL     1      -2.941   2.093  23.899  0.00  0.00    -0.202 NA
ATOM     25  C   UNL     1      -3.400   2.454  24.480  0.00  0.00    +0.241 C 
ATOM     26  O   UNL     1      -3.039   2.800  25.137  0.00  0.00    -0.273 OA
BRANCH  25  27
ATOM     27  C   UNL     1      -4.222   2.471  24.406  0.00  0.00    +0.087 C 
BRANCH  27  28
ATOM     28  C   UNL     1      -4.685   2.785  25.012  0.00  0.00    +0.019 C 
ATOM     33  C   UNL     1      -4.496   3.508  24.664  0.00  0.00    +0.001 C 
ATOM     34  C   UNL     1      -4.861   4.106  25.101  0.00  0.00    +0.000 C 
ATOM     35  C   UNL     1      -5.276   3.751  25.720  0.00  0.00    +0.000 C 
ATOM     36  C   UNL     1      -5.167   2.935  25.664  0.00  0.00    +0.001 C 
BRANCH  28  29
ATOM     29  C   UNL     1      -4.777   1.996  25.234  0.00  0.00    +0.115 C 
BRANCH  29  30
ATOM     30  C   UNL     1      -5.529   1.655  25.240  0.00  0.00    +0.365 C 
ATOM     31  O   UNL     1      -5.851   1.380  25.948  0.00  0.00    -0.246 OA
ATOM     32  O   UNL     1      -5.958   1.590  24.539  0.00  0.00    -0.246 OA
ENDBRANCH  29  30
ENDBRANCH  28  29
ENDBRANCH  27  28
ENDBRANCH  25  27
ENDBRANCH  20  24
TORSDOF 8
ENDMDL
MODEL 2
REMARK VINA RESULT:      -6.5      2.203      7.853
REMARK  Name = 
REMARK  8 active torsions:
REMARK  status: ('A' for Active; 'I' for Inactive)
REMARK    1  A    between atoms: N_2  and  C_4
REMARK    2  A    between atoms: C_7  and  C_10
REMARK    3  A    between atoms: N_15  and  C_16
REMARK    4  A    between atoms: C_20  and  N_24
REMARK    5  A    between atoms: C_25  and  C_27
REMARK    6  A    between atoms: C_27  and  C_28
REMARK    7  A    between atoms: C_28  and  C_29
REMARK    8  A    between atoms: C_29  and  C_30
REMARK                            x       y       z     vdW  Elec       q    Type
REMARK                         _______ _______ _______ _____ _____    ______ ____
ROOT
ATOM     16  C   UNL     1      -0.449   0.261  24.045  0.00  0.00    +0.154 C 
ATOM     17  C   UNL     1      -0.326  -0.533  24.231  0.00  0.00    +0.166 C 
ATOM     18  O   UNL     1       0.423  -0.745  23.958  0.00  0.00    -0.350 OA
ATOM     19  C   UNL     1       0.762  -0.084  23.603  0.00  0.00    +0.166 C 
ATOM     20  C   UNL     1       1.435   0.196  23.215  0.00  0.00    +0.154 C 
ATOM     21  C   UNL     1       1.312   0.989  23.029  0.00  0.00    +0.166 C 
ATOM     22  O   UNL     1       0.563   1.202  23.302  0.00  0.00    -0.350 OA
ATOM     23  C   UNL     1       0.223   0.539  23.657  0.00  0.00    +0.166 C 
ENDROOT
BRANCH  16  15
ATOM     10  C   UNL     1      -3.264   0.383  24.528  0.00  0.00    +0.086 A 
ATOM     11  C   UNL     1      -3.317  -0.434  24.426  0.00  0.00    +0.040 A 
ATOM     12  C   UNL     1      -2.639  -0.873  24.254  0.00  0.00    +0.103 A 
ATOM     13  N   UNL     1      -1.909  -0.496  24.184  0.00  0.00    -0.211 NA
ATOM     14  C   UNL     1      -1.857   0.322  24.287  0.00  0.00    +0.237 A 
ATOM     15  N   UNL     1      -1.126   0.700  24.217  0.00  0.00    -0.200 NA
ATOM     37  N   UNL     1      -2.533   0.760  24.458  0.00  0.00    -0.212 NA
BRANCH  10   7
ATOM      4  C   UNL     1      -5.296   1.699  25.043  0.00  0.00    +0.048 A 
ATOM      5  C   UNL     1      -5.210   0.936  25.345  0.00  0.00    +0.015 A 
ATOM      6  C   UNL     1      -4.533   0.497  25.174  0.00  0.00    +0.003 A 
ATOM      7  C   UNL     1      -3.941   0.821  24.699  0.00  0.00    +0.018 A 
ATOM      8  C   UNL     1      -4.025   1.584  24.397  0.00  0.00    +0.003 A 
ATOM      9  C   UNL     1      -4.703   2.023  24.569  0.00  0.00    +0.015 A 
BRANCH   4   2
ATOM      1  C   UNL     1      -5.915   2.824  25.668  0.00  0.00    +0.112 C 
ATOM      2  N   UNL     1      -5.972   2.137  25.214  0.00  0.00    -0.304 N 
ATOM      3  C   UNL     1      -6.707   1.890  24.933  0.00  0.00    +0.112 C 
ENDBRANCH   4   2
ENDBRANCH  10   7
ENDBRANCH  16  15
BRANCH  20  24
ATOM     24  N   UNL     1       2.112  -0.244  23.043  0.00  0.00    -0.202 NA
ATOM     25  C   UNL     1       2.857   0.107  23.100  0.00  0.00    +0.241 C 
ATOM     26  O   UNL     1       2.925   0.897  23.329  0.00  0.00    -0.273 OA
BRANCH  25  27
ATOM     27  C   UNL     1       3.534  -0.332  22.928  0.00  0.00    +0.087 C 
BRANCH  27  28
ATOM     28  C   UNL     1       4.260  -0.114  23.253  0.00  0.00    +0.019 C 
ATOM     33  C   UNL     1       4.283   0.421  22.626  0.00  0.00    +0.001 C 
ATOM     34  C   UNL     1       4.987   0.848  22.679  0.00  0.00    +0.000 C 
ATOM     35  C   UNL     1       5.400   0.577  23.341  0.00  0.00    +0.000 C 
ATOM     36  C   UNL     1       4.950  -0.017  23.695  0.00  0.00    +0.001 C 
BRANCH  28  29
ATOM     29  C   UNL     1       4.086  -0.694  23.813  0.00  0.00    +0.115 C 
BRANCH  29  30
ATOM     30  C   UNL     1       4.594  -1.337  23.913  0.00  0.00    +0.365 C 
ATOM     31  O   UNL     1       5.290  -1.248  24.346  0.00  0.00    -0.246 OA
ATOM     32  O   UNL     1       4.406  -2.067  23.580  0.00  0.00    -0.246 OA
ENDBRANCH  29  30
ENDBRANCH  28  29
ENDBRANCH  27  28
ENDBRANCH  25  27
ENDBRANCH  20  24
TORSDOF 8
ENDMDL
MODEL 3
REMARK VINA RESULT:      -6.1     15.283     17.455
REMARK  Name = 
REMARK  8 active torsions:
REMARK  status: ('A' for Active; 'I' for Inactive)
REMARK    1  A    between atoms: N_2  and  C_4
REMARK    2  A    between atoms: C_7  and  C_10
REMARK    3  A    between atoms: N_15  and  C_16
REMARK    4  A    between atoms: C_20  and  N_24
REMARK    5  A    between atoms: C_25  and  C_27
REMARK    6  A    between atoms: C_27  and  C_28
REMARK    7  A    between atoms: C_28  and  C_29
REMARK    8  A    between atoms: C_29  and  C_30
REMARK                            x       y       z     vdW  Elec       q    Type
REMARK                         _______ _______ _______ _____ _____    ______ ____
ROOT
ATOM     16  C   UNL     1      -5.886 -10.397  14.736  0.00  0.00    +0.154 C 
ATOM     17  C   UNL     1      -5.122 -10.302  15.033  0.00  0.00    +0.166 C 
ATOM     18  O   UNL     1      -4.593 -10.390  14.407  0.00  0.00    -0.350 OA
ATOM     19  C   UNL     1      -5.028 -10.539  13.724  0.00  0.00    +0.166 C 
ATOM     20  C   UNL     1      -4.970 -10.686  12.914  0.00  0.00    +0.154 C 
ATOM     21  C   UNL     1      -5.734 -10.781  12.616  0.00  0.00    +0.166 C 
ATOM     22  O   UNL     1      -6.263 -10.693  13.242  0.00  0.00    -0.350 OA
ATOM     23  C   UNL     1      -5.827 -10.544  13.927  0.00  0.00    +0.166 C 
ENDROOT
BRANCH  16  15
ATOM     10  C   UNL     1      -7.237 -10.403  17.255  0.00  0.00    +0.086 A 
ATOM     11  C   UNL     1      -6.514 -10.494  17.642  0.00  0.00    +0.040 A 
ATOM     12  C   UNL     1      -5.815 -10.538  17.206  0.00  0.00    +0.103 A 
ATOM     13  N   UNL     1      -5.838 -10.491  16.383  0.00  0.00    -0.211 NA
ATOM     14  C   UNL     1      -6.562 -10.400  15.995  0.00  0.00    +0.237 A 
ATOM     15  N   UNL     1      -6.585 -10.353  15.172  0.00  0.00    -0.200 NA
ATOM     37  N   UNL     1      -7.260 -10.356  16.431  0.00  0.00    -0.212 NA
BRANCH  10   7
ATOM      4  C   UNL     1      -9.334 -10.272  18.563  0.00  0.00    +0.048 A 
ATOM      5  C   UNL     1      -9.262  -9.855  17.855  0.00  0.00    +0.015 A 
ATOM      6  C   UNL     1      -8.564  -9.898  17.419  0.00  0.00    +0.003 A 
ATOM      7  C   UNL     1      -7.936 -10.360  17.690  0.00  0.00    +0.018 A 
ATOM      8  C   UNL     1      -8.007 -10.777  18.398  0.00  0.00    +0.003 A 
ATOM      9  C   UNL     1      -8.706 -10.734  18.835  0.00  0.00    +0.015 A 
BRANCH   4   2
ATOM      1  C   UNL     1     -10.177 -10.773  19.602  0.00  0.00    +0.112 C 
ATOM      2  N   UNL     1     -10.032 -10.229  18.999  0.00  0.00    -0.304 N 
ATOM      3  C   UNL     1     -10.587  -9.641  18.833  0.00  0.00    +0.112 C 
ENDBRANCH   4   2
ENDBRANCH  10   7
ENDBRANCH  16  15
BRANCH  20  24
ATOM     24  N   UNL     1      -4.271 -10.730  12.478  0.00  0.00    -0.202 NA
ATOM     25  C   UNL     1      -4.202 -10.319  11.766  0.00  0.00    +0.241 C 
ATOM     26  O   UNL     1      -4.833  -9.864  11.489  0.00  0.00    -0.273 OA
BRANCH  25  27
ATOM     27  C   UNL     1      -3.503 -10.363  11.329  0.00  0.00    +0.087 C 
BRANCH  27  28
ATOM     28  C   UNL     1      -3.364  -9.828  10.717  0.00  0.00    +0.019 C 
ATOM     33  C   UNL     1      -3.904 -10.294  10.303  0.00  0.00    +0.001 C 
ATOM     34  C   UNL     1      -3.992  -9.974   9.548  0.00  0.00    +0.000 C 
ATOM     35  C   UNL     1      -3.507  -9.308   9.495  0.00  0.00    +0.000 C 
ATOM     36  C   UNL     1      -3.119  -9.219  10.218  0.00  0.00    +0.001 C 
BRANCH  28  29
ATOM     29  C   UNL     1      -2.854  -9.473  11.259  0.00  0.00    +0.115 C 
BRANCH  29  30
ATOM     30  C   UNL     1      -2.037  -9.558  11.173  0.00  0.00    +0.365 C 
ATOM     31  O   UNL     1      -1.671 -10.261  11.397  0.00  0.00    -0.246 OA
ATOM     32  O   UNL     1      -1.589  -8.939  10.863  0.00  0.00    -0.246 OA
ENDBRANCH  29  30
ENDBRANCH  28  29
ENDBRANCH  27  28
ENDBRANCH  25  27
ENDBRANCH  20  24
TORSDOF 8
ENDMDL
MODEL 4
REMARK VINA RESULT:      -4.8     15.153     15.845
REMARK  Name = 
REMARK  8 active torsions:
REMARK  status: ('A' for Active; 'I' for Inactive)
REMARK    1  A    between atoms: N_2  and  C_4
REMARK    2  A    between atoms: C_7  and  C_10
REMARK    3  A    between atoms: N_15  and  C_16
REMARK    4  A    between atoms: C_20  and  N_24
REMARK    5  A    between atoms: C_25  and  C_27
REMARK    6  A    between atoms: C_27  and  C_28
REMARK    7  A    between atoms: C_28  and  C_29
REMARK    8  A    between atoms: C_29  and  C_30
REMARK                            x       y       z     vdW  Elec       q    Type
REMARK                         _______ _______ _______ _____ _____    ______ ____
ROOT
ATOM     16  C   UNL     1      -6.191 -10.335  14.470  0.00  0.00    +0.154 C 
ATOM     17  C   UNL     1      -6.771 -10.765  14.071  0.00  0.00    +0.166 C 
ATOM     18  O   UNL     1      -7.446 -10.781  14.544  0.00  0.00    -0.350 OA
ATOM     19  C   UNL     1      -7.284 -10.362  15.235  0.00  0.00    +0.166 C 
ATOM     20  C   UNL     1      -7.600 -10.112  15.955  0.00  0.00    +0.154 C 
ATOM     21  C   UNL     1      -7.021  -9.682  16.354  0.00  0.00    +0.166 C 
ATOM     22  O   UNL     1      -6.345  -9.666  15.881  0.00  0.00    -0.350 OA
ATOM     23  C   UNL     1      -6.508 -10.086  15.189  0.00  0.00    +0.166 C 
ENDROOT
BRANCH  16  15
ATOM     10  C   UNL     1      -4.291 -10.272  12.336  0.00  0.00    +0.086 A 
ATOM     11  C   UNL     1      -4.867 -10.548  11.814  0.00  0.00    +0.040 A 
ATOM     12  C   UNL     1      -5.631 -10.702  12.087  0.00  0.00    +0.103 A 
ATOM     13  N   UNL     1      -5.818 -10.580  12.882  0.00  0.00    -0.211 NA
ATOM     14  C   UNL     1      -5.240 -10.304  13.403  0.00  0.00    +0.237 A 
ATOM     15  N   UNL     1      -5.427 -10.182  14.197  0.00  0.00    -0.200 NA
ATOM     37  N   UNL     1      -4.477 -10.150  13.130  0.00  0.00    -0.212 NA
BRANCH  10   7
ATOM      4  C   UNL     1      -2.000  -9.812  11.517  0.00  0.00    +0.048 A 
ATOM      5  C   UNL     1      -2.644  -9.407  11.195  0.00  0.00    +0.015 A 
ATOM      6  C   UNL     1      -3.406  -9.560  11.468  0.00  0.00    +0.003 A 
ATOM      7  C   UNL     1      -3.528 -10.119  12.063  0.00  0.00    +0.018 A 
ATOM      8  C   UNL     1      -2.886 -10.524  12.385  0.00  0.00    +0.003 A 
ATOM      9  C   UNL     1      -2.122 -10.371  12.112  0.00  0.00    +0.015 A 
BRANCH   4   2
ATOM      1  C   UNL     1      -0.598 -10.081  11.550  0.00  0.00    +0.112 C 
ATOM      2  N   UNL     1      -1.238  -9.659  11.244  0.00  0.00    -0.304 N 
ATOM      3  C   UNL     1      -1.114  -9.084  10.666  0.00  0.00    +0.112 C 
ENDBRANCH   4   2
ENDBRANCH  10   7
ENDBRANCH  16  15
BRANCH  20  24
ATOM     24  N   UNL     1      -8.364 -10.265  16.228  0.00  0.00    -0.202 NA
ATOM     25  C   UNL     1      -8.725  -9.747  16.758  0.00  0.00    +0.241 C 
ATOM     26  O   UNL     1      -8.323  -9.074  17.016  0.00  0.00    -0.273 OA
BRANCH  25  27
ATOM     27  C   UNL     1      -9.488  -9.900  17.031  0.00  0.00    +0.087 C 
BRANCH  27  28
ATOM     28  C   UNL     1      -9.936  -9.294  17.367  0.00  0.00    +0.019 C 
ATOM     33  C   UNL     1     -10.021  -9.042  16.586  0.00  0.00    +0.001 C 
ATOM     34  C   UNL     1     -10.484  -8.359  16.586  0.00  0.00    +0.000 C 
ATOM     35  C   UNL     1     -10.686  -8.189  17.369  0.00  0.00    +0.000 C 
ATOM     36  C   UNL     1     -10.347  -8.767  17.850  0.00  0.00    +0.001 C 
BRANCH  28  29
ATOM     29  C   UNL     1      -9.758  -9.673  18.077  0.00  0.00    +0.115 C 
BRANCH  29  30
ATOM     30  C   UNL     1     -10.352 -10.066  18.495  0.00  0.00    +0.365 C 
ATOM     31  O   UNL     1     -10.647  -9.742  19.194  0.00  0.00    -0.246 OA
ATOM     32  O   UNL     1     -10.650 -10.781  18.213  0.00  0.00    -0.246 OA
ENDBRANCH  29  30
ENDBRANCH  28  29
ENDBRANCH  27  28
ENDBRANCH  25  27
ENDBRANCH  20  24
TORSDOF 8
ENDMDL
