MODEL 1
REMARK VINA RESULT:     -13.8      0.000      0.000
REMARK  Name = 
REMARK  3 active torsions:
REMARK  status: ('A' for Active; 'I' for Inactive)
REMARK    1  A    between atoms: O_2  and  C_3
REMARK    2  A    between atoms: C_6  and  C_9
REMARK    3  A    between atoms: C_17  and  C_19
REMARK                            x       y       z     vdW  Elec       q    Type
REMARK                         _______ _______ _______ _____ _____    ______ ____
ROOT
ATOM      9  C   UNL     1      -3.708   0.440  24.777  0.00  0.00    +0.012 A 
ATOM     10  C   UNL     1      -2.965   0.791  24.842  0.00  0.00    +0.041 A 
ATOM     11  C   UNL     1      -2.071   0.575  24.844  0.00  0.00    +0.058 C 
ATOM     12  C   UNL     1      -1.637   0.026  24.792  0.00  0.00    +0.011 C 
ATOM     13  C   UNL     1      -1.579   0.833  24.890  0.00  0.00    +0.043 C 
ATOM     14  C   UNL     1      -1.304   1.774  25.011  0.00  0.00    +0.096 C 
ATOM     15  N   UNL     1      -2.056   2.138  25.030  0.00  0.00    -0.273 N 
ATOM     16  C   UNL     1      -1.790   1.481  24.961  0.00  0.00    +0.100 C 
ATOM     17  C   UNL     1      -2.620   2.738  25.084  0.00  0.00    +0.284 C 
ATOM     18  O   UNL     1      -3.424   2.556  25.038  0.00  0.00    -0.267 OA
ATOM     24  C   UNL     1      -2.509   1.068  24.889  0.00  0.00    +0.110 C 
ATOM     25  N   UNL     1      -2.901   1.608  24.941  0.00  0.00    -0.299 N 
ATOM     26  C   UNL     1      -3.581   2.073  24.975  0.00  0.00    +0.261 A 
ATOM     27  O   UNL     1      -3.775   2.870  25.064  0.00  0.00    -0.267 OA
ATOM     28  C   UNL     1      -4.325   1.722  24.911  0.00  0.00    +0.061 A 
ATOM     29  C   UNL     1      -4.388   0.905  24.811  0.00  0.00    +0.006 A 
ENDROOT
BRANCH   9   6
ATOM      3  C   UNL     1      -3.898  -2.010  24.480  0.00  0.00    +0.139 A 
ATOM      4  C   UNL     1      -3.927  -1.512  23.823  0.00  0.00    +0.037 A 
ATOM      5  C   UNL     1      -3.864  -0.695  23.923  0.00  0.00    +0.003 A 
ATOM      6  C   UNL     1      -3.771  -0.377  24.678  0.00  0.00    +0.001 A 
ATOM      7  C   UNL     1      -3.742  -0.875  25.334  0.00  0.00    +0.003 A 
ATOM      8  C   UNL     1      -3.805  -1.692  25.235  0.00  0.00    +0.037 A 
BRANCH   3   2
ATOM      1  C   UNL     1      -3.292  -3.304  24.452  0.00  0.00    +0.252 C 
ATOM      2  O   UNL     1      -3.961  -2.826  24.381  0.00  0.00    -0.471 OA
ENDBRANCH   3   2
ENDBRANCH   9   6
BRANCH  17  19
ATOM     19  C   UNL     1      -2.380   3.521  25.185  0.00  0.00    +0.199 A 
ATOM     20  C   UNL     1      -2.343   3.929  25.901  0.00  0.00    +0.045 A 
ATOM     21  C   UNL     1      -2.075   4.694  25.745  0.00  0.00    +0.044 A 
ATOM     22  C   UNL     1      -1.945   4.758  24.933  0.00  0.00    +0.180 A 
ATOM     23  O   UNL     1      -2.133   4.034  24.586  0.00  0.00    -0.446 OA
ENDBRANCH  17  19
TORSDOF 3
ENDMDL
MODEL 2
REMARK VINA RESULT:     -13.4      1.320      4.699
REMARK  Name = 
REMARK  3 active torsions:
REMARK  status: ('A' for Active; 'I' for Inactive)
REMARK    1  A    between atoms: O_2  and  C_3
REMARK    2  A    between atoms: C_6  and  C_9
REMARK    3  A    between atoms: C_17  and  C_19
REMARK                            x       y       z     vdW  Elec       q    Type
REMARK                         _______ _______ _______ _____ _____    ______ ____
ROOT
ATOM      9  C   UNL     1      -1.438   1.536  25.165  0.00  0.00    +0.012 A 
ATOM     10  C   UNL     1      -2.141   1.238  24.854  0.00  0.00    +0.041 A 
ATOM     11  C   UNL     1      -2.912   1.516  24.438  0.00  0.00    +0.058 C 
ATOM     12  C   UNL     1      -3.235   2.095  24.207  0.00  0.00    +0.011 C 
ATOM     13  C   UNL     1      -3.381   1.294  24.234  0.00  0.00    +0.043 C 
ATOM     14  C   UNL     1      -3.734   0.373  24.172  0.00  0.00    +0.096 C 
ATOM     15  N   UNL     1      -3.107  -0.042  24.534  0.00  0.00    -0.273 N 
ATOM     16  C   UNL     1      -3.267   0.632  24.371  0.00  0.00    +0.100 C 
ATOM     17  C   UNL     1      -2.674  -0.682  24.826  0.00  0.00    +0.284 C 
ATOM     18  O   UNL     1      -1.937  -0.556  25.176  0.00  0.00    -0.267 OA
ATOM     24  C   UNL     1      -2.579   0.994  24.667  0.00  0.00    +0.110 C 
ATOM     25  N   UNL     1      -2.292   0.427  24.879  0.00  0.00    -0.299 N 
ATOM     26  C   UNL     1      -1.740  -0.086  25.215  0.00  0.00    +0.261 A 
ATOM     27  O   UNL     1      -1.660  -0.894  25.354  0.00  0.00    -0.267 OA
ATOM     28  C   UNL     1      -1.037   0.213  25.526  0.00  0.00    +0.061 A 
ATOM     29  C   UNL     1      -0.886   1.024  25.501  0.00  0.00    +0.006 A 
ENDROOT
BRANCH   9   6
ATOM      3  C   UNL     1      -0.985   3.969  25.090  0.00  0.00    +0.139 A 
ATOM      4  C   UNL     1      -0.733   3.483  24.473  0.00  0.00    +0.037 A 
ATOM      5  C   UNL     1      -0.884   2.672  24.498  0.00  0.00    +0.003 A 
ATOM      6  C   UNL     1      -1.287   2.347  25.140  0.00  0.00    +0.001 A 
ATOM      7  C   UNL     1      -1.538   2.832  25.758  0.00  0.00    +0.003 A 
ATOM      8  C   UNL     1      -1.387   3.643  25.733  0.00  0.00    +0.037 A 
BRANCH   3   2
ATOM      1  C   UNL     1      -1.460   5.315  25.048  0.00  0.00    +0.252 C 
ATOM      2  O   UNL     1      -0.834   4.778  25.065  0.00  0.00    -0.471 OA
ENDBRANCH   3   2
ENDBRANCH   9   6
BRANCH  17  19
ATOM     19  C   UNL     1      -2.979  -1.446  24.770  0.00  0.00    +0.199 A 
ATOM     20  C   UNL     1      -3.404  -1.843  25.354  0.00  0.00    +0.045 A 
ATOM     21  C   UNL     1      -3.600  -2.591  25.063  0.00  0.00    +0.044 A 
ATOM     22  C   UNL     1      -3.296  -2.655  24.299  0.00  0.00    +0.180 A 
ATOM     23  O   UNL     1      -2.912  -1.948  24.117  0.00  0.00    -0.446 OA
ENDBRANCH  17  19
TORSDOF 3
ENDMDL
MODEL 3
REMARK VINA RESULT:     -12.8      1.121      1.804
REMARK  Name = 
REMARK  3 active torsions:
REMARK  status: ('A' for Active; 'I' for Inactive)
REMARK    1  A    between atoms: O_2  and  C_3
REMARK    2  A    between atoms: C_6  and  C_9
REMARK    3  A    between atoms: C_17  and  C_19
REMARK                            x       y       z     vdW  Elec       q    Type
REMARK                         _______ _______ _______ _____ _____    ______ ____
ROOT
ATOM      9  C   UNL     1      -1.896   0.315  25.136  0.00  0.00    +0.012 A 
ATOM     10  C   UNL     1      -2.228   0.973  24.765  0.00  0.00    +0.041 A 
ATOM     11  C   UNL     1      -2.898   1.198  24.177  0.00  0.00    +0.058 C 
ATOM     12  C   UNL     1      -3.412   0.913  23.794  0.00  0.00    +0.011 C 
ATOM     13  C   UNL     1      -3.108   1.655  23.937  0.00  0.00    +0.043 C 
ATOM     14  C   UNL     1      -2.885   2.617  23.979  0.00  0.00    +0.096 C 
ATOM     15  N   UNL     1      -2.244   2.588  24.514  0.00  0.00    -0.273 N 
ATOM     16  C   UNL     1      -2.695   2.130  24.208  0.00  0.00    +0.100 C 
ATOM     17  C   UNL     1      -1.624   2.858  24.987  0.00  0.00    +0.284 C 
ATOM     18  O   UNL     1      -1.181   2.322  25.433  0.00  0.00    -0.267 OA
ATOM     24  C   UNL     1      -2.405   1.429  24.551  0.00  0.00    +0.110 C 
ATOM     25  N   UNL     1      -1.922   1.726  24.907  0.00  0.00    -0.299 N 
ATOM     26  C   UNL     1      -1.284   1.821  25.421  0.00  0.00    +0.261 A 
ATOM     27  O   UNL     1      -0.820   2.437  25.714  0.00  0.00    -0.267 OA
ATOM     28  C   UNL     1      -0.952   1.164  25.793  0.00  0.00    +0.061 A 
ATOM     29  C   UNL     1      -1.258   0.411  25.650  0.00  0.00    +0.006 A 
ENDROOT
BRANCH   9   6
ATOM      3  C   UNL     1      -2.815  -1.943  24.709  0.00  0.00    +0.139 A 
ATOM      4  C   UNL     1      -3.153  -1.463  25.288  0.00  0.00    +0.037 A 
ATOM      5  C   UNL     1      -2.847  -0.710  25.430  0.00  0.00    +0.003 A 
ATOM      6  C   UNL     1      -2.203  -0.437  24.994  0.00  0.00    +0.001 A 
ATOM      7  C   UNL     1      -1.864  -0.918  24.415  0.00  0.00    +0.003 A 
ATOM      8  C   UNL     1      -2.170  -1.671  24.273  0.00  0.00    +0.037 A 
BRANCH   3   2
ATOM      1  C   UNL     1      -3.882  -2.781  24.260  0.00  0.00    +0.252 C 
ATOM      2  O   UNL     1      -3.121  -2.695  24.567  0.00  0.00    -0.471 OA
ENDBRANCH   3   2
ENDBRANCH   9   6
BRANCH  17  19
ATOM     19  C   UNL     1      -1.447   3.663  25.015  0.00  0.00    +0.199 A 
ATOM     20  C   UNL     1      -0.853   4.044  24.587  0.00  0.00    +0.045 A 
ATOM     21  C   UNL     1      -0.873   4.846  24.784  0.00  0.00    +0.044 A 
ATOM     22  C   UNL     1      -1.477   4.960  25.333  0.00  0.00    +0.180 A 
ATOM     23  O   UNL     1      -1.833   4.229  25.476  0.00  0.00    -0.446 OA
ENDBRANCH  17  19
TORSDOF 3
ENDMDL
MODEL 4
REMARK VINA RESULT:     -11.9      1.612      4.376
REMARK  Name = 
REMARK  3 active torsions:
REMARK  status: ('A' for Active; 'I' for Inactive)
REMARK    1  A    between atoms: O_2  and  C_3
REMARK    2  A    between atoms: C_6  and  C_9
REMARK    3  A    between atoms: C_17  and  C_19
REMARK                            x       y       z     vdW  Elec       q    Type
REMARK                         _______ _______ _______ _____ _____    ______ ____
ROOT
ATOM      9  C   UNL     1      -3.000   1.662  24.664  0.00  0.00    +0.012 A 
ATOM     10  C   UNL     1      -3.273   0.898  24.810  0.00  0.00    +0.041 A 
ATOM     11  C   UNL     1      -4.033   0.449  25.065  0.00  0.00    +0.058 C 
ATOM     12  C   UNL     1      -4.703   0.557  25.244  0.00  0.00    +0.011 C 
ATOM     13  C   UNL     1      -4.198  -0.076  25.159  0.00  0.00    +0.043 C 
ATOM     14  C   UNL     1      -3.749  -0.955  25.112  0.00  0.00    +0.096 C 
ATOM     15  N   UNL     1      -2.986  -0.711  24.875  0.00  0.00    -0.273 N 
ATOM     16  C   UNL     1      -3.614  -0.408  25.024  0.00  0.00    +0.100 C 
ATOM     17  C   UNL     1      -2.193  -0.769  24.656  0.00  0.00    +0.284 C 
ATOM     18  O   UNL     1      -1.764  -0.088  24.474  0.00  0.00    -0.267 OA
ATOM     24  C   UNL     1      -3.399   0.385  24.892  0.00  0.00    +0.110 C 
ATOM     25  N   UNL     1      -2.764   0.254  24.725  0.00  0.00    -0.299 N 
ATOM     26  C   UNL     1      -1.982   0.375  24.493  0.00  0.00    +0.261 A 
ATOM     27  O   UNL     1      -1.309  -0.079  24.345  0.00  0.00    -0.267 OA
ATOM     28  C   UNL     1      -1.708   1.139  24.347  0.00  0.00    +0.061 A 
ATOM     29  C   UNL     1      -2.217   1.783  24.433  0.00  0.00    +0.006 A 
ENDROOT
BRANCH   9   6
ATOM      3  C   UNL     1      -4.527   3.594  24.921  0.00  0.00    +0.139 A 
ATOM      4  C   UNL     1      -4.064   3.347  25.557  0.00  0.00    +0.037 A 
ATOM      5  C   UNL     1      -3.555   2.703  25.471  0.00  0.00    +0.003 A 
ATOM      6  C   UNL     1      -3.509   2.306  24.750  0.00  0.00    +0.001 A 
ATOM      7  C   UNL     1      -3.972   2.553  24.114  0.00  0.00    +0.003 A 
ATOM      8  C   UNL     1      -4.481   3.197  24.199  0.00  0.00    +0.037 A 
BRANCH   3   2
ATOM      1  C   UNL     1      -5.681   4.188  25.518  0.00  0.00    +0.252 C 
ATOM      2  O   UNL     1      -5.035   4.237  25.006  0.00  0.00    -0.471 OA
ENDBRANCH   3   2
ENDBRANCH   9   6
BRANCH  17  19
ATOM     19  C   UNL     1      -1.828  -1.508  24.620  0.00  0.00    +0.199 A 
ATOM     20  C   UNL     1      -1.285  -1.808  25.164  0.00  0.00    +0.045 A 
ATOM     21  C   UNL     1      -1.065  -2.563  24.913  0.00  0.00    +0.044 A 
ATOM     22  C   UNL     1      -1.471  -2.729  24.215  0.00  0.00    +0.180 A 
ATOM     23  O   UNL     1      -1.943  -2.078  24.033  0.00  0.00    -0.446 OA
ENDBRANCH  17  19
TORSDOF 3
ENDMDL
