MODEL 1
REMARK VINA RESULT:      -8.6      0.000      0.000
REMARK  Name = 
REMARK  9 active torsions:
REMARK  status: ('A' for Active; 'I' for Inactive)
REMARK    1  A    between atoms: O_2  and  C_3
REMARK    2  A    between atoms: C_3  and  C_4
REMARK    3  A    between atoms: C_4  and  N_5
REMARK    4  A    between atoms: N_5  and  C_6
REMARK    5  A    between atoms: C_9  and  C_12
REMARK    6  A    between atoms: C_15  and  C_17
REMARK    7  A    between atoms: N_21  and  C_22
REMARK    8  A    between atoms: C_22  and  C_23
REMARK    9  A    between atoms: C_26  and  C_27
REMARK                            x       y       z     vdW  Elec       q    Type
REMARK                         _______ _______ _______ _____ _____    ______ ____
ROOT
ATOM     12  C   UNL     1      -0.973  -0.007  24.521  0.00  0.00    +0.205 A 
ATOM     13  N   UNL     1      -0.998   0.005  25.346  0.00  0.00    -0.056 NA
ATOM     14  O   UNL     1      -1.788  -0.044  25.579  0.00  0.00    -0.336 OA
ATOM     15  C   UNL     1      -2.252  -0.087  24.898  0.00  0.00    +0.251 A 
ATOM     16  N   UNL     1      -1.749  -0.065  24.244  0.00  0.00    -0.190 NA
ENDROOT
BRANCH  12   9
ATOM      6  C   UNL     1       1.066   0.106  23.123  0.00  0.00    +0.148 A 
ATOM      7  C   UNL     1       0.691   0.801  23.363  0.00  0.00    +0.036 A 
ATOM      8  C   UNL     1       0.011   0.763  23.829  0.00  0.00    +0.008 A 
ATOM      9  C   UNL     1      -0.294   0.031  24.055  0.00  0.00    +0.058 A 
ATOM     10  C   UNL     1       0.082  -0.665  23.815  0.00  0.00    +0.103 A 
ATOM     11  N   UNL     1       0.761  -0.627  23.349  0.00  0.00    -0.228 NA
BRANCH   6   5
ATOM      5  N   UNL     1       1.745   0.144  22.657  0.00  0.00    -0.218 NA
BRANCH   5   4
ATOM      4  C   UNL     1       2.452   0.422  22.979  0.00  0.00    +0.146 C 
BRANCH   4   3
ATOM      3  C   UNL     1       3.150   0.375  22.542  0.00  0.00    +0.166 C 
BRANCH   3   2
ATOM      1  C   UNL     1       4.527   0.492  22.906  0.00  0.00    +0.174 C 
ATOM      2  O   UNL     1       3.798   0.844  22.748  0.00  0.00    -0.349 OA
ENDBRANCH   3   2
ENDBRANCH   4   3
ENDBRANCH   5   4
ENDBRANCH   6   5
ENDBRANCH  12   9
BRANCH  15  17
ATOM     17  C   UNL     1      -3.075  -0.143  24.875  0.00  0.00    +0.138 C 
ATOM     18  C   UNL     1      -3.514  -0.839  24.925  0.00  0.00    +0.027 C 
ATOM     19  C   UNL     1      -4.314  -0.639  24.878  0.00  0.00    +0.019 C 
ATOM     20  C   UNL     1      -4.367   0.180  24.800  0.00  0.00    +0.073 C 
ATOM     21  N   UNL     1      -3.602   0.487  24.798  0.00  0.00    -0.260 NA
BRANCH  21  22
ATOM     22  C   UNL     1      -3.399   1.283  24.730  0.00  0.00    +0.138 C 
BRANCH  22  23
ATOM     23  C   UNL     1      -3.981   1.864  24.796  0.00  0.00    +0.139 A 
ATOM     24  C   UNL     1      -4.406   2.197  24.173  0.00  0.00    +0.037 A 
ATOM     25  C   UNL     1      -4.928   2.753  24.488  0.00  0.00    +0.038 A 
ATOM     26  C   UNL     1      -4.825   2.763  25.307  0.00  0.00    +0.156 A 
ATOM     29  O   UNL     1      -4.240   2.214  25.497  0.00  0.00    -0.458 OA
BRANCH  26  27
ATOM     27  C   UNL     1      -5.235   3.239  25.840  0.00  0.00    +0.246 C 
ATOM     28  O   UNL     1      -5.821   2.912  26.321  0.00  0.00    -0.212 OA
ENDBRANCH  26  27
ENDBRANCH  22  23
ENDBRANCH  21  22
ENDBRANCH  15  17
TORSDOF 9
ENDMDL
MODEL 2
REMARK VINA RESULT:      -8.1      2.437      4.027
REMARK  Name = 
REMARK  9 active torsions:
REMARK  status: ('A' for Active; 'I' for Inactive)
REMARK    1  A    between atoms: O_2  and  C_3
REMARK    2  A    between atoms: C_3  and  C_4
REMARK    3  A    between atoms: C_4  and  N_5
REMARK    4  A    between atoms: N_5  and  C_6
REMARK    5  A    between atoms: C_9  and  C_12
REMARK    6  A    between atoms: C_15  and  C_17
REMARK    7  A    between atoms: N_21  and  C_22
REMARK    8  A    between atoms: C_22  and  C_23
REMARK    9  A    between atoms: C_26  and  C_27
REMARK                            x       y       z     vdW  Elec       q    Type
REMARK                         _______ _______ _______ _____ _____    ______ ____
ROOT
ATOM     12  C   UNL     1      -0.537   1.594  25.309  0.00  0.00    +0.205 A 
ATOM     13  N   UNL     1       0.097   1.885  25.749  0.00  0.00    -0.056 NA
ATOM     14  O   UNL     1       0.039   2.709  25.767  0.00  0.00    -0.336 OA
ATOM     15  C   UNL     1      -0.631   2.926  25.337  0.00  0.00    +0.251 A 
ATOM     16  N   UNL     1      -0.987   2.238  25.054  0.00  0.00    -0.190 NA
ENDROOT
BRANCH  12   9
ATOM      6  C   UNL     1      -1.007  -0.789  24.835  0.00  0.00    +0.148 A 
ATOM      7  C   UNL     1      -1.166  -0.478  25.581  0.00  0.00    +0.036 A 
ATOM      8  C   UNL     1      -1.010   0.316  25.740  0.00  0.00    +0.008 A 
ATOM      9  C   UNL     1      -0.694   0.800  25.151  0.00  0.00    +0.058 A 
ATOM     10  C   UNL     1      -0.534   0.488  24.403  0.00  0.00    +0.103 A 
ATOM     11  N   UNL     1      -0.691  -0.306  24.245  0.00  0.00    -0.228 NA
BRANCH   6   5
ATOM      5  N   UNL     1      -1.164  -1.583  24.677  0.00  0.00    -0.218 NA
BRANCH   5   4
ATOM      4  C   UNL     1      -1.933  -1.874  24.743  0.00  0.00    +0.146 C 
BRANCH   4   3
ATOM      3  C   UNL     1      -2.143  -2.572  24.358  0.00  0.00    +0.166 C 
BRANCH   3   2
ATOM      1  C   UNL     1      -3.528  -2.901  24.225  0.00  0.00    +0.174 C 
ATOM      2  O   UNL     1      -2.804  -2.998  24.610  0.00  0.00    -0.349 OA
ENDBRANCH   3   2
ENDBRANCH   4   3
ENDBRANCH   5   4
ENDBRANCH   6   5
ENDBRANCH  12   9
BRANCH  15  17
ATOM     17  C   UNL     1      -0.898   3.696  25.213  0.00  0.00    +0.138 C 
ATOM     18  C   UNL     1      -0.528   4.268  24.748  0.00  0.00    +0.027 C 
ATOM     19  C   UNL     1      -0.984   4.956  24.779  0.00  0.00    +0.019 C 
ATOM     20  C   UNL     1      -1.635   4.808  25.262  0.00  0.00    +0.073 C 
ATOM     21  N   UNL     1      -1.583   4.030  25.530  0.00  0.00    -0.260 NA
BRANCH  21  22
ATOM     22  C   UNL     1      -2.121   3.652  26.028  0.00  0.00    +0.138 C 
BRANCH  22  23
ATOM     23  C   UNL     1      -2.929   3.794  25.947  0.00  0.00    +0.139 A 
ATOM     24  C   UNL     1      -3.368   4.350  26.369  0.00  0.00    +0.037 A 
ATOM     25  C   UNL     1      -4.151   4.306  26.113  0.00  0.00    +0.038 A 
ATOM     26  C   UNL     1      -4.196   3.722  25.532  0.00  0.00    +0.156 A 
ATOM     29  O   UNL     1      -3.440   3.406  25.430  0.00  0.00    -0.458 OA
BRANCH  26  27
ATOM     27  C   UNL     1      -4.876   3.494  25.125  0.00  0.00    +0.246 C 
ATOM     28  O   UNL     1      -5.472   3.079  25.517  0.00  0.00    -0.212 OA
ENDBRANCH  26  27
ENDBRANCH  22  23
ENDBRANCH  21  22
ENDBRANCH  15  17
TORSDOF 9
ENDMDL
MODEL 3
REMARK VINA RESULT:      -7.9      1.891      2.282
REMARK  Name = 
REMARK  9 active torsions:
REMARK  status: ('A' for Active; 'I' for Inactive)
REMARK    1  A    between atoms: O_2  and  C_3
REMARK    2  A    between atoms: C_3  and  C_4
REMARK    3  A    between atoms: C_4  and  N_5
REMARK    4  A    between atoms: N_5  and  C_6
REMARK    5  A    between atoms: C_9  and  C_12
REMARK    6  A    between atoms: C_15  and  C_17
REMARK    7  A    between atoms: N_21  and  C_22
REMARK    8  A    between atoms: C_22  and  C_23
REMARK    9  A    between atoms: C_26  and  C_27
REMARK                            x       y       z     vdW  Elec       q    Type
REMARK                         _______ _______ _______ _____ _____    ______ ____
ROOT
ATOM     12  C   UNL     1      -0.469   0.519  23.875  0.00  0.00    +0.205 A 
ATOM     13  N   UNL     1      -0.792   0.042  24.466  0.00  0.00    -0.056 NA
ATOM     14  O   UNL     1      -1.553   0.317  24.629  0.00  0.00    -0.336 OA
ATOM     15  C   UNL     1      -1.701   0.964  24.138  0.00  0.00    +0.251 A 
ATOM     16  N   UNL     1      -1.031   1.089  23.672  0.00  0.00    -0.190 NA
ENDROOT
BRANCH  12   9
ATOM      6  C   UNL     1       1.786   0.281  22.885  0.00  0.00    +0.148 A 
ATOM      7  C   UNL     1       1.240  -0.332  22.816  0.00  0.00    +0.036 A 
ATOM      8  C   UNL     1       0.488  -0.253  23.146  0.00  0.00    +0.008 A 
ATOM      9  C   UNL     1       0.283   0.440  23.545  0.00  0.00    +0.058 A 
ATOM     10  C   UNL     1       0.830   1.054  23.614  0.00  0.00    +0.103 A 
ATOM     11  N   UNL     1       1.582   0.974  23.284  0.00  0.00    -0.228 NA
BRANCH   6   5
ATOM      5  N   UNL     1       2.538   0.202  22.555  0.00  0.00    -0.218 NA
BRANCH   5   4
ATOM      4  C   UNL     1       3.193   0.529  22.936  0.00  0.00    +0.146 C 
BRANCH   4   3
ATOM      3  C   UNL     1       3.954   0.328  22.690  0.00  0.00    +0.166 C 
BRANCH   3   2
ATOM      1  C   UNL     1       5.213   0.193  23.353  0.00  0.00    +0.174 C 
ATOM      2  O   UNL     1       4.610   0.671  23.057  0.00  0.00    -0.349 OA
ENDBRANCH   3   2
ENDBRANCH   4   3
ENDBRANCH   5   4
ENDBRANCH   6   5
ENDBRANCH  12   9
BRANCH  15  17
ATOM     17  C   UNL     1      -2.395   1.408  24.116  0.00  0.00    +0.138 C 
ATOM     18  C   UNL     1      -3.032   1.286  23.607  0.00  0.00    +0.027 C 
ATOM     19  C   UNL     1      -3.606   1.855  23.776  0.00  0.00    +0.019 C 
ATOM     20  C   UNL     1      -3.323   2.328  24.390  0.00  0.00    +0.073 C 
ATOM     21  N   UNL     1      -2.575   2.052  24.600  0.00  0.00    -0.260 NA
BRANCH  21  22
ATOM     22  C   UNL     1      -2.091   2.365  25.189  0.00  0.00    +0.138 C 
BRANCH  22  23
ATOM     23  C   UNL     1      -2.097   3.176  25.341  0.00  0.00    +0.139 A 
ATOM     24  C   UNL     1      -2.564   3.561  25.902  0.00  0.00    +0.037 A 
ATOM     25  C   UNL     1      -2.394   4.367  25.866  0.00  0.00    +0.038 A 
ATOM     26  C   UNL     1      -1.820   4.481  25.283  0.00  0.00    +0.156 A 
ATOM     29  O   UNL     1      -1.638   3.744  24.959  0.00  0.00    -0.458 OA
BRANCH  26  27
ATOM     27  C   UNL     1      -1.489   5.203  25.064  0.00  0.00    +0.246 C 
ATOM     28  O   UNL     1      -0.683   5.253  24.894  0.00  0.00    -0.212 OA
ENDBRANCH  26  27
ENDBRANCH  22  23
ENDBRANCH  21  22
ENDBRANCH  15  17
TORSDOF 9
ENDMDL
MODEL 4
REMARK VINA RESULT:      -7.7      1.728      2.784
REMARK  Name = 
REMARK  9 active torsions:
REMARK  status: ('A' for Active; 'I' for Inactive)
REMARK    1  A    between atoms: O_2  and  C_3
REMARK    2  A    between atoms: C_3  and  C_4
REMARK    3  A    between atoms: C_4  and  N_5
REMARK    4  A    between atoms: N_5  and  C_6
REMARK    5  A    between atoms: C_9  and  C_12
REMARK    6  A    between atoms: C_15  and  C_17
REMARK    7  A    between atoms: N_21  and  C_22
REMARK    8  A    between atoms: C_22  and  C_23
REMARK    9  A    between atoms: C_26  and  C_27
REMARK                            x       y       z     vdW  Elec       q    Type
REMARK                         _______ _______ _______ _____ _____    ______ ____
ROOT
ATOM     12  C   UNL     1      -0.159   1.024  24.065  0.00  0.00    +0.205 A 
ATOM     13  N   UNL     1      -0.266   1.413  24.785  0.00  0.00    -0.056 NA
ATOM     14  O   UNL     1      -1.077   1.463  24.929  0.00  0.00    -0.336 OA
ATOM     15  C   UNL     1      -1.471   1.105  24.299  0.00  0.00    +0.251 A 
ATOM     16  N   UNL     1      -0.904   0.834  23.764  0.00  0.00    -0.190 NA
ENDROOT
BRANCH  12   9
ATOM      6  C   UNL     1       2.014   0.518  22.994  0.00  0.00    +0.148 A 
ATOM      7  C   UNL     1       1.390  -0.017  22.933  0.00  0.00    +0.036 A 
ATOM      8  C   UNL     1       0.666   0.151  23.290  0.00  0.00    +0.008 A 
ATOM      9  C   UNL     1       0.566   0.856  23.708  0.00  0.00    +0.058 A 
ATOM     10  C   UNL     1       1.191   1.392  23.768  0.00  0.00    +0.103 A 
ATOM     11  N   UNL     1       1.915   1.223  23.411  0.00  0.00    -0.228 NA
BRANCH   6   5
ATOM      5  N   UNL     1       2.739   0.349  22.637  0.00  0.00    -0.218 NA
BRANCH   5   4
ATOM      4  C   UNL     1       3.438   0.639  22.965  0.00  0.00    +0.146 C 
BRANCH   4   3
ATOM      3  C   UNL     1       4.162   0.311  22.744  0.00  0.00    +0.166 C 
BRANCH   3   2
ATOM      1  C   UNL     1       5.432   0.116  23.369  0.00  0.00    +0.174 C 
ATOM      2  O   UNL     1       4.864   0.621  23.048  0.00  0.00    -0.349 OA
ENDBRANCH   3   2
ENDBRANCH   4   3
ENDBRANCH   5   4
ENDBRANCH   6   5
ENDBRANCH  12   9
BRANCH  15  17
ATOM     17  C   UNL     1      -2.288   1.032  24.217  0.00  0.00    +0.138 C 
ATOM     18  C   UNL     1      -2.776   1.521  23.767  0.00  0.00    +0.027 C 
ATOM     19  C   UNL     1      -3.551   1.248  23.842  0.00  0.00    +0.019 C 
ATOM     20  C   UNL     1      -3.542   0.589  24.338  0.00  0.00    +0.073 C 
ATOM     21  N   UNL     1      -2.762   0.455  24.570  0.00  0.00    -0.260 NA
BRANCH  21  22
ATOM     22  C   UNL     1      -2.500  -0.149  25.067  0.00  0.00    +0.138 C 
BRANCH  22  23
ATOM     23  C   UNL     1      -2.907  -0.865  25.095  0.00  0.00    +0.139 A 
ATOM     24  C   UNL     1      -3.406  -1.117  25.702  0.00  0.00    +0.037 A 
ATOM     25  C   UNL     1      -3.694  -1.864  25.503  0.00  0.00    +0.038 A 
ATOM     26  C   UNL     1      -3.374  -2.074  24.772  0.00  0.00    +0.156 A 
ATOM     29  O   UNL     1      -2.888  -1.457  24.520  0.00  0.00    -0.458 OA
BRANCH  26  27
ATOM     27  C   UNL     1      -3.516  -2.777  24.365  0.00  0.00    +0.246 C 
ATOM     28  O   UNL     1      -4.228  -2.885  23.962  0.00  0.00    -0.212 OA
ENDBRANCH  26  27
ENDBRANCH  22  23
ENDBRANCH  21  22
ENDBRANCH  15  17
TORSDOF 9
ENDMDL
MODEL 5
REMARK VINA RESULT:      -7.7      2.510      4.937
REMARK  Name = 
REMARK  9 active torsions:
REMARK  status: ('A' for Active; 'I' for Inactive)
REMARK    1  A    between atoms: O_2  and  C_3
REMARK    2  A    between atoms: C_3  and  C_4
REMARK    3  A    between atoms: C_4  and  N_5
REMARK    4  A    between atoms: N_5  and  C_6
REMARK    5  A    between atoms: C_9  and  C_12
REMARK    6  A    between atoms: C_15  and  C_17
REMARK    7  A    between atoms: N_21  and  C_22
REMARK    8  A    between atoms: C_22  and  C_23
REMARK    9  A    between atoms: C_26  and  C_27
REMARK                            x       y       z     vdW  Elec       q    Type
REMARK                         _______ _______ _______ _____ _____    ______ ____
ROOT
ATOM     12  C   UNL     1      -4.166   1.034  24.780  0.00  0.00    +0.205 A 
ATOM     13  N   UNL     1      -4.854   0.760  25.143  0.00  0.00    -0.056 NA
ATOM     14  O   UNL     1      -4.895  -0.056  25.030  0.00  0.00    -0.336 OA
ATOM     15  C   UNL     1      -4.232  -0.287  24.597  0.00  0.00    +0.251 A 
ATOM     16  N   UNL     1      -3.781   0.387  24.443  0.00  0.00    -0.190 NA
ENDROOT
BRANCH  12   9
ATOM      6  C   UNL     1      -3.391   3.384  24.716  0.00  0.00    +0.148 A 
ATOM      7  C   UNL     1      -3.384   2.928  24.029  0.00  0.00    +0.036 A 
ATOM      8  C   UNL     1      -3.642   2.145  24.050  0.00  0.00    +0.008 A 
ATOM      9  C   UNL     1      -3.908   1.817  24.759  0.00  0.00    +0.058 A 
ATOM     10  C   UNL     1      -3.914   2.273  25.447  0.00  0.00    +0.103 A 
ATOM     11  N   UNL     1      -3.656   3.057  25.426  0.00  0.00    -0.228 NA
BRANCH   6   5
ATOM      5  N   UNL     1      -3.132   4.167  24.694  0.00  0.00    -0.218 NA
BRANCH   5   4
ATOM      4  C   UNL     1      -2.413   4.374  25.042  0.00  0.00    +0.146 C 
BRANCH   4   3
ATOM      3  C   UNL     1      -2.070   5.104  24.871  0.00  0.00    +0.166 C 
BRANCH   3   2
ATOM      1  C   UNL     1      -0.664   5.356  24.812  0.00  0.00    +0.174 C 
ATOM      2  O   UNL     1      -1.367   5.326  25.243  0.00  0.00    -0.349 OA
ENDBRANCH   3   2
ENDBRANCH   4   3
ENDBRANCH   5   4
ENDBRANCH   6   5
ENDBRANCH  12   9
BRANCH  15  17
ATOM     17  C   UNL     1      -4.050  -1.056  24.360  0.00  0.00    +0.138 C 
ATOM     18  C   UNL     1      -4.475  -1.508  23.817  0.00  0.00    +0.027 C 
ATOM     19  C   UNL     1      -4.100  -2.240  23.746  0.00  0.00    +0.019 C 
ATOM     20  C   UNL     1      -3.444  -2.239  24.246  0.00  0.00    +0.073 C 
ATOM     21  N   UNL     1      -3.413  -1.508  24.626  0.00  0.00    -0.260 NA
BRANCH  21  22
ATOM     22  C   UNL     1      -2.845  -1.270  25.174  0.00  0.00    +0.138 C 
BRANCH  22  23
ATOM     23  C   UNL     1      -2.050  -1.448  25.048  0.00  0.00    +0.139 A 
ATOM     24  C   UNL     1      -1.682  -2.168  25.214  0.00  0.00    +0.037 A 
ATOM     25  C   UNL     1      -0.887  -2.103  25.003  0.00  0.00    +0.038 A 
ATOM     26  C   UNL     1      -0.764  -1.343  24.706  0.00  0.00    +0.156 A 
ATOM     29  O   UNL     1      -1.483  -0.939  24.734  0.00  0.00    -0.458 OA
BRANCH  26  27
ATOM     27  C   UNL     1      -0.048  -1.041  24.430  0.00  0.00    +0.246 C 
ATOM     28  O   UNL     1      -0.032  -0.570  23.752  0.00  0.00    -0.212 OA
ENDBRANCH  26  27
ENDBRANCH  22  23
ENDBRANCH  21  22
ENDBRANCH  15  17
TORSDOF 9
ENDMDL
MODEL 6
REMARK VINA RESULT:      -7.6      3.019      5.110
REMARK  Name = 
REMARK  9 active torsions:
REMARK  status: ('A' for Active; 'I' for Inactive)
REMARK    1  A    between atoms: O_2  and  C_3
REMARK    2  A    between atoms: C_3  and  C_4
REMARK    3  A    between atoms: C_4  and  N_5
REMARK    4  A    between atoms: N_5  and  C_6
REMARK    5  A    between atoms: C_9  and  C_12
REMARK    6  A    between atoms: C_15  and  C_17
REMARK    7  A    between atoms: N_21  and  C_22
REMARK    8  A    between atoms: C_22  and  C_23
REMARK    9  A    between atoms: C_26  and  C_27
REMARK                            x       y       z     vdW  Elec       q    Type
REMARK                         _______ _______ _______ _____ _____    ______ ____
ROOT
ATOM     12  C   UNL     1      -4.157   1.795  24.525  0.00  0.00    +0.205 A 
ATOM     13  N   UNL     1      -4.559   2.366  24.087  0.00  0.00    -0.056 NA
ATOM     14  O   UNL     1      -4.364   3.107  24.394  0.00  0.00    -0.336 OA
ATOM     15  C   UNL     1      -3.841   2.993  25.021  0.00  0.00    +0.251 A 
ATOM     16  N   UNL     1      -3.713   2.182  25.103  0.00  0.00    -0.190 NA
ENDROOT
BRANCH  12   9
ATOM      6  C   UNL     1      -4.264  -0.652  24.170  0.00  0.00    +0.148 A 
ATOM      7  C   UNL     1      -4.716  -0.302  24.764  0.00  0.00    +0.036 A 
ATOM      8  C   UNL     1      -4.680   0.514  24.882  0.00  0.00    +0.008 A 
ATOM      9  C   UNL     1      -4.193   0.979  24.407  0.00  0.00    +0.058 A 
ATOM     10  C   UNL     1      -3.740   0.628  23.812  0.00  0.00    +0.103 A 
ATOM     11  N   UNL     1      -3.776  -0.188  23.693  0.00  0.00    -0.228 NA
BRANCH   6   5
ATOM      5  N   UNL     1      -4.299  -1.468  24.052  0.00  0.00    -0.218 NA
BRANCH   5   4
ATOM      4  C   UNL     1      -3.777  -1.966  24.450  0.00  0.00    +0.146 C 
BRANCH   4   3
ATOM      3  C   UNL     1      -3.657  -2.737  24.181  0.00  0.00    +0.166 C 
BRANCH   3   2
ATOM      1  C   UNL     1      -2.335  -3.208  24.452  0.00  0.00    +0.174 C 
ATOM      2  O   UNL     1      -3.148  -3.242  24.590  0.00  0.00    -0.349 OA
ENDBRANCH   3   2
ENDBRANCH   4   3
ENDBRANCH   5   4
ENDBRANCH   6   5
ENDBRANCH  12   9
BRANCH  15  17
ATOM     17  C   UNL     1      -3.504   3.586  25.486  0.00  0.00    +0.138 C 
ATOM     18  C   UNL     1      -3.873   3.980  26.109  0.00  0.00    +0.027 C 
ATOM     19  C   UNL     1      -3.336   4.527  26.417  0.00  0.00    +0.019 C 
ATOM     20  C   UNL     1      -2.637   4.470  25.984  0.00  0.00    +0.073 C 
ATOM     21  N   UNL     1      -2.741   3.889  25.408  0.00  0.00    -0.260 NA
BRANCH  21  22
ATOM     22  C   UNL     1      -2.179   3.652  24.853  0.00  0.00    +0.138 C 
BRANCH  22  23
ATOM     23  C   UNL     1      -1.393   3.547  25.079  0.00  0.00    +0.139 A 
ATOM     24  C   UNL     1      -0.783   4.094  24.983  0.00  0.00    +0.037 A 
ATOM     25  C   UNL     1      -0.092   3.762  25.286  0.00  0.00    +0.038 A 
ATOM     26  C   UNL     1      -0.274   3.008  25.570  0.00  0.00    +0.156 A 
ATOM     29  O   UNL     1      -1.078   2.876  25.442  0.00  0.00    -0.458 OA
BRANCH  26  27
ATOM     27  C   UNL     1       0.255   2.481  25.919  0.00  0.00    +0.246 C 
ATOM     28  O   UNL     1       0.609   2.669  26.640  0.00  0.00    -0.212 OA
ENDBRANCH  26  27
ENDBRANCH  22  23
ENDBRANCH  21  22
ENDBRANCH  15  17
TORSDOF 9
ENDMDL
MODEL 7
REMARK VINA RESULT:      -7.3      2.009      5.676
REMARK  Name = 
REMARK  9 active torsions:
REMARK  status: ('A' for Active; 'I' for Inactive)
REMARK    1  A    between atoms: O_2  and  C_3
REMARK    2  A    between atoms: C_3  and  C_4
REMARK    3  A    between atoms: C_4  and  N_5
REMARK    4  A    between atoms: N_5  and  C_6
REMARK    5  A    between atoms: C_9  and  C_12
REMARK    6  A    between atoms: C_15  and  C_17
REMARK    7  A    between atoms: N_21  and  C_22
REMARK    8  A    between atoms: C_22  and  C_23
REMARK    9  A    between atoms: C_26  and  C_27
REMARK                            x       y       z     vdW  Elec       q    Type
REMARK                         _______ _______ _______ _____ _____    ______ ____
ROOT
ATOM     12  C   UNL     1      -1.008   2.268  24.628  0.00  0.00    +0.205 A 
ATOM     13  N   UNL     1      -0.240   2.482  24.839  0.00  0.00    -0.056 NA
ATOM     14  O   UNL     1       0.271   1.888  24.580  0.00  0.00    -0.336 OA
ATOM     15  C   UNL     1      -0.181   1.306  24.209  0.00  0.00    +0.251 A 
ATOM     16  N   UNL     1      -0.972   1.541  24.238  0.00  0.00    -0.190 NA
ENDROOT
BRANCH  12   9
ATOM      6  C   UNL     1      -3.060   3.575  25.083  0.00  0.00    +0.148 A 
ATOM      7  C   UNL     1      -2.466   3.528  25.653  0.00  0.00    +0.036 A 
ATOM      8  C   UNL     1      -1.782   3.092  25.501  0.00  0.00    +0.008 A 
ATOM      9  C   UNL     1      -1.692   2.703  24.780  0.00  0.00    +0.058 A 
ATOM     10  C   UNL     1      -2.287   2.750  24.209  0.00  0.00    +0.103 A 
ATOM     11  N   UNL     1      -2.971   3.186  24.360  0.00  0.00    -0.228 NA
BRANCH   6   5
ATOM      5  N   UNL     1      -3.744   4.010  25.234  0.00  0.00    -0.218 NA
BRANCH   5   4
ATOM      4  C   UNL     1      -4.368   3.667  25.651  0.00  0.00    +0.146 C 
BRANCH   4   3
ATOM      3  C   UNL     1      -5.146   3.862  25.459  0.00  0.00    +0.166 C 
BRANCH   3   2
ATOM      1  C   UNL     1      -6.150   2.883  25.735  0.00  0.00    +0.174 C 
ATOM      2  O   UNL     1      -5.768   3.588  25.929  0.00  0.00    -0.349 OA
ENDBRANCH   3   2
ENDBRANCH   4   3
ENDBRANCH   5   4
ENDBRANCH   6   5
ENDBRANCH  12   9
BRANCH  15  17
ATOM     17  C   UNL     1       0.106   0.612  23.868  0.00  0.00    +0.138 C 
ATOM     18  C   UNL     1       0.591   0.564  23.203  0.00  0.00    +0.027 C 
ATOM     19  C   UNL     1       0.743  -0.234  23.056  0.00  0.00    +0.019 C 
ATOM     20  C   UNL     1       0.352  -0.678  23.630  0.00  0.00    +0.073 C 
ATOM     21  N   UNL     1      -0.042  -0.155  24.132  0.00  0.00    -0.260 NA
BRANCH  21  22
ATOM     22  C   UNL     1      -0.503  -0.364  24.783  0.00  0.00    +0.138 C 
BRANCH  22  23
ATOM     23  C   UNL     1      -0.880  -1.096  24.804  0.00  0.00    +0.139 A 
ATOM     24  C   UNL     1      -0.591  -1.781  25.161  0.00  0.00    +0.037 A 
ATOM     25  C   UNL     1      -1.145  -2.382  25.049  0.00  0.00    +0.038 A 
ATOM     26  C   UNL     1      -1.778  -2.068  24.623  0.00  0.00    +0.156 A 
ATOM     29  O   UNL     1      -1.614  -1.274  24.471  0.00  0.00    -0.458 OA
BRANCH  26  27
ATOM     27  C   UNL     1      -2.455  -2.477  24.390  0.00  0.00    +0.246 C 
ATOM     28  O   UNL     1      -3.087  -2.563  24.913  0.00  0.00    -0.212 OA
ENDBRANCH  26  27
ENDBRANCH  22  23
ENDBRANCH  21  22
ENDBRANCH  15  17
TORSDOF 9
ENDMDL
MODEL 8
REMARK VINA RESULT:      -6.4     16.142     18.563
REMARK  Name = 
REMARK  9 active torsions:
REMARK  status: ('A' for Active; 'I' for Inactive)
REMARK    1  A    between atoms: O_2  and  C_3
REMARK    2  A    between atoms: C_3  and  C_4
REMARK    3  A    between atoms: C_4  and  N_5
REMARK    4  A    between atoms: N_5  and  C_6
REMARK    5  A    between atoms: C_9  and  C_12
REMARK    6  A    between atoms: C_15  and  C_17
REMARK    7  A    between atoms: N_21  and  C_22
REMARK    8  A    between atoms: C_22  and  C_23
REMARK    9  A    between atoms: C_26  and  C_27
REMARK                            x       y       z     vdW  Elec       q    Type
REMARK                         _______ _______ _______ _____ _____    ______ ____
ROOT
ATOM     12  C   UNL     1      13.005   8.130  20.513  0.00  0.00    +0.205 A 
ATOM     13  N   UNL     1      12.893   7.717  21.218  0.00  0.00    -0.056 NA
ATOM     14  O   UNL     1      13.594   7.757  21.651  0.00  0.00    -0.336 OA
ATOM     15  C   UNL     1      14.139   8.195  21.214  0.00  0.00    +0.251 A 
ATOM     16  N   UNL     1      13.775   8.426  20.510  0.00  0.00    -0.190 NA
ENDROOT
BRANCH  12   9
ATOM      6  C   UNL     1      11.325   8.430  18.719  0.00  0.00    +0.148 A 
ATOM      7  C   UNL     1      12.087   8.731  18.625  0.00  0.00    +0.036 A 
ATOM      8  C   UNL     1      12.647   8.631  19.223  0.00  0.00    +0.008 A 
ATOM      9  C   UNL     1      12.445   8.230  19.915  0.00  0.00    +0.058 A 
ATOM     10  C   UNL     1      11.682   7.929  20.009  0.00  0.00    +0.103 A 
ATOM     11  N   UNL     1      11.122   8.029  19.411  0.00  0.00    -0.228 NA
BRANCH   6   5
ATOM      5  N   UNL     1      10.766   8.530  18.122  0.00  0.00    -0.218 NA
BRANCH   5   4
ATOM      4  C   UNL     1      11.008   8.592  17.336  0.00  0.00    +0.146 C 
BRANCH   4   3
ATOM      3  C   UNL     1      10.445   8.616  16.733  0.00  0.00    +0.166 C 
BRANCH   3   2
ATOM      1  C   UNL     1      10.792   9.094  15.432  0.00  0.00    +0.174 C 
ATOM      2  O   UNL     1      10.670   8.466  15.953  0.00  0.00    -0.349 OA
ENDBRANCH   3   2
ENDBRANCH   4   3
ENDBRANCH   5   4
ENDBRANCH   6   5
ENDBRANCH  12   9
BRANCH  15  17
ATOM     17  C   UNL     1      14.913   8.372  21.440  0.00  0.00    +0.138 C 
ATOM     18  C   UNL     1      15.176   9.092  21.742  0.00  0.00    +0.027 C 
ATOM     19  C   UNL     1      15.985   9.025  21.892  0.00  0.00    +0.019 C 
ATOM     20  C   UNL     1      16.220   8.262  21.683  0.00  0.00    +0.073 C 
ATOM     21  N   UNL     1      15.558   7.859  21.404  0.00  0.00    -0.260 NA
BRANCH  21  22
ATOM     22  C   UNL     1      15.543   7.079  21.135  0.00  0.00    +0.138 C 
BRANCH  22  23
ATOM     23  C   UNL     1      16.201   6.762  20.753  0.00  0.00    +0.139 A 
ATOM     24  C   UNL     1      16.893   6.498  21.116  0.00  0.00    +0.037 A 
ATOM     25  C   UNL     1      17.403   6.226  20.528  0.00  0.00    +0.038 A 
ATOM     26  C   UNL     1      17.026   6.321  19.800  0.00  0.00    +0.156 A 
ATOM     29  O   UNL     1      16.284   6.652  19.939  0.00  0.00    -0.458 OA
BRANCH  26  27
ATOM     27  C   UNL     1      17.338   6.120  19.064  0.00  0.00    +0.246 C 
ATOM     28  O   UNL     1      17.009   5.499  18.631  0.00  0.00    -0.212 OA
ENDBRANCH  26  27
ENDBRANCH  22  23
ENDBRANCH  21  22
ENDBRANCH  15  17
TORSDOF 9
ENDMDL
MODEL 9
REMARK VINA RESULT:      -4.9     15.115     17.255
REMARK  Name = 
REMARK  9 active torsions:
REMARK  status: ('A' for Active; 'I' for Inactive)
REMARK    1  A    between atoms: O_2  and  C_3
REMARK    2  A    between atoms: C_3  and  C_4
REMARK    3  A    between atoms: C_4  and  N_5
REMARK    4  A    between atoms: N_5  and  C_6
REMARK    5  A    between atoms: C_9  and  C_12
REMARK    6  A    between atoms: C_15  and  C_17
REMARK    7  A    between atoms: N_21  and  C_22
REMARK    8  A    between atoms: C_22  and  C_23
REMARK    9  A    between atoms: C_26  and  C_27
REMARK                            x       y       z     vdW  Elec       q    Type
REMARK                         _______ _______ _______ _____ _____    ______ ____
ROOT
ATOM     12  C   UNL     1      14.068   7.686  21.432  0.00  0.00    +0.205 A 
ATOM     13  N   UNL     1      13.952   8.221  22.049  0.00  0.00    -0.056 NA
ATOM     14  O   UNL     1      13.139   8.326  22.147  0.00  0.00    -0.336 OA
ATOM     15  C   UNL     1      12.753   7.855  21.590  0.00  0.00    +0.251 A 
ATOM     16  N   UNL     1      13.327   7.460  21.148  0.00  0.00    -0.190 NA
ENDROOT
BRANCH  12   9
ATOM      6  C   UNL     1      16.254   6.898  20.581  0.00  0.00    +0.148 A 
ATOM      7  C   UNL     1      15.919   6.545  21.246  0.00  0.00    +0.036 A 
ATOM      8  C   UNL     1      15.191   6.807  21.530  0.00  0.00    +0.008 A 
ATOM      9  C   UNL     1      14.797   7.424  21.148  0.00  0.00    +0.058 A 
ATOM     10  C   UNL     1      15.132   7.777  20.482  0.00  0.00    +0.103 A 
ATOM     11  N   UNL     1      15.861   7.515  20.198  0.00  0.00    -0.228 NA
BRANCH   6   5
ATOM      5  N   UNL     1      16.983   6.635  20.297  0.00  0.00    -0.218 NA
BRANCH   5   4
ATOM      4  C   UNL     1      17.026   5.949  19.842  0.00  0.00    +0.146 C 
BRANCH   4   3
ATOM      3  C   UNL     1      17.405   5.963  19.110  0.00  0.00    +0.166 C 
BRANCH   3   2
ATOM      1  C   UNL     1      17.085   5.508  17.794  0.00  0.00    +0.174 C 
ATOM      2  O   UNL     1      17.293   5.344  18.575  0.00  0.00    -0.349 OA
ENDBRANCH   3   2
ENDBRANCH   4   3
ENDBRANCH   5   4
ENDBRANCH   6   5
ENDBRANCH  12   9
BRANCH  15  17
ATOM     17  C   UNL     1      11.936   7.791  21.492  0.00  0.00    +0.138 C 
ATOM     18  C   UNL     1      11.430   7.322  21.943  0.00  0.00    +0.027 C 
ATOM     19  C   UNL     1      10.663   7.425  21.656  0.00  0.00    +0.019 C 
ATOM     20  C   UNL     1      10.696   7.959  21.028  0.00  0.00    +0.073 C 
ATOM     21  N   UNL     1      11.483   8.185  20.927  0.00  0.00    -0.260 NA
BRANCH  21  22
ATOM     22  C   UNL     1      11.766   8.712  20.360  0.00  0.00    +0.138 C 
BRANCH  22  23
ATOM     23  C   UNL     1      11.496   8.666  19.582  0.00  0.00    +0.139 A 
ATOM     24  C   UNL     1      10.733   8.842  19.322  0.00  0.00    +0.037 A 
ATOM     25  C   UNL     1      10.706   8.721  18.507  0.00  0.00    +0.038 A 
ATOM     26  C   UNL     1      11.454   8.470  18.262  0.00  0.00    +0.156 A 
ATOM     29  O   UNL     1      11.941   8.437  18.927  0.00  0.00    -0.458 OA
BRANCH  26  27
ATOM     27  C   UNL     1      11.673   8.286  17.489  0.00  0.00    +0.246 C 
ATOM     28  O   UNL     1      11.150   7.881  16.996  0.00  0.00    -0.212 OA
ENDBRANCH  26  27
ENDBRANCH  22  23
ENDBRANCH  21  22
ENDBRANCH  15  17
TORSDOF 9
ENDMDL
MODEL 10
REMARK VINA RESULT:      -4.8     13.837     16.864
REMARK  Name = 
REMARK  9 active torsions:
REMARK  status: ('A' for Active; 'I' for Inactive)
REMARK    1  A    between atoms: O_2  and  C_3
REMARK    2  A    between atoms: C_3  and  C_4
REMARK    3  A    between atoms: C_4  and  N_5
REMARK    4  A    between atoms: N_5  and  C_6
REMARK    5  A    between atoms: C_9  and  C_12
REMARK    6  A    between atoms: C_15  and  C_17
REMARK    7  A    between atoms: N_21  and  C_22
REMARK    8  A    between atoms: C_22  and  C_23
REMARK    9  A    between atoms: C_26  and  C_27
REMARK                            x       y       z     vdW  Elec       q    Type
REMARK                         _______ _______ _______ _____ _____    ______ ____
ROOT
ATOM     12  C   UNL     1      14.082   8.157  21.147  0.00  0.00    +0.205 A 
ATOM     13  N   UNL     1      14.038   8.702  21.764  0.00  0.00    -0.056 NA
ATOM     14  O   UNL     1      13.245   8.911  21.864  0.00  0.00    -0.336 OA
ATOM     15  C   UNL     1      12.800   8.495  21.308  0.00  0.00    +0.251 A 
ATOM     16  N   UNL     1      13.317   8.029  20.864  0.00  0.00    -0.190 NA
ENDROOT
BRANCH  12   9
ATOM      6  C   UNL     1      16.146   7.093  20.290  0.00  0.00    +0.148 A 
ATOM      7  C   UNL     1      15.796   6.815  20.983  0.00  0.00    +0.036 A 
ATOM      8  C   UNL     1      15.108   7.170  21.268  0.00  0.00    +0.008 A 
ATOM      9  C   UNL     1      14.770   7.802  20.861  0.00  0.00    +0.058 A 
ATOM     10  C   UNL     1      15.120   8.080  20.167  0.00  0.00    +0.103 A 
ATOM     11  N   UNL     1      15.808   7.725  19.881  0.00  0.00    -0.228 NA
BRANCH   6   5
ATOM      5  N   UNL     1      16.834   6.738  20.004  0.00  0.00    -0.218 NA
BRANCH   5   4
ATOM      4  C   UNL     1      16.785   6.067  19.527  0.00  0.00    +0.146 C 
BRANCH   4   3
ATOM      3  C   UNL     1      17.405   5.878  19.017  0.00  0.00    +0.166 C 
BRANCH   3   2
ATOM      1  C   UNL     1      17.375   5.281  17.719  0.00  0.00    +0.174 C 
ATOM      2  O   UNL     1      17.357   5.206  18.541  0.00  0.00    -0.349 OA
ENDBRANCH   3   2
ENDBRANCH   4   3
ENDBRANCH   5   4
ENDBRANCH   6   5
ENDBRANCH  12   9
BRANCH  15  17
ATOM     17  C   UNL     1      11.982   8.537  21.212  0.00  0.00    +0.138 C 
ATOM     18  C   UNL     1      11.576   9.093  20.759  0.00  0.00    +0.027 C 
ATOM     19  C   UNL     1      10.769   8.930  20.819  0.00  0.00    +0.019 C 
ATOM     20  C   UNL     1      10.677   8.273  21.309  0.00  0.00    +0.073 C 
ATOM     21  N   UNL     1      11.427   8.030  21.552  0.00  0.00    -0.260 NA
BRANCH  21  22
ATOM     22  C   UNL     1      11.592   7.392  22.048  0.00  0.00    +0.138 C 
BRANCH  22  23
ATOM     23  C   UNL     1      11.183   6.682  21.957  0.00  0.00    +0.139 A 
ATOM     24  C   UNL     1      10.384   6.557  22.121  0.00  0.00    +0.037 A 
ATOM     25  C   UNL     1      10.208   5.770  21.951  0.00  0.00    +0.038 A 
ATOM     26  C   UNL     1      10.898   5.407  21.681  0.00  0.00    +0.156 A 
ATOM     29  O   UNL     1      11.500   5.971  21.684  0.00  0.00    -0.458 OA
BRANCH  26  27
ATOM     27  C   UNL     1      10.972   4.619  21.449  0.00  0.00    +0.246 C 
ATOM     28  O   UNL     1      10.417   4.285  20.938  0.00  0.00    -0.212 OA
ENDBRANCH  26  27
ENDBRANCH  22  23
ENDBRANCH  21  22
ENDBRANCH  15  17
TORSDOF 9
ENDMDL
