MODEL 1
REMARK VINA RESULT:     -10.3      0.000      0.000
REMARK  Name = 
REMARK  8 active torsions:
REMARK  status: ('A' for Active; 'I' for Inactive)
REMARK    1  A    between atoms: C_2  and  C_3
REMARK    2  A    between atoms: C_5  and  O_25
REMARK    3  A    between atoms: C_10  and  C_11
REMARK    4  A    between atoms: C_11  and  C_12
REMARK    5  A    between atoms: O_25  and  C_26
REMARK    6  A    between atoms: N_28  and  C_29
REMARK    7  A    between atoms: C_32  and  O_33
REMARK    8  A    between atoms: O_33  and  C_34
REMARK                            x       y       z     vdW  Elec       q    Type
REMARK                         _______ _______ _______ _____ _____    ______ ____
ROOT
ATOM      1  C   UNL     1      -1.438  -1.800  24.248  0.00  0.00    +0.006 C 
ATOM      2  C   UNL     1      -1.948  -1.189  24.464  0.00  0.00    +0.068 C 
ATOM      5  C   UNL     1      -1.285  -0.751  24.242  0.00  0.00    +0.173 C 
ATOM      6  C   UNL     1      -1.301   0.073  24.287  0.00  0.00    +0.044 C 
ATOM      7  C   UNL     1      -1.980   0.458  24.555  0.00  0.00    +0.004 C 
ATOM      8  C   UNL     1      -2.642   0.020  24.778  0.00  0.00    +0.003 C 
ATOM      9  C   UNL     1      -2.658   0.843  24.823  0.00  0.00    +0.000 C 
ATOM     10  C   UNL     1      -3.321   0.405  25.046  0.00  0.00    +0.040 C 
ATOM     20  C   UNL     1      -3.983  -0.033  25.268  0.00  0.00    +0.152 C 
ATOM     21  O   UNL     1      -4.662   0.352  25.536  0.00  0.00    -0.223 OA
ATOM     22  C   UNL     1      -3.967  -0.857  25.223  0.00  0.00    +0.033 C 
ATOM     23  C   UNL     1      -3.289  -1.242  24.955  0.00  0.00    +0.003 C 
ATOM     24  C   UNL     1      -2.626  -0.804  24.732  0.00  0.00    +0.006 C 
ENDROOT
BRANCH   2   3
ATOM      3  C   UNL     1      -2.433  -1.840  24.612  0.00  0.00    +0.185 C 
ATOM      4  O   UNL     1      -2.152  -2.604  24.475  0.00  0.00    -0.220 OA
ENDBRANCH   2   3
BRANCH  10  11
ATOM     11  C   UNL     1      -3.337   1.229  25.091  0.00  0.00    +0.088 C 
BRANCH  11  12
ATOM     12  C   UNL     1      -3.992   1.645  24.812  0.00  0.00    +0.226 C 
ATOM     13  O   UNL     1      -4.513   1.286  24.282  0.00  0.00    -0.275 OA
ATOM     14  N   UNL     1      -4.126   2.419  25.061  0.00  0.00    -0.277 N 
ATOM     15  C   UNL     1      -3.655   2.848  25.585  0.00  0.00    +0.096 C 
ATOM     16  C   UNL     1      -3.993   3.595  25.678  0.00  0.00    +0.056 C 
ATOM     17  C   UNL     1      -4.672   3.628  25.211  0.00  0.00    +0.173 C 
ATOM     18  O   UNL     1      -5.180   4.274  25.138  0.00  0.00    -0.221 OA
ATOM     19  C   UNL     1      -4.754   2.901  24.829  0.00  0.00    +0.126 C 
ENDBRANCH  11  12
ENDBRANCH  10  11
BRANCH   5  25
ATOM     25  O   UNL     1      -0.606  -1.136  23.974  0.00  0.00    -0.437 OA
BRANCH  25  26
ATOM     26  C   UNL     1       0.095  -0.714  23.872  0.00  0.00    +0.425 C 
ATOM     27  O   UNL     1       0.491  -0.409  24.530  0.00  0.00    -0.224 OA
ATOM     28  N   UNL     1       0.402  -0.598  23.116  0.00  0.00    -0.142 NA
BRANCH  28  29
ATOM     29  C   UNL     1       1.103  -0.176  23.015  0.00  0.00    +0.077 A 
ATOM     30  C   UNL     1       1.252   0.494  23.473  0.00  0.00    +0.020 A 
ATOM     31  C   UNL     1       1.953   0.915  23.373  0.00  0.00    +0.039 A 
ATOM     32  C   UNL     1       2.507   0.667  22.813  0.00  0.00    +0.145 A 
ATOM     40  C   UNL     1       2.359  -0.003  22.355  0.00  0.00    +0.039 A 
ATOM     41  C   UNL     1       1.657  -0.425  22.455  0.00  0.00    +0.020 A 
BRANCH  32  33
ATOM     33  O   UNL     1       3.209   1.089  22.712  0.00  0.00    -0.453 OA
BRANCH  33  34
ATOM     34  C   UNL     1       3.929   0.753  22.933  0.00  0.00    +0.145 A 
ATOM     35  C   UNL     1       4.195   0.822  23.712  0.00  0.00    +0.037 A 
ATOM     36  C   UNL     1       4.916   0.485  23.932  0.00  0.00    +0.003 A 
ATOM     37  C   UNL     1       5.369   0.079  23.376  0.00  0.00    +0.000 A 
ATOM     38  C   UNL     1       5.103   0.010  22.597  0.00  0.00    +0.003 A 
ATOM     39  C   UNL     1       4.383   0.347  22.376  0.00  0.00    +0.037 A 
ENDBRANCH  33  34
ENDBRANCH  32  33
ENDBRANCH  28  29
ENDBRANCH  25  26
ENDBRANCH   5  25
TORSDOF 8
ENDMDL
MODEL 2
REMARK VINA RESULT:     -10.1      2.745      4.992
REMARK  Name = 
REMARK  8 active torsions:
REMARK  status: ('A' for Active; 'I' for Inactive)
REMARK    1  A    between atoms: C_2  and  C_3
REMARK    2  A    between atoms: C_5  and  O_25
REMARK    3  A    between atoms: C_10  and  C_11
REMARK    4  A    between atoms: C_11  and  C_12
REMARK    5  A    between atoms: O_25  and  C_26
REMARK    6  A    between atoms: N_28  and  C_29
REMARK    7  A    between atoms: C_32  and  O_33
REMARK    8  A    between atoms: O_33  and  C_34
REMARK                            x       y       z     vdW  Elec       q    Type
REMARK                         _______ _______ _______ _____ _____    ______ ____
ROOT
ATOM      1  C   UNL     1       0.244   2.445  24.348  0.00  0.00    +0.006 C 
ATOM      2  C   UNL     1      -0.387   2.892  24.636  0.00  0.00    +0.068 C 
ATOM      5  C   UNL     1      -0.679   2.132  24.764  0.00  0.00    +0.173 C 
ATOM      6  C   UNL     1      -1.426   2.029  25.100  0.00  0.00    +0.044 C 
ATOM      7  C   UNL     1      -1.879   2.686  25.308  0.00  0.00    +0.004 C 
ATOM      8  C   UNL     1      -1.586   3.445  25.180  0.00  0.00    +0.003 C 
ATOM      9  C   UNL     1      -2.332   3.342  25.516  0.00  0.00    +0.000 C 
ATOM     10  C   UNL     1      -2.039   4.103  25.388  0.00  0.00    +0.040 C 
ATOM     20  C   UNL     1      -1.747   4.863  25.260  0.00  0.00    +0.152 C 
ATOM     21  O   UNL     1      -2.199   5.521  25.468  0.00  0.00    -0.223 OA
ATOM     22  C   UNL     1      -0.999   4.967  24.924  0.00  0.00    +0.033 C 
ATOM     23  C   UNL     1      -0.547   4.310  24.716  0.00  0.00    +0.003 C 
ATOM     24  C   UNL     1      -0.839   3.549  24.844  0.00  0.00    +0.006 C 
ENDROOT
BRANCH   2   3
ATOM      3  C   UNL     1       0.126   3.497  24.408  0.00  0.00    +0.185 C 
ATOM      4  O   UNL     1       0.803   3.321  23.970  0.00  0.00    -0.220 OA
ENDBRANCH   2   3
BRANCH  10  11
ATOM     11  C   UNL     1      -2.785   4.000  25.725  0.00  0.00    +0.088 C 
BRANCH  11  12
ATOM     12  C   UNL     1      -3.462   4.198  25.297  0.00  0.00    +0.226 C 
ATOM     13  O   UNL     1      -3.393   4.606  24.582  0.00  0.00    -0.275 OA
ATOM     14  N   UNL     1      -4.207   3.990  25.583  0.00  0.00    -0.277 N 
ATOM     15  C   UNL     1      -4.361   3.584  26.284  0.00  0.00    +0.096 C 
ATOM     16  C   UNL     1      -5.178   3.494  26.352  0.00  0.00    +0.056 C 
ATOM     17  C   UNL     1      -5.529   3.844  25.693  0.00  0.00    +0.173 C 
ATOM     18  O   UNL     1      -6.338   3.881  25.536  0.00  0.00    -0.221 OA
ATOM     19  C   UNL     1      -4.929   4.150  25.217  0.00  0.00    +0.126 C 
ENDBRANCH  11  12
ENDBRANCH  10  11
BRANCH   5  25
ATOM     25  O   UNL     1      -0.226   1.474  24.556  0.00  0.00    -0.437 OA
BRANCH  25  26
ATOM     26  C   UNL     1      -0.579   0.731  24.498  0.00  0.00    +0.425 C 
ATOM     27  O   UNL     1      -1.147   0.588  23.915  0.00  0.00    -0.224 OA
ATOM     28  N   UNL     1      -0.365   0.130  25.020  0.00  0.00    -0.142 NA
BRANCH  28  29
ATOM     29  C   UNL     1      -0.718  -0.613  24.962  0.00  0.00    +0.077 A 
ATOM     30  C   UNL     1      -0.608  -1.070  24.284  0.00  0.00    +0.020 A 
ATOM     31  C   UNL     1      -0.961  -1.813  24.226  0.00  0.00    +0.039 A 
ATOM     32  C   UNL     1      -1.425  -2.100  24.847  0.00  0.00    +0.145 A 
ATOM     40  C   UNL     1      -1.534  -1.643  25.524  0.00  0.00    +0.039 A 
ATOM     41  C   UNL     1      -1.182  -0.899  25.583  0.00  0.00    +0.020 A 
BRANCH  32  33
ATOM     33  O   UNL     1      -1.778  -2.843  24.788  0.00  0.00    -0.453 OA
BRANCH  33  34
ATOM     34  C   UNL     1      -2.566  -2.909  24.557  0.00  0.00    +0.145 A 
ATOM     35  C   UNL     1      -2.753  -3.175  23.798  0.00  0.00    +0.037 A 
ATOM     36  C   UNL     1      -3.543  -3.241  23.567  0.00  0.00    +0.003 A 
ATOM     37  C   UNL     1      -4.145  -3.041  24.093  0.00  0.00    +0.000 A 
ATOM     38  C   UNL     1      -3.958  -2.775  24.852  0.00  0.00    +0.003 A 
ATOM     39  C   UNL     1      -3.169  -2.709  25.084  0.00  0.00    +0.037 A 
ENDBRANCH  33  34
ENDBRANCH  32  33
ENDBRANCH  28  29
ENDBRANCH  25  26
ENDBRANCH   5  25
TORSDOF 8
ENDMDL
MODEL 3
REMARK VINA RESULT:     -10.0      1.527      3.090
REMARK  Name = 
REMARK  8 active torsions:
REMARK  status: ('A' for Active; 'I' for Inactive)
REMARK    1  A    between atoms: C_2  and  C_3
REMARK    2  A    between atoms: C_5  and  O_25
REMARK    3  A    between atoms: C_10  and  C_11
REMARK    4  A    between atoms: C_11  and  C_12
REMARK    5  A    between atoms: O_25  and  C_26
REMARK    6  A    between atoms: N_28  and  C_29
REMARK    7  A    between atoms: C_32  and  O_33
REMARK    8  A    between atoms: O_33  and  C_34
REMARK                            x       y       z     vdW  Elec       q    Type
REMARK                         _______ _______ _______ _____ _____    ______ ____
ROOT
ATOM      1  C   UNL     1      -0.885   2.820  24.550  0.00  0.00    +0.006 C 
ATOM      2  C   UNL     1      -1.453   2.227  24.627  0.00  0.00    +0.068 C 
ATOM      5  C   UNL     1      -0.775   1.766  24.548  0.00  0.00    +0.173 C 
ATOM      6  C   UNL     1      -0.831   0.942  24.565  0.00  0.00    +0.044 C 
ATOM      7  C   UNL     1      -1.566   0.581  24.660  0.00  0.00    +0.004 C 
ATOM      8  C   UNL     1      -2.245   1.042  24.739  0.00  0.00    +0.003 C 
ATOM      9  C   UNL     1      -2.301   0.220  24.755  0.00  0.00    +0.000 C 
ATOM     10  C   UNL     1      -2.981   0.682  24.834  0.00  0.00    +0.040 C 
ATOM     20  C   UNL     1      -3.660   1.143  24.913  0.00  0.00    +0.152 C 
ATOM     21  O   UNL     1      -4.396   0.782  25.008  0.00  0.00    -0.223 OA
ATOM     22  C   UNL     1      -3.603   1.967  24.897  0.00  0.00    +0.033 C 
ATOM     23  C   UNL     1      -2.868   2.327  24.802  0.00  0.00    +0.003 C 
ATOM     24  C   UNL     1      -2.188   1.866  24.722  0.00  0.00    +0.006 C 
ENDROOT
BRANCH   2   3
ATOM      3  C   UNL     1      -1.935   2.895  24.680  0.00  0.00    +0.185 C 
ATOM      4  O   UNL     1      -1.598   3.648  24.671  0.00  0.00    -0.220 OA
ENDBRANCH   2   3
BRANCH  10  11
ATOM     11  C   UNL     1      -3.038  -0.141  24.850  0.00  0.00    +0.088 C 
BRANCH  11  12
ATOM     12  C   UNL     1      -3.517  -0.533  24.305  0.00  0.00    +0.226 C 
ATOM     13  O   UNL     1      -3.877  -0.110  23.694  0.00  0.00    -0.275 OA
ATOM     14  N   UNL     1      -3.636  -1.346  24.370  0.00  0.00    -0.277 N 
ATOM     15  C   UNL     1      -3.314  -1.839  24.947  0.00  0.00    +0.096 C 
ATOM     16  C   UNL     1      -3.577  -2.608  24.803  0.00  0.00    +0.056 C 
ATOM     17  C   UNL     1      -4.062  -2.590  24.135  0.00  0.00    +0.173 C 
ATOM     18  O   UNL     1      -4.443  -3.237  23.795  0.00  0.00    -0.221 OA
ATOM     19  C   UNL     1      -4.098  -1.810  23.867  0.00  0.00    +0.126 C 
ENDBRANCH  11  12
ENDBRANCH  10  11
BRANCH   5  25
ATOM     25  O   UNL     1      -0.038   2.126  24.453  0.00  0.00    -0.437 OA
BRANCH  25  26
ATOM     26  C   UNL     1       0.618   1.676  24.234  0.00  0.00    +0.425 C 
ATOM     27  O   UNL     1       1.022   1.234  24.802  0.00  0.00    -0.224 OA
ATOM     28  N   UNL     1       0.869   1.667  23.449  0.00  0.00    -0.142 NA
BRANCH  28  29
ATOM     29  C   UNL     1       1.525   1.217  23.231  0.00  0.00    +0.077 A 
ATOM     30  C   UNL     1       1.443   0.408  23.092  0.00  0.00    +0.020 A 
ATOM     31  C   UNL     1       2.098  -0.042  22.874  0.00  0.00    +0.039 A 
ATOM     32  C   UNL     1       2.838   0.318  22.794  0.00  0.00    +0.145 A 
ATOM     40  C   UNL     1       2.920   1.126  22.933  0.00  0.00    +0.039 A 
ATOM     41  C   UNL     1       2.264   1.577  23.151  0.00  0.00    +0.020 A 
BRANCH  32  33
ATOM     33  O   UNL     1       3.493  -0.133  22.576  0.00  0.00    -0.453 OA
BRANCH  33  34
ATOM     34  C   UNL     1       4.148  -0.178  23.075  0.00  0.00    +0.145 A 
ATOM     35  C   UNL     1       4.245  -0.832  23.570  0.00  0.00    +0.037 A 
ATOM     36  C   UNL     1       4.900  -0.877  24.070  0.00  0.00    +0.003 A 
ATOM     37  C   UNL     1       5.458  -0.270  24.074  0.00  0.00    +0.000 A 
ATOM     38  C   UNL     1       5.361   0.383  23.579  0.00  0.00    +0.003 A 
ATOM     39  C   UNL     1       4.707   0.429  23.080  0.00  0.00    +0.037 A 
ENDBRANCH  33  34
ENDBRANCH  32  33
ENDBRANCH  28  29
ENDBRANCH  25  26
ENDBRANCH   5  25
TORSDOF 8
ENDMDL
MODEL 4
REMARK VINA RESULT:      -8.3      2.952      4.911
REMARK  Name = 
REMARK  8 active torsions:
REMARK  status: ('A' for Active; 'I' for Inactive)
REMARK    1  A    between atoms: C_2  and  C_3
REMARK    2  A    between atoms: C_5  and  O_25
REMARK    3  A    between atoms: C_10  and  C_11
REMARK    4  A    between atoms: C_11  and  C_12
REMARK    5  A    between atoms: O_25  and  C_26
REMARK    6  A    between atoms: N_28  and  C_29
REMARK    7  A    between atoms: C_32  and  O_33
REMARK    8  A    between atoms: O_33  and  C_34
REMARK                            x       y       z     vdW  Elec       q    Type
REMARK                         _______ _______ _______ _____ _____    ______ ____
ROOT
ATOM      1  C   UNL     1      -5.923   1.169  25.104  0.00  0.00    +0.006 C 
ATOM      2  C   UNL     1      -5.502   1.878  25.084  0.00  0.00    +0.068 C 
ATOM      5  C   UNL     1      -4.963   1.382  24.706  0.00  0.00    +0.173 C 
ATOM      6  C   UNL     1      -4.241   1.682  24.442  0.00  0.00    +0.044 C 
ATOM      7  C   UNL     1      -4.059   2.478  24.555  0.00  0.00    +0.004 C 
ATOM      8  C   UNL     1      -4.598   2.975  24.933  0.00  0.00    +0.003 C 
ATOM      9  C   UNL     1      -3.877   3.274  24.669  0.00  0.00    +0.000 C 
ATOM     10  C   UNL     1      -4.416   3.772  25.048  0.00  0.00    +0.040 C 
ATOM     20  C   UNL     1      -4.955   4.268  25.425  0.00  0.00    +0.152 C 
ATOM     21  O   UNL     1      -4.774   5.065  25.540  0.00  0.00    -0.223 OA
ATOM     22  C   UNL     1      -5.678   3.968  25.690  0.00  0.00    +0.033 C 
ATOM     23  C   UNL     1      -5.860   3.172  25.576  0.00  0.00    +0.003 C 
ATOM     24  C   UNL     1      -5.320   2.674  25.198  0.00  0.00    +0.006 C 
ENDROOT
BRANCH   2   3
ATOM      3  C   UNL     1      -6.188   2.128  25.469  0.00  0.00    +0.185 C 
ATOM      4  O   UNL     1      -6.821   1.608  25.563  0.00  0.00    -0.220 OA
ENDBRANCH   2   3
BRANCH  10  11
ATOM     11  C   UNL     1      -3.694   4.072  24.783  0.00  0.00    +0.088 C 
BRANCH  11  12
ATOM     12  C   UNL     1      -3.126   4.319  25.327  0.00  0.00    +0.226 C 
ATOM     13  O   UNL     1      -3.290   4.292  26.136  0.00  0.00    -0.275 OA
ATOM     14  N   UNL     1      -2.395   4.592  25.064  0.00  0.00    -0.277 N 
ATOM     15  C   UNL     1      -2.153   4.650  24.278  0.00  0.00    +0.096 C 
ATOM     16  C   UNL     1      -1.384   4.950  24.269  0.00  0.00    +0.056 C 
ATOM     17  C   UNL     1      -1.150   5.077  25.050  0.00  0.00    +0.173 C 
ATOM     18  O   UNL     1      -0.421   5.374  25.296  0.00  0.00    -0.221 OA
ATOM     19  C   UNL     1      -1.775   4.856  25.542  0.00  0.00    +0.126 C 
ENDBRANCH  11  12
ENDBRANCH  10  11
BRANCH   5  25
ATOM     25  O   UNL     1      -5.145   0.585  24.592  0.00  0.00    -0.437 OA
BRANCH  25  26
ATOM     26  C   UNL     1      -4.540   0.029  24.523  0.00  0.00    +0.425 C 
ATOM     27  O   UNL     1      -4.008   0.074  23.893  0.00  0.00    -0.224 OA
ATOM     28  N   UNL     1      -4.465  -0.572  25.082  0.00  0.00    -0.142 NA
BRANCH  28  29
ATOM     29  C   UNL     1      -3.861  -1.128  25.013  0.00  0.00    +0.077 A 
ATOM     30  C   UNL     1      -3.839  -1.636  24.363  0.00  0.00    +0.020 A 
ATOM     31  C   UNL     1      -3.234  -2.192  24.294  0.00  0.00    +0.039 A 
ATOM     32  C   UNL     1      -2.649  -2.241  24.875  0.00  0.00    +0.145 A 
ATOM     40  C   UNL     1      -2.671  -1.733  25.524  0.00  0.00    +0.039 A 
ATOM     41  C   UNL     1      -3.276  -1.177  25.594  0.00  0.00    +0.020 A 
BRANCH  32  33
ATOM     33  O   UNL     1      -2.044  -2.797  24.805  0.00  0.00    -0.453 OA
BRANCH  33  34
ATOM     34  C   UNL     1      -1.257  -2.553  24.803  0.00  0.00    +0.145 A 
ATOM     35  C   UNL     1      -0.751  -2.784  25.414  0.00  0.00    +0.037 A 
ATOM     36  C   UNL     1       0.037  -2.539  25.411  0.00  0.00    +0.003 A 
ATOM     37  C   UNL     1       0.320  -2.064  24.800  0.00  0.00    +0.000 A 
ATOM     38  C   UNL     1      -0.185  -1.833  24.189  0.00  0.00    +0.003 A 
ATOM     39  C   UNL     1      -0.973  -2.078  24.191  0.00  0.00    +0.037 A 
ENDBRANCH  33  34
ENDBRANCH  32  33
ENDBRANCH  28  29
ENDBRANCH  25  26
ENDBRANCH   5  25
TORSDOF 8
ENDMDL
MODEL 5
REMARK VINA RESULT:      -7.7     16.534     18.388
REMARK  Name = 
REMARK  8 active torsions:
REMARK  status: ('A' for Active; 'I' for Inactive)
REMARK    1  A    between atoms: C_2  and  C_3
REMARK    2  A    between atoms: C_5  and  O_25
REMARK    3  A    between atoms: C_10  and  C_11
REMARK    4  A    between atoms: C_11  and  C_12
REMARK    5  A    between atoms: O_25  and  C_26
REMARK    6  A    between atoms: N_28  and  C_29
REMARK    7  A    between atoms: C_32  and  O_33
REMARK    8  A    between atoms: O_33  and  C_34
REMARK                            x       y       z     vdW  Elec       q    Type
REMARK                         _______ _______ _______ _____ _____    ______ ____
ROOT
ATOM      1  C   UNL     1      16.499  -5.038  29.735  0.00  0.00    +0.006 C 
ATOM      2  C   UNL     1      15.778  -5.154  30.121  0.00  0.00    +0.068 C 
ATOM      5  C   UNL     1      15.748  -5.769  29.573  0.00  0.00    +0.173 C 
ATOM      6  C   UNL     1      15.094  -6.274  29.555  0.00  0.00    +0.044 C 
ATOM      7  C   UNL     1      14.472  -6.161  30.084  0.00  0.00    +0.004 C 
ATOM      8  C   UNL     1      14.502  -5.545  30.631  0.00  0.00    +0.003 C 
ATOM      9  C   UNL     1      13.850  -6.048  30.613  0.00  0.00    +0.000 C 
ATOM     10  C   UNL     1      13.879  -5.432  31.161  0.00  0.00    +0.040 C 
ATOM     20  C   UNL     1      13.910  -4.816  31.708  0.00  0.00    +0.152 C 
ATOM     21  O   UNL     1      13.287  -4.703  32.238  0.00  0.00    -0.223 OA
ATOM     22  C   UNL     1      14.564  -4.312  31.726  0.00  0.00    +0.033 C 
ATOM     23  C   UNL     1      15.186  -4.425  31.198  0.00  0.00    +0.003 C 
ATOM     24  C   UNL     1      15.156  -5.041  30.650  0.00  0.00    +0.006 C 
ENDROOT
BRANCH   2   3
ATOM      3  C   UNL     1      16.059  -4.498  30.534  0.00  0.00    +0.185 C 
ATOM      4  O   UNL     1      16.791  -4.170  30.340  0.00  0.00    -0.220 OA
ENDBRANCH   2   3
BRANCH  10  11
ATOM     11  C   UNL     1      13.226  -5.935  31.142  0.00  0.00    +0.088 C 
BRANCH  11  12
ATOM     12  C   UNL     1      12.997  -6.340  31.823  0.00  0.00    +0.226 C 
ATOM     13  O   UNL     1      13.484  -6.333  32.490  0.00  0.00    -0.275 OA
ATOM     14  N   UNL     1      12.283  -6.750  31.839  0.00  0.00    -0.277 N 
ATOM     15  C   UNL     1      11.742  -6.806  31.219  0.00  0.00    +0.096 C 
ATOM     16  C   UNL     1      11.107  -7.268  31.475  0.00  0.00    +0.056 C 
ATOM     17  C   UNL     1      11.256  -7.498  32.253  0.00  0.00    +0.173 C 
ATOM     18  O   UNL     1      10.766  -7.965  32.723  0.00  0.00    -0.221 OA
ATOM     19  C   UNL     1      11.983  -7.178  32.478  0.00  0.00    +0.126 C 
ENDBRANCH  11  12
ENDBRANCH  10  11
BRANCH   5  25
ATOM     25  O   UNL     1      16.371  -5.883  29.044  0.00  0.00    -0.437 OA
BRANCH  25  26
ATOM     26  C   UNL     1      16.312  -6.455  28.452  0.00  0.00    +0.425 C 
ATOM     27  O   UNL     1      16.195  -7.247  28.655  0.00  0.00    -0.224 OA
ATOM     28  N   UNL     1      16.370  -6.237  27.659  0.00  0.00    -0.142 NA
BRANCH  28  29
ATOM     29  C   UNL     1      16.311  -6.809  27.069  0.00  0.00    +0.077 A 
ATOM     30  C   UNL     1      15.604  -6.904  26.654  0.00  0.00    +0.020 A 
ATOM     31  C   UNL     1      15.545  -7.476  26.064  0.00  0.00    +0.039 A 
ATOM     32  C   UNL     1      16.195  -7.955  25.887  0.00  0.00    +0.145 A 
ATOM     40  C   UNL     1      16.901  -7.861  26.301  0.00  0.00    +0.039 A 
ATOM     41  C   UNL     1      16.961  -7.288  26.892  0.00  0.00    +0.020 A 
BRANCH  32  33
ATOM     33  O   UNL     1      16.135  -8.528  25.296  0.00  0.00    -0.453 OA
BRANCH  33  34
ATOM     34  C   UNL     1      15.843  -9.277  25.475  0.00  0.00    +0.145 A 
ATOM     35  C   UNL     1      15.033  -9.430  25.415  0.00  0.00    +0.037 A 
ATOM     36  C   UNL     1      14.741 -10.180  25.594  0.00  0.00    +0.003 A 
ATOM     37  C   UNL     1      15.256 -10.778  25.833  0.00  0.00    +0.000 A 
ATOM     38  C   UNL     1      16.066 -10.626  25.893  0.00  0.00    +0.003 A 
ATOM     39  C   UNL     1      16.358  -9.876  25.714  0.00  0.00    +0.037 A 
ENDBRANCH  33  34
ENDBRANCH  32  33
ENDBRANCH  28  29
ENDBRANCH  25  26
ENDBRANCH   5  25
TORSDOF 8
ENDMDL
MODEL 6
REMARK VINA RESULT:      -7.4     15.974     18.605
REMARK  Name = 
REMARK  8 active torsions:
REMARK  status: ('A' for Active; 'I' for Inactive)
REMARK    1  A    between atoms: C_2  and  C_3
REMARK    2  A    between atoms: C_5  and  O_25
REMARK    3  A    between atoms: C_10  and  C_11
REMARK    4  A    between atoms: C_11  and  C_12
REMARK    5  A    between atoms: O_25  and  C_26
REMARK    6  A    between atoms: N_28  and  C_29
REMARK    7  A    between atoms: C_32  and  O_33
REMARK    8  A    between atoms: O_33  and  C_34
REMARK                            x       y       z     vdW  Elec       q    Type
REMARK                         _______ _______ _______ _____ _____    ______ ____
ROOT
ATOM      1  C   UNL     1      14.859  -6.789  29.138  0.00  0.00    +0.006 C 
ATOM      2  C   UNL     1      15.225  -6.139  29.490  0.00  0.00    +0.068 C 
ATOM      5  C   UNL     1      14.582  -6.233  29.997  0.00  0.00    +0.173 C 
ATOM      6  C   UNL     1      14.483  -5.723  30.639  0.00  0.00    +0.044 C 
ATOM      7  C   UNL     1      15.028  -5.119  30.772  0.00  0.00    +0.004 C 
ATOM      8  C   UNL     1      15.671  -5.024  30.265  0.00  0.00    +0.003 C 
ATOM      9  C   UNL     1      15.573  -4.515  30.906  0.00  0.00    +0.000 C 
ATOM     10  C   UNL     1      16.217  -4.419  30.398  0.00  0.00    +0.040 C 
ATOM     20  C   UNL     1      16.860  -4.325  29.891  0.00  0.00    +0.152 C 
ATOM     21  O   UNL     1      17.405  -3.720  30.024  0.00  0.00    -0.223 OA
ATOM     22  C   UNL     1      16.958  -4.835  29.249  0.00  0.00    +0.033 C 
ATOM     23  C   UNL     1      16.413  -5.439  29.116  0.00  0.00    +0.003 C 
ATOM     24  C   UNL     1      15.769  -5.534  29.623  0.00  0.00    +0.006 C 
ENDROOT
BRANCH   2   3
ATOM      3  C   UNL     1      15.741  -6.270  28.860  0.00  0.00    +0.185 C 
ATOM      4  O   UNL     1      15.576  -6.860  28.307  0.00  0.00    -0.220 OA
ENDBRANCH   2   3
BRANCH  10  11
ATOM     11  C   UNL     1      16.118  -3.910  31.039  0.00  0.00    +0.088 C 
BRANCH  11  12
ATOM     12  C   UNL     1      16.164  -3.093  30.929  0.00  0.00    +0.226 C 
ATOM     13  O   UNL     1      16.057  -2.773  30.175  0.00  0.00    -0.275 OA
ATOM     14  N   UNL     1      16.316  -2.598  31.569  0.00  0.00    -0.277 N 
ATOM     15  C   UNL     1      16.435  -2.837  32.350  0.00  0.00    +0.096 C 
ATOM     16  C   UNL     1      16.569  -2.162  32.806  0.00  0.00    +0.056 C 
ATOM     17  C   UNL     1      16.533  -1.506  32.307  0.00  0.00    +0.173 C 
ATOM     18  O   UNL     1      16.636  -0.720  32.532  0.00  0.00    -0.221 OA
ATOM     19  C   UNL     1      16.377  -1.775  31.543  0.00  0.00    +0.126 C 
ENDBRANCH  11  12
ENDBRANCH  10  11
BRANCH   5  25
ATOM     25  O   UNL     1      14.036  -6.838  29.864  0.00  0.00    -0.437 OA
BRANCH  25  26
ATOM     26  C   UNL     1      13.543  -7.092  30.475  0.00  0.00    +0.425 C 
ATOM     27  O   UNL     1      13.868  -7.323  31.198  0.00  0.00    -0.224 OA
ATOM     28  N   UNL     1      12.726  -7.116  30.364  0.00  0.00    -0.142 NA
BRANCH  28  29
ATOM     29  C   UNL     1      12.234  -7.369  30.975  0.00  0.00    +0.077 A 
ATOM     30  C   UNL     1      12.151  -8.176  31.130  0.00  0.00    +0.020 A 
ATOM     31  C   UNL     1      11.658  -8.429  31.741  0.00  0.00    +0.039 A 
ATOM     32  C   UNL     1      11.248  -7.877  32.197  0.00  0.00    +0.145 A 
ATOM     40  C   UNL     1      11.331  -7.071  32.042  0.00  0.00    +0.039 A 
ATOM     41  C   UNL     1      11.824  -6.817  31.431  0.00  0.00    +0.020 A 
BRANCH  32  33
ATOM     33  O   UNL     1      10.755  -8.131  32.808  0.00  0.00    -0.453 OA
BRANCH  33  34
ATOM     34  C   UNL     1       9.962  -8.295  32.658  0.00  0.00    +0.145 A 
ATOM     35  C   UNL     1       9.741  -9.036  32.367  0.00  0.00    +0.037 A 
ATOM     36  C   UNL     1       8.947  -9.200  32.217  0.00  0.00    +0.003 A 
ATOM     37  C   UNL     1       8.373  -8.625  32.356  0.00  0.00    +0.000 A 
ATOM     38  C   UNL     1       8.593  -7.884  32.646  0.00  0.00    +0.003 A 
ATOM     39  C   UNL     1       9.387  -7.720  32.797  0.00  0.00    +0.037 A 
ENDBRANCH  33  34
ENDBRANCH  32  33
ENDBRANCH  28  29
ENDBRANCH  25  26
ENDBRANCH   5  25
TORSDOF 8
ENDMDL
MODEL 7
REMARK VINA RESULT:      -6.8     16.643     18.558
REMARK  Name = 
REMARK  8 active torsions:
REMARK  status: ('A' for Active; 'I' for Inactive)
REMARK    1  A    between atoms: C_2  and  C_3
REMARK    2  A    between atoms: C_5  and  O_25
REMARK    3  A    between atoms: C_10  and  C_11
REMARK    4  A    between atoms: C_11  and  C_12
REMARK    5  A    between atoms: O_25  and  C_26
REMARK    6  A    between atoms: N_28  and  C_29
REMARK    7  A    between atoms: C_32  and  O_33
REMARK    8  A    between atoms: O_33  and  C_34
REMARK                            x       y       z     vdW  Elec       q    Type
REMARK                         _______ _______ _______ _____ _____    ______ ____
ROOT
ATOM      1  C   UNL     1      16.677  -8.580  27.507  0.00  0.00    +0.006 C 
ATOM      2  C   UNL     1      16.184  -8.289  28.100  0.00  0.00    +0.068 C 
ATOM      5  C   UNL     1      16.087  -7.700  27.532  0.00  0.00    +0.173 C 
ATOM      6  C   UNL     1      15.589  -7.058  27.683  0.00  0.00    +0.044 C 
ATOM      7  C   UNL     1      15.190  -7.008  28.402  0.00  0.00    +0.004 C 
ATOM      8  C   UNL     1      15.286  -7.597  28.971  0.00  0.00    +0.003 C 
ATOM      9  C   UNL     1      14.790  -6.957  29.121  0.00  0.00    +0.000 C 
ATOM     10  C   UNL     1      14.886  -7.547  29.691  0.00  0.00    +0.040 C 
ATOM     20  C   UNL     1      14.983  -8.136  30.259  0.00  0.00    +0.152 C 
ATOM     21  O   UNL     1      14.583  -8.086  30.979  0.00  0.00    -0.223 OA
ATOM     22  C   UNL     1      15.481  -8.778  30.107  0.00  0.00    +0.033 C 
ATOM     23  C   UNL     1      15.881  -8.829  29.388  0.00  0.00    +0.003 C 
ATOM     24  C   UNL     1      15.784  -8.239  28.819  0.00  0.00    +0.006 C 
ENDROOT
BRANCH   2   3
ATOM      3  C   UNL     1      16.452  -8.980  28.462  0.00  0.00    +0.185 C 
ATOM      4  O   UNL     1      16.842  -9.555  28.016  0.00  0.00    -0.220 OA
ENDBRANCH   2   3
BRANCH  10  11
ATOM     11  C   UNL     1      14.389  -6.906  29.842  0.00  0.00    +0.088 C 
BRANCH  11  12
ATOM     12  C   UNL     1      14.502  -6.447  30.517  0.00  0.00    +0.226 C 
ATOM     13  O   UNL     1      15.249  -6.401  30.865  0.00  0.00    -0.275 OA
ATOM     14  N   UNL     1      13.869  -6.033  30.845  0.00  0.00    -0.277 N 
ATOM     15  C   UNL     1      13.095  -6.025  30.560  0.00  0.00    +0.096 C 
ATOM     16  C   UNL     1      12.645  -5.540  31.054  0.00  0.00    +0.056 C 
ATOM     17  C   UNL     1      13.142  -5.249  31.645  0.00  0.00    +0.173 C 
ATOM     18  O   UNL     1      12.921  -4.743  32.258  0.00  0.00    -0.221 OA
ATOM     19  C   UNL     1      13.898  -5.553  31.516  0.00  0.00    +0.126 C 
ENDBRANCH  11  12
ENDBRANCH  10  11
BRANCH   5  25
ATOM     25  O   UNL     1      16.487  -7.750  26.812  0.00  0.00    -0.437 OA
BRANCH  25  26
ATOM     26  C   UNL     1      16.523  -7.095  26.312  0.00  0.00    +0.425 C 
ATOM     27  O   UNL     1      15.826  -6.725  26.066  0.00  0.00    -0.224 OA
ATOM     28  N   UNL     1      17.253  -6.809  26.057  0.00  0.00    -0.142 NA
BRANCH  28  29
ATOM     29  C   UNL     1      17.288  -6.155  25.557  0.00  0.00    +0.077 A 
ATOM     30  C   UNL     1      17.285  -6.259  24.738  0.00  0.00    +0.020 A 
ATOM     31  C   UNL     1      17.320  -5.604  24.238  0.00  0.00    +0.039 A 
ATOM     32  C   UNL     1      17.358  -4.843  24.557  0.00  0.00    +0.145 A 
ATOM     40  C   UNL     1      17.360  -4.738  25.375  0.00  0.00    +0.039 A 
ATOM     41  C   UNL     1      17.325  -5.393  25.876  0.00  0.00    +0.020 A 
BRANCH  32  33
ATOM     33  O   UNL     1      17.393  -4.188  24.056  0.00  0.00    -0.453 OA
BRANCH  33  34
ATOM     34  C   UNL     1      16.881  -3.552  24.172  0.00  0.00    +0.145 A 
ATOM     35  C   UNL     1      17.101  -2.930  24.669  0.00  0.00    +0.037 A 
ATOM     36  C   UNL     1      16.589  -2.294  24.785  0.00  0.00    +0.003 A 
ATOM     37  C   UNL     1      15.857  -2.278  24.404  0.00  0.00    +0.000 A 
ATOM     38  C   UNL     1      15.637  -2.900  23.907  0.00  0.00    +0.003 A 
ATOM     39  C   UNL     1      16.149  -3.536  23.791  0.00  0.00    +0.037 A 
ENDBRANCH  33  34
ENDBRANCH  32  33
ENDBRANCH  28  29
ENDBRANCH  25  26
ENDBRANCH   5  25
TORSDOF 8
ENDMDL
MODEL 8
REMARK VINA RESULT:      -6.7     17.745     18.762
REMARK  Name = 
REMARK  8 active torsions:
REMARK  status: ('A' for Active; 'I' for Inactive)
REMARK    1  A    between atoms: C_2  and  C_3
REMARK    2  A    between atoms: C_5  and  O_25
REMARK    3  A    between atoms: C_10  and  C_11
REMARK    4  A    between atoms: C_11  and  C_12
REMARK    5  A    between atoms: O_25  and  C_26
REMARK    6  A    between atoms: N_28  and  C_29
REMARK    7  A    between atoms: C_32  and  O_33
REMARK    8  A    between atoms: O_33  and  C_34
REMARK                            x       y       z     vdW  Elec       q    Type
REMARK                         _______ _______ _______ _____ _____    ______ ____
ROOT
ATOM      1  C   UNL     1      13.488  -7.359  30.934  0.00  0.00    +0.006 C 
ATOM      2  C   UNL     1      13.765  -6.596  31.079  0.00  0.00    +0.068 C 
ATOM      5  C   UNL     1      14.252  -6.807  30.449  0.00  0.00    +0.173 C 
ATOM      6  C   UNL     1      14.814  -6.273  30.164  0.00  0.00    +0.044 C 
ATOM      7  C   UNL     1      14.888  -5.529  30.511  0.00  0.00    +0.004 C 
ATOM      8  C   UNL     1      14.402  -5.318  31.142  0.00  0.00    +0.003 C 
ATOM      9  C   UNL     1      14.962  -4.785  30.858  0.00  0.00    +0.000 C 
ATOM     10  C   UNL     1      14.475  -4.573  31.490  0.00  0.00    +0.040 C 
ATOM     20  C   UNL     1      13.988  -4.362  32.120  0.00  0.00    +0.152 C 
ATOM     21  O   UNL     1      14.062  -3.617  32.468  0.00  0.00    -0.223 OA
ATOM     22  C   UNL     1      13.426  -4.896  32.405  0.00  0.00    +0.033 C 
ATOM     23  C   UNL     1      13.352  -5.640  32.058  0.00  0.00    +0.003 C 
ATOM     24  C   UNL     1      13.839  -5.852  31.426  0.00  0.00    +0.006 C 
ENDROOT
BRANCH   2   3
ATOM      3  C   UNL     1      13.182  -6.650  31.660  0.00  0.00    +0.185 C 
ATOM      4  O   UNL     1      12.730  -7.337  31.728  0.00  0.00    -0.220 OA
ENDBRANCH   2   3
BRANCH  10  11
ATOM     11  C   UNL     1      15.037  -4.040  31.206  0.00  0.00    +0.088 C 
BRANCH  11  12
ATOM     12  C   UNL     1      15.530  -3.640  31.732  0.00  0.00    +0.226 C 
ATOM     13  O   UNL     1      15.610  -3.911  32.508  0.00  0.00    -0.275 OA
ATOM     14  N   UNL     1      15.944  -2.972  31.484  0.00  0.00    -0.277 N 
ATOM     15  C   UNL     1      15.919  -2.639  30.730  0.00  0.00    +0.096 C 
ATOM     16  C   UNL     1      16.415  -1.979  30.726  0.00  0.00    +0.056 C 
ATOM     17  C   UNL     1      16.746  -1.904  31.478  0.00  0.00    +0.173 C 
ATOM     18  O   UNL     1      17.275  -1.320  31.719  0.00  0.00    -0.221 OA
ATOM     19  C   UNL     1      16.455  -2.518  31.947  0.00  0.00    +0.126 C 
ENDBRANCH  11  12
ENDBRANCH  10  11
BRANCH   5  25
ATOM     25  O   UNL     1      14.178  -7.552  30.101  0.00  0.00    -0.437 OA
BRANCH  25  26
ATOM     26  C   UNL     1      14.665  -7.764  29.469  0.00  0.00    +0.425 C 
ATOM     27  O   UNL     1      14.692  -7.290  28.793  0.00  0.00    -0.224 OA
ATOM     28  N   UNL     1      15.124  -8.447  29.512  0.00  0.00    -0.142 NA
BRANCH  28  29
ATOM     29  C   UNL     1      15.610  -8.658  28.880  0.00  0.00    +0.077 A 
ATOM     30  C   UNL     1      15.311  -9.120  28.265  0.00  0.00    +0.020 A 
ATOM     31  C   UNL     1      15.797  -9.331  27.634  0.00  0.00    +0.039 A 
ATOM     32  C   UNL     1      16.583  -9.080  27.616  0.00  0.00    +0.145 A 
ATOM     40  C   UNL     1      16.883  -8.619  28.230  0.00  0.00    +0.039 A 
ATOM     41  C   UNL     1      16.397  -8.407  28.863  0.00  0.00    +0.020 A 
BRANCH  32  33
ATOM     33  O   UNL     1      17.069  -9.292  26.984  0.00  0.00    -0.453 OA
BRANCH  33  34
ATOM     34  C   UNL     1      17.022  -8.880  26.271  0.00  0.00    +0.145 A 
ATOM     35  C   UNL     1      16.589  -9.195  25.641  0.00  0.00    +0.037 A 
ATOM     36  C   UNL     1      16.542  -8.783  24.928  0.00  0.00    +0.003 A 
ATOM     37  C   UNL     1      16.925  -8.058  24.843  0.00  0.00    +0.000 A 
ATOM     38  C   UNL     1      17.358  -7.744  25.473  0.00  0.00    +0.003 A 
ATOM     39  C   UNL     1      17.405  -8.155  26.185  0.00  0.00    +0.037 A 
ENDBRANCH  33  34
ENDBRANCH  32  33
ENDBRANCH  28  29
ENDBRANCH  25  26
ENDBRANCH   5  25
TORSDOF 8
ENDMDL
MODEL 9
REMARK VINA RESULT:      -6.6     17.927     19.234
REMARK  Name = 
REMARK  8 active torsions:
REMARK  status: ('A' for Active; 'I' for Inactive)
REMARK    1  A    between atoms: C_2  and  C_3
REMARK    2  A    between atoms: C_5  and  O_25
REMARK    3  A    between atoms: C_10  and  C_11
REMARK    4  A    between atoms: C_11  and  C_12
REMARK    5  A    between atoms: O_25  and  C_26
REMARK    6  A    between atoms: N_28  and  C_29
REMARK    7  A    between atoms: C_32  and  O_33
REMARK    8  A    between atoms: O_33  and  C_34
REMARK                            x       y       z     vdW  Elec       q    Type
REMARK                         _______ _______ _______ _____ _____    ______ ____
ROOT
ATOM      1  C   UNL     1      16.095  -8.028  26.976  0.00  0.00    +0.006 C 
ATOM      2  C   UNL     1      16.325  -7.401  26.492  0.00  0.00    +0.068 C 
ATOM      5  C   UNL     1      16.130  -6.989  27.179  0.00  0.00    +0.173 C 
ATOM      6  C   UNL     1      16.206  -6.166  27.202  0.00  0.00    +0.044 C 
ATOM      7  C   UNL     1      16.475  -5.758  26.539  0.00  0.00    +0.004 C 
ATOM      8  C   UNL     1      16.670  -6.171  25.852  0.00  0.00    +0.003 C 
ATOM      9  C   UNL     1      16.745  -5.351  25.875  0.00  0.00    +0.000 C 
ATOM     10  C   UNL     1      16.940  -5.763  25.187  0.00  0.00    +0.040 C 
ATOM     20  C   UNL     1      17.135  -6.175  24.501  0.00  0.00    +0.152 C 
ATOM     21  O   UNL     1      17.405  -5.767  23.836  0.00  0.00    -0.223 OA
ATOM     22  C   UNL     1      17.060  -6.998  24.478  0.00  0.00    +0.033 C 
ATOM     23  C   UNL     1      16.790  -7.405  25.141  0.00  0.00    +0.003 C 
ATOM     24  C   UNL     1      16.595  -6.993  25.829  0.00  0.00    +0.006 C 
ENDROOT
BRANCH   2   3
ATOM      3  C   UNL     1      16.440  -8.032  25.973  0.00  0.00    +0.185 C 
ATOM      4  O   UNL     1      16.247  -8.799  26.208  0.00  0.00    -0.220 OA
ENDBRANCH   2   3
BRANCH  10  11
ATOM     11  C   UNL     1      17.016  -4.942  25.211  0.00  0.00    +0.088 C 
BRANCH  11  12
ATOM     12  C   UNL     1      16.714  -4.482  24.596  0.00  0.00    +0.226 C 
ATOM     13  O   UNL     1      16.260  -4.834  24.002  0.00  0.00    -0.275 OA
ATOM     14  N   UNL     1      16.865  -3.672  24.574  0.00  0.00    -0.277 N 
ATOM     15  C   UNL     1      17.307  -3.246  25.125  0.00  0.00    +0.096 C 
ATOM     16  C   UNL     1      17.316  -2.455  24.888  0.00  0.00    +0.056 C 
ATOM     17  C   UNL     1      16.880  -2.393  24.191  0.00  0.00    +0.173 C 
ATOM     18  O   UNL     1      16.745  -1.701  23.763  0.00  0.00    -0.221 OA
ATOM     19  C   UNL     1      16.601  -3.145  23.996  0.00  0.00    +0.126 C 
ENDBRANCH  11  12
ENDBRANCH  10  11
BRANCH   5  25
ATOM     25  O   UNL     1      15.860  -7.397  27.844  0.00  0.00    -0.437 OA
BRANCH  25  26
ATOM     26  C   UNL     1      15.739  -6.995  28.554  0.00  0.00    +0.425 C 
ATOM     27  O   UNL     1      15.488  -6.208  28.546  0.00  0.00    -0.224 OA
ATOM     28  N   UNL     1      15.867  -7.379  29.272  0.00  0.00    -0.142 NA
BRANCH  28  29
ATOM     29  C   UNL     1      15.745  -6.978  29.982  0.00  0.00    +0.077 A 
ATOM     30  C   UNL     1      16.388  -6.677  30.402  0.00  0.00    +0.020 A 
ATOM     31  C   UNL     1      16.267  -6.275  31.112  0.00  0.00    +0.039 A 
ATOM     32  C   UNL     1      15.500  -6.175  31.403  0.00  0.00    +0.145 A 
ATOM     40  C   UNL     1      14.858  -6.476  30.984  0.00  0.00    +0.039 A 
ATOM     41  C   UNL     1      14.979  -6.877  30.274  0.00  0.00    +0.020 A 
BRANCH  32  33
ATOM     33  O   UNL     1      15.379  -5.773  32.114  0.00  0.00    -0.453 OA
BRANCH  33  34
ATOM     34  C   UNL     1      15.342  -4.950  32.121  0.00  0.00    +0.145 A 
ATOM     35  C   UNL     1      14.625  -4.568  31.971  0.00  0.00    +0.037 A 
ATOM     36  C   UNL     1      14.588  -3.743  31.979  0.00  0.00    +0.003 A 
ATOM     37  C   UNL     1      15.265  -3.301  32.136  0.00  0.00    +0.000 A 
ATOM     38  C   UNL     1      15.982  -3.683  32.286  0.00  0.00    +0.003 A 
ATOM     39  C   UNL     1      16.020  -4.506  32.279  0.00  0.00    +0.037 A 
ENDBRANCH  33  34
ENDBRANCH  32  33
ENDBRANCH  28  29
ENDBRANCH  25  26
ENDBRANCH   5  25
TORSDOF 8
ENDMDL
