MODEL 1
REMARK VINA RESULT:     -12.0      0.000      0.000
REMARK  Name = 
REMARK  8 active torsions:
REMARK  status: ('A' for Active; 'I' for Inactive)
REMARK    1  A    between atoms: O_2  and  C_3
REMARK    2  A    between atoms: C_3  and  C_5
REMARK    3  A    between atoms: C_5  and  C_6
REMARK    4  A    between atoms: C_5  and  N_13
REMARK    5  A    between atoms: C_6  and  C_7
REMARK    6  A    between atoms: C_14  and  C_16
REMARK    7  A    between atoms: C_22  and  C_24
REMARK    8  A    between atoms: N_32  and  C_33
REMARK                            x       y       z     vdW  Elec       q    Type
REMARK                         _______ _______ _______ _____ _____    ______ ____
ROOT
ATOM     16  C   UNL     1      -3.698   1.205  24.610  0.00  0.00    +0.174 C 
ATOM     17  C   UNL     1      -4.238   1.765  24.883  0.00  0.00    +0.124 C 
ATOM     18  N   UNL     1      -4.963   1.523  25.194  0.00  0.00    -0.259 N 
ATOM     19  C   UNL     1      -5.148   0.720  25.230  0.00  0.00    +0.117 C 
ATOM     20  C   UNL     1      -4.608   0.160  24.956  0.00  0.00    +0.115 C 
ATOM     21  N   UNL     1      -3.883   0.402  24.646  0.00  0.00    -0.270 N 
ATOM     22  C   UNL     1      -3.343  -0.158  24.372  0.00  0.00    +0.226 C 
ATOM     23  O   UNL     1      -2.618   0.085  24.062  0.00  0.00    -0.275 OA
ATOM     30  C   UNL     1      -5.503   2.083  25.467  0.00  0.00    +0.323 C 
ATOM     31  O   UNL     1      -6.228   1.840  25.777  0.00  0.00    -0.251 OA
ATOM     32  N   UNL     1      -5.318   2.887  25.430  0.00  0.00    -0.190 NA
ENDROOT
BRANCH  22  24
ATOM     24  C   UNL     1      -3.527  -0.961  24.409  0.00  0.00    +0.077 C 
ATOM     25  C   UNL     1      -3.277  -1.414  25.052  0.00  0.00    +0.009 C 
ATOM     26  C   UNL     1      -3.461  -2.217  25.089  0.00  0.00    +0.000 C 
ATOM     27  C   UNL     1      -3.897  -2.569  24.482  0.00  0.00    +0.000 C 
ATOM     28  C   UNL     1      -4.147  -2.116  23.839  0.00  0.00    +0.000 C 
ATOM     29  C   UNL     1      -3.963  -1.313  23.803  0.00  0.00    +0.009 C 
ENDBRANCH  22  24
BRANCH  16  14
ATOM     13  N   UNL     1      -2.338   1.597  24.805  0.00  0.00    -0.194 NA
ATOM     14  C   UNL     1      -2.973   1.448  24.299  0.00  0.00    +0.262 C 
ATOM     15  O   UNL     1      -2.883   1.540  23.485  0.00  0.00    -0.271 OA
BRANCH  13   5
ATOM      5  C   UNL     1      -1.613   1.839  24.495  0.00  0.00    +0.198 C 
BRANCH   5   3
ATOM      3  C   UNL     1      -0.943   1.367  24.594  0.00  0.00    +0.337 C 
ATOM      4  O   UNL     1      -0.731   1.103  25.345  0.00  0.00    -0.248 OA
BRANCH   3   2
ATOM      1  C   UNL     1       0.142   0.632  24.025  0.00  0.00    +0.256 C 
ATOM      2  O   UNL     1      -0.485   1.160  23.939  0.00  0.00    -0.443 OA
ENDBRANCH   3   2
ENDBRANCH   5   3
BRANCH   5   6
ATOM      6  C   UNL     1      -1.557   2.554  24.087  0.00  0.00    +0.061 C 
BRANCH   6   7
ATOM      7  C   UNL     1      -1.201   3.207  24.444  0.00  0.00    -0.001 A 
ATOM      8  C   UNL     1      -0.927   3.832  23.980  0.00  0.00    -0.001 A 
ATOM      9  C   UNL     1      -0.571   4.484  24.337  0.00  0.00    +0.020 A 
ATOM     10  C   UNL     1      -0.489   4.512  25.157  0.00  0.00    +0.099 A 
ATOM     11  N   UNL     1      -0.763   3.888  25.621  0.00  0.00    -0.243 NA
ATOM     12  C   UNL     1      -1.119   3.235  25.263  0.00  0.00    +0.095 A 
ENDBRANCH   6   7
ENDBRANCH   5   6
ENDBRANCH  13   5
ENDBRANCH  16  14
BRANCH  32  33
ATOM     33  C   UNL     1      -4.594   3.129  25.120  0.00  0.00    +0.097 C 
ATOM     34  C   UNL     1      -4.506   3.232  24.306  0.00  0.00    +0.023 C 
ATOM     35  C   UNL     1      -3.956   3.270  25.624  0.00  0.00    +0.023 C 
ENDBRANCH  32  33
TORSDOF 8
ENDMDL
MODEL 2
REMARK VINA RESULT:     -11.6      1.037      4.123
REMARK  Name = 
REMARK  8 active torsions:
REMARK  status: ('A' for Active; 'I' for Inactive)
REMARK    1  A    between atoms: O_2  and  C_3
REMARK    2  A    between atoms: C_3  and  C_5
REMARK    3  A    between atoms: C_5  and  C_6
REMARK    4  A    between atoms: C_5  and  N_13
REMARK    5  A    between atoms: C_6  and  C_7
REMARK    6  A    between atoms: C_14  and  C_16
REMARK    7  A    between atoms: C_22  and  C_24
REMARK    8  A    between atoms: N_32  and  C_33
REMARK                            x       y       z     vdW  Elec       q    Type
REMARK                         _______ _______ _______ _____ _____    ______ ____
ROOT
ATOM     16  C   UNL     1      -3.569   2.321  24.889  0.00  0.00    +0.174 C 
ATOM     17  C   UNL     1      -4.358   2.332  25.127  0.00  0.00    +0.124 C 
ATOM     18  N   UNL     1      -4.676   3.009  25.476  0.00  0.00    -0.259 N 
ATOM     19  C   UNL     1      -4.202   3.676  25.586  0.00  0.00    +0.117 C 
ATOM     20  C   UNL     1      -3.412   3.664  25.348  0.00  0.00    +0.115 C 
ATOM     21  N   UNL     1      -3.096   2.988  25.000  0.00  0.00    -0.270 N 
ATOM     22  C   UNL     1      -2.306   2.976  24.762  0.00  0.00    +0.226 C 
ATOM     23  O   UNL     1      -1.989   2.299  24.413  0.00  0.00    -0.275 OA
ATOM     30  C   UNL     1      -5.465   3.020  25.713  0.00  0.00    +0.323 C 
ATOM     31  O   UNL     1      -5.782   3.697  26.062  0.00  0.00    -0.251 OA
ATOM     32  N   UNL     1      -5.939   2.353  25.602  0.00  0.00    -0.190 NA
ENDROOT
BRANCH  22  24
ATOM     24  C   UNL     1      -1.833   3.643  24.872  0.00  0.00    +0.077 C 
ATOM     25  C   UNL     1      -1.256   3.646  25.464  0.00  0.00    +0.009 C 
ATOM     26  C   UNL     1      -0.783   4.313  25.574  0.00  0.00    +0.000 C 
ATOM     27  C   UNL     1      -0.885   4.977  25.094  0.00  0.00    +0.000 C 
ATOM     28  C   UNL     1      -1.461   4.973  24.504  0.00  0.00    +0.000 C 
ATOM     29  C   UNL     1      -1.935   4.306  24.393  0.00  0.00    +0.009 C 
ENDBRANCH  22  24
BRANCH  16  14
ATOM     13  N   UNL     1      -2.979   1.025  25.014  0.00  0.00    -0.194 NA
ATOM     14  C   UNL     1      -3.252   1.644  24.540  0.00  0.00    +0.262 C 
ATOM     15  O   UNL     1      -3.207   1.585  23.719  0.00  0.00    -0.271 OA
BRANCH  13   5
ATOM      5  C   UNL     1      -2.662   0.348  24.666  0.00  0.00    +0.198 C 
BRANCH   5   3
ATOM      3  C   UNL     1      -1.876   0.141  24.806  0.00  0.00    +0.337 C 
ATOM      4  O   UNL     1      -1.599   0.070  25.580  0.00  0.00    -0.248 OA
BRANCH   3   2
ATOM      1  C   UNL     1      -0.566  -0.143  24.309  0.00  0.00    +0.256 C 
ATOM      2  O   UNL     1      -1.366   0.004  24.171  0.00  0.00    -0.443 OA
ENDBRANCH   3   2
ENDBRANCH   5   3
BRANCH   5   6
ATOM      6  C   UNL     1      -3.131  -0.122  24.177  0.00  0.00    +0.061 C 
BRANCH   6   7
ATOM      7  C   UNL     1      -3.365  -0.874  24.427  0.00  0.00    -0.001 A 
ATOM      8  C   UNL     1      -3.655  -1.418  23.879  0.00  0.00    -0.001 A 
ATOM      9  C   UNL     1      -3.888  -2.169  24.129  0.00  0.00    +0.020 A 
ATOM     10  C   UNL     1      -3.831  -2.374  24.925  0.00  0.00    +0.099 A 
ATOM     11  N   UNL     1      -3.542  -1.830  25.473  0.00  0.00    -0.243 NA
ATOM     12  C   UNL     1      -3.308  -1.079  25.223  0.00  0.00    +0.095 A 
ENDBRANCH   6   7
ENDBRANCH   5   6
ENDBRANCH  13   5
ENDBRANCH  16  14
BRANCH  32  33
ATOM     33  C   UNL     1      -5.622   1.676  25.254  0.00  0.00    +0.097 C 
ATOM     34  C   UNL     1      -5.312   1.075  25.726  0.00  0.00    +0.023 C 
ATOM     35  C   UNL     1      -5.616   1.600  24.432  0.00  0.00    +0.023 C 
ENDBRANCH  32  33
TORSDOF 8
ENDMDL
MODEL 3
REMARK VINA RESULT:     -11.6      1.309      3.591
REMARK  Name = 
REMARK  8 active torsions:
REMARK  status: ('A' for Active; 'I' for Inactive)
REMARK    1  A    between atoms: O_2  and  C_3
REMARK    2  A    between atoms: C_3  and  C_5
REMARK    3  A    between atoms: C_5  and  C_6
REMARK    4  A    between atoms: C_5  and  N_13
REMARK    5  A    between atoms: C_6  and  C_7
REMARK    6  A    between atoms: C_14  and  C_16
REMARK    7  A    between atoms: C_22  and  C_24
REMARK    8  A    between atoms: N_32  and  C_33
REMARK                            x       y       z     vdW  Elec       q    Type
REMARK                         _______ _______ _______ _____ _____    ______ ____
ROOT
ATOM     16  C   UNL     1      -2.246   1.361  24.810  0.00  0.00    +0.174 C 
ATOM     17  C   UNL     1      -1.639   1.836  25.103  0.00  0.00    +0.124 C 
ATOM     18  N   UNL     1      -1.034   1.502  25.554  0.00  0.00    -0.259 N 
ATOM     19  C   UNL     1      -1.037   0.692  25.712  0.00  0.00    +0.117 C 
ATOM     20  C   UNL     1      -1.645   0.217  25.419  0.00  0.00    +0.115 C 
ATOM     21  N   UNL     1      -2.249   0.551  24.969  0.00  0.00    -0.270 N 
ATOM     22  C   UNL     1      -2.857   0.076  24.676  0.00  0.00    +0.226 C 
ATOM     23  O   UNL     1      -3.462   0.410  24.226  0.00  0.00    -0.275 OA
ATOM     30  C   UNL     1      -0.427   1.977  25.846  0.00  0.00    +0.323 C 
ATOM     31  O   UNL     1       0.178   1.643  26.297  0.00  0.00    -0.251 OA
ATOM     32  N   UNL     1      -0.424   2.787  25.688  0.00  0.00    -0.190 NA
ENDROOT
BRANCH  22  24
ATOM     24  C   UNL     1      -2.860  -0.733  24.834  0.00  0.00    +0.077 C 
ATOM     25  C   UNL     1      -2.432  -1.250  24.353  0.00  0.00    +0.009 C 
ATOM     26  C   UNL     1      -2.435  -2.059  24.511  0.00  0.00    +0.000 C 
ATOM     27  C   UNL     1      -2.866  -2.354  25.151  0.00  0.00    +0.000 C 
ATOM     28  C   UNL     1      -3.293  -1.837  25.632  0.00  0.00    +0.000 C 
ATOM     29  C   UNL     1      -3.290  -1.028  25.473  0.00  0.00    +0.009 C 
ENDBRANCH  22  24
BRANCH  16  14
ATOM     13  N   UNL     1      -3.437   2.147  24.726  0.00  0.00    -0.194 NA
ATOM     14  C   UNL     1      -2.851   1.695  24.360  0.00  0.00    +0.262 C 
ATOM     15  O   UNL     1      -2.872   1.577  23.544  0.00  0.00    -0.271 OA
BRANCH  13   5
ATOM      5  C   UNL     1      -4.042   2.481  24.276  0.00  0.00    +0.198 C 
BRANCH   5   3
ATOM      3  C   UNL     1      -3.886   3.129  23.790  0.00  0.00    +0.337 C 
ATOM      4  O   UNL     1      -3.707   3.862  24.123  0.00  0.00    -0.248 OA
BRANCH   3   2
ATOM      1  C   UNL     1      -3.918   3.712  22.485  0.00  0.00    +0.256 C 
ATOM      2  O   UNL     1      -3.909   3.044  22.969  0.00  0.00    -0.443 OA
ENDBRANCH   3   2
ENDBRANCH   5   3
BRANCH   5   6
ATOM      6  C   UNL     1      -4.804   2.166  24.311  0.00  0.00    +0.061 C 
BRANCH   6   7
ATOM      7  C   UNL     1      -5.263   2.271  24.990  0.00  0.00    -0.001 A 
ATOM      8  C   UNL     1      -5.775   1.674  25.236  0.00  0.00    -0.001 A 
ATOM      9  C   UNL     1      -6.233   1.778  25.914  0.00  0.00    +0.020 A 
ATOM     10  C   UNL     1      -6.179   2.479  26.345  0.00  0.00    +0.099 A 
ATOM     11  N   UNL     1      -5.666   3.076  26.098  0.00  0.00    -0.243 NA
ATOM     12  C   UNL     1      -5.208   2.972  25.420  0.00  0.00    +0.095 A 
ENDBRANCH   6   7
ENDBRANCH   5   6
ENDBRANCH  13   5
ENDBRANCH  16  14
BRANCH  32  33
ATOM     33  C   UNL     1      -1.028   3.121  25.237  0.00  0.00    +0.097 C 
ATOM     34  C   UNL     1      -0.967   3.142  24.414  0.00  0.00    +0.023 C 
ATOM     35  C   UNL     1      -1.695   3.435  25.609  0.00  0.00    +0.023 C 
ENDBRANCH  32  33
TORSDOF 8
ENDMDL
MODEL 4
REMARK VINA RESULT:     -11.4      1.234      3.914
REMARK  Name = 
REMARK  8 active torsions:
REMARK  status: ('A' for Active; 'I' for Inactive)
REMARK    1  A    between atoms: O_2  and  C_3
REMARK    2  A    between atoms: C_3  and  C_5
REMARK    3  A    between atoms: C_5  and  C_6
REMARK    4  A    between atoms: C_5  and  N_13
REMARK    5  A    between atoms: C_6  and  C_7
REMARK    6  A    between atoms: C_14  and  C_16
REMARK    7  A    between atoms: C_22  and  C_24
REMARK    8  A    between atoms: N_32  and  C_33
REMARK                            x       y       z     vdW  Elec       q    Type
REMARK                         _______ _______ _______ _____ _____    ______ ____
ROOT
ATOM     16  C   UNL     1      -2.589   2.106  24.825  0.00  0.00    +0.174 C 
ATOM     17  C   UNL     1      -2.002   2.664  24.981  0.00  0.00    +0.124 C 
ATOM     18  N   UNL     1      -2.204   3.399  25.297  0.00  0.00    -0.259 N 
ATOM     19  C   UNL     1      -2.994   3.576  25.457  0.00  0.00    +0.117 C 
ATOM     20  C   UNL     1      -3.581   3.017  25.300  0.00  0.00    +0.115 C 
ATOM     21  N   UNL     1      -3.379   2.283  24.984  0.00  0.00    -0.270 N 
ATOM     22  C   UNL     1      -3.966   1.725  24.827  0.00  0.00    +0.226 C 
ATOM     23  O   UNL     1      -3.764   0.991  24.511  0.00  0.00    -0.275 OA
ATOM     30  C   UNL     1      -1.617   3.956  25.454  0.00  0.00    +0.323 C 
ATOM     31  O   UNL     1      -1.819   4.691  25.770  0.00  0.00    -0.251 OA
ATOM     32  N   UNL     1      -0.827   3.779  25.295  0.00  0.00    -0.190 NA
ENDROOT
BRANCH  22  24
ATOM     24  C   UNL     1      -4.756   1.902  24.986  0.00  0.00    +0.077 C 
ATOM     25  C   UNL     1      -5.082   1.711  25.720  0.00  0.00    +0.009 C 
ATOM     26  C   UNL     1      -5.872   1.888  25.880  0.00  0.00    +0.000 C 
ATOM     27  C   UNL     1      -6.337   2.256  25.305  0.00  0.00    +0.000 C 
ATOM     28  C   UNL     1      -6.010   2.447  24.572  0.00  0.00    +0.000 C 
ATOM     29  C   UNL     1      -5.221   2.270  24.413  0.00  0.00    +0.009 C 
ENDBRANCH  22  24
BRANCH  16  14
ATOM     13  N   UNL     1      -2.197   0.744  25.012  0.00  0.00    -0.194 NA
ATOM     14  C   UNL     1      -2.387   1.371  24.509  0.00  0.00    +0.262 C 
ATOM     15  O   UNL     1      -2.375   1.262  23.692  0.00  0.00    -0.271 OA
BRANCH  13   5
ATOM      5  C   UNL     1      -1.995   0.010  24.696  0.00  0.00    +0.198 C 
BRANCH   5   3
ATOM      3  C   UNL     1      -1.211  -0.246  24.713  0.00  0.00    +0.337 C 
ATOM      4  O   UNL     1      -0.814  -0.313  25.432  0.00  0.00    -0.248 OA
BRANCH   3   2
ATOM      1  C   UNL     1      -0.023  -0.632  24.018  0.00  0.00    +0.256 C 
ATOM      2  O   UNL     1      -0.824  -0.435  24.008  0.00  0.00    -0.443 OA
ENDBRANCH   3   2
ENDBRANCH   5   3
BRANCH   5   6
ATOM      6  C   UNL     1      -2.578  -0.470  24.364  0.00  0.00    +0.061 C 
BRANCH   6   7
ATOM      7  C   UNL     1      -2.841  -1.140  24.768  0.00  0.00    -0.001 A 
ATOM      8  C   UNL     1      -3.035  -1.824  24.349  0.00  0.00    -0.001 A 
ATOM      9  C   UNL     1      -3.298  -2.493  24.753  0.00  0.00    +0.020 A 
ATOM     10  C   UNL     1      -3.367  -2.479  25.574  0.00  0.00    +0.099 A 
ATOM     11  N   UNL     1      -3.173  -1.795  25.993  0.00  0.00    -0.243 NA
ATOM     12  C   UNL     1      -2.910  -1.126  25.589  0.00  0.00    +0.095 A 
ENDBRANCH   6   7
ENDBRANCH   5   6
ENDBRANCH  13   5
ENDBRANCH  16  14
BRANCH  32  33
ATOM     33  C   UNL     1      -0.624   3.045  24.979  0.00  0.00    +0.097 C 
ATOM     34  C   UNL     1      -0.639   2.928  24.162  0.00  0.00    +0.023 C 
ATOM     35  C   UNL     1      -0.407   2.426  25.480  0.00  0.00    +0.023 C 
ENDBRANCH  32  33
TORSDOF 8
ENDMDL
MODEL 5
REMARK VINA RESULT:     -11.3      1.421      3.371
REMARK  Name = 
REMARK  8 active torsions:
REMARK  status: ('A' for Active; 'I' for Inactive)
REMARK    1  A    between atoms: O_2  and  C_3
REMARK    2  A    between atoms: C_3  and  C_5
REMARK    3  A    between atoms: C_5  and  C_6
REMARK    4  A    between atoms: C_5  and  N_13
REMARK    5  A    between atoms: C_6  and  C_7
REMARK    6  A    between atoms: C_14  and  C_16
REMARK    7  A    between atoms: C_22  and  C_24
REMARK    8  A    between atoms: N_32  and  C_33
REMARK                            x       y       z     vdW  Elec       q    Type
REMARK                         _______ _______ _______ _____ _____    ______ ____
ROOT
ATOM     16  C   UNL     1      -1.934   0.383  24.637  0.00  0.00    +0.174 C 
ATOM     17  C   UNL     1      -1.159   0.552  24.412  0.00  0.00    +0.124 C 
ATOM     18  N   UNL     1      -0.693  -0.034  24.065  0.00  0.00    -0.259 N 
ATOM     19  C   UNL     1      -1.003  -0.789  23.944  0.00  0.00    +0.117 C 
ATOM     20  C   UNL     1      -1.778  -0.957  24.169  0.00  0.00    +0.115 C 
ATOM     21  N   UNL     1      -2.244  -0.372  24.516  0.00  0.00    -0.270 N 
ATOM     22  C   UNL     1      -3.020  -0.540  24.742  0.00  0.00    +0.226 C 
ATOM     23  O   UNL     1      -3.485   0.045  25.088  0.00  0.00    -0.275 OA
ATOM     30  C   UNL     1       0.082   0.135  23.840  0.00  0.00    +0.323 C 
ATOM     31  O   UNL     1       0.548  -0.451  23.493  0.00  0.00    -0.251 OA
ATOM     32  N   UNL     1       0.392   0.890  23.961  0.00  0.00    -0.190 NA
ENDROOT
BRANCH  22  24
ATOM     24  C   UNL     1      -3.329  -1.295  24.620  0.00  0.00    +0.077 C 
ATOM     25  C   UNL     1      -3.807  -1.445  23.964  0.00  0.00    +0.009 C 
ATOM     26  C   UNL     1      -4.116  -2.200  23.842  0.00  0.00    +0.000 C 
ATOM     27  C   UNL     1      -3.949  -2.806  24.377  0.00  0.00    +0.000 C 
ATOM     28  C   UNL     1      -3.472  -2.656  25.033  0.00  0.00    +0.000 C 
ATOM     29  C   UNL     1      -3.162  -1.901  25.155  0.00  0.00    +0.009 C 
ENDBRANCH  22  24
BRANCH  16  14
ATOM     13  N   UNL     1      -2.740   1.557  24.515  0.00  0.00    -0.194 NA
ATOM     14  C   UNL     1      -2.401   0.969  24.984  0.00  0.00    +0.262 C 
ATOM     15  O   UNL     1      -2.527   0.967  25.799  0.00  0.00    -0.271 OA
BRANCH  13   5
ATOM      5  C   UNL     1      -3.206   2.143  24.861  0.00  0.00    +0.198 C 
BRANCH   5   3
ATOM      3  C   UNL     1      -3.962   2.297  24.567  0.00  0.00    +0.337 C 
ATOM      4  O   UNL     1      -4.069   2.453  23.765  0.00  0.00    -0.248 OA
BRANCH   3   2
ATOM      1  C   UNL     1      -5.376   2.287  24.771  0.00  0.00    +0.256 C 
ATOM      2  O   UNL     1      -4.611   2.296  25.078  0.00  0.00    -0.443 OA
ENDBRANCH   3   2
ENDBRANCH   5   3
BRANCH   5   6
ATOM      6  C   UNL     1      -2.917   2.574  25.502  0.00  0.00    +0.061 C 
BRANCH   6   7
ATOM      7  C   UNL     1      -2.709   3.368  25.406  0.00  0.00    -0.001 A 
ATOM      8  C   UNL     1      -2.564   3.838  26.067  0.00  0.00    -0.001 A 
ATOM      9  C   UNL     1      -2.356   4.631  25.970  0.00  0.00    +0.020 A 
ATOM     10  C   UNL     1      -2.294   4.951  25.214  0.00  0.00    +0.099 A 
ATOM     11  N   UNL     1      -2.440   4.481  24.552  0.00  0.00    -0.243 NA
ATOM     12  C   UNL     1      -2.647   3.688  24.649  0.00  0.00    +0.095 A 
ENDBRANCH   6   7
ENDBRANCH   5   6
ENDBRANCH  13   5
ENDBRANCH  16  14
BRANCH  32  33
ATOM     33  C   UNL     1      -0.074   1.476  24.308  0.00  0.00    +0.097 C 
ATOM     34  C   UNL     1      -0.098   1.552  25.129  0.00  0.00    +0.023 C 
ATOM     35  C   UNL     1      -0.516   1.986  23.833  0.00  0.00    +0.023 C 
ENDBRANCH  32  33
TORSDOF 8
ENDMDL
