MODEL 1
REMARK VINA RESULT:      -9.3      0.000      0.000
REMARK  Name = 
REMARK  6 active torsions:
REMARK  status: ('A' for Active; 'I' for Inactive)
REMARK    1  A    between atoms: O_2  and  C_3
REMARK    2  A    between atoms: C_3  and  C_4
REMARK    3  A    between atoms: C_4  and  N_5
REMARK    4  A    between atoms: N_9  and  C_10
REMARK    5  A    between atoms: C_10  and  C_11
REMARK    6  A    between atoms: C_14  and  S_17
REMARK                            x       y       z     vdW  Elec       q    Type
REMARK                         _______ _______ _______ _____ _____    ______ ____
ROOT
ATOM      5  N   UNL     1      -3.065   3.487  24.780  0.00  0.00    -0.260 N 
ATOM      6  C   UNL     1      -2.982   2.807  25.242  0.00  0.00    +0.116 C 
ATOM      7  C   UNL     1      -3.605   2.299  25.060  0.00  0.00    +0.113 C 
ATOM      8  C   UNL     1      -3.808   1.550  25.343  0.00  0.00    +0.094 C 
ATOM      9  N   UNL     1      -4.477   1.167  25.053  0.00  0.00    -0.266 NA
ATOM     21  C   UNL     1      -4.945   1.531  24.479  0.00  0.00    +0.094 C 
ATOM     22  C   UNL     1      -4.744   2.279  24.196  0.00  0.00    +0.112 C 
ATOM     23  N   UNL     1      -4.073   2.663  24.487  0.00  0.00    -0.261 N 
ATOM     24  C   UNL     1      -3.739   3.397  24.314  0.00  0.00    +0.307 C 
ATOM     25  O   UNL     1      -4.029   3.945  23.769  0.00  0.00    -0.252 OA
ENDROOT
BRANCH   5   4
ATOM      4  C   UNL     1      -2.562   4.140  24.784  0.00  0.00    +0.127 C 
BRANCH   4   3
ATOM      3  C   UNL     1      -1.825   4.091  25.151  0.00  0.00    +0.164 C 
BRANCH   3   2
ATOM      1  C   UNL     1      -0.667   4.892  24.908  0.00  0.00    +0.174 C 
ATOM      2  O   UNL     1      -1.387   4.776  25.293  0.00  0.00    -0.349 OA
ENDBRANCH   3   2
ENDBRANCH   4   3
ENDBRANCH   5   4
BRANCH   9  10
ATOM     10  C   UNL     1      -4.680   0.418  25.335  0.00  0.00    +0.099 C 
BRANCH  10  11
ATOM     11  C   UNL     1      -4.221  -0.237  25.135  0.00  0.00    -0.006 A 
ATOM     12  C   UNL     1      -4.280  -0.568  24.382  0.00  0.00    -0.002 A 
ATOM     13  C   UNL     1      -3.822  -1.223  24.181  0.00  0.00    +0.018 A 
ATOM     14  C   UNL     1      -3.303  -1.548  24.735  0.00  0.00    +0.106 A 
ATOM     15  C   UNL     1      -3.243  -1.218  25.488  0.00  0.00    +0.018 A 
ATOM     16  C   UNL     1      -3.703  -0.562  25.688  0.00  0.00    -0.002 A 
BRANCH  14  17
ATOM     17  S   UNL     1      -2.844  -2.204  24.534  0.00  0.00    +0.010 S 
ATOM     18  C   UNL     1      -2.385  -2.859  24.334  0.00  0.00    +0.182 C 
ATOM     19  O   UNL     1      -3.473  -2.702  24.726  0.00  0.00    -0.169 OA
ATOM     20  O   UNL     1      -2.215  -1.705  24.344  0.00  0.00    -0.169 OA
ENDBRANCH  14  17
ENDBRANCH  10  11
ENDBRANCH   9  10
TORSDOF 6
ENDMDL
MODEL 2
REMARK VINA RESULT:      -9.2      2.177      2.768
REMARK  Name = 
REMARK  6 active torsions:
REMARK  status: ('A' for Active; 'I' for Inactive)
REMARK    1  A    between atoms: O_2  and  C_3
REMARK    2  A    between atoms: C_3  and  C_4
REMARK    3  A    between atoms: C_4  and  N_5
REMARK    4  A    between atoms: N_9  and  C_10
REMARK    5  A    between atoms: C_10  and  C_11
REMARK    6  A    between atoms: C_14  and  S_17
REMARK                            x       y       z     vdW  Elec       q    Type
REMARK                         _______ _______ _______ _____ _____    ______ ____
ROOT
ATOM      5  N   UNL     1      -0.471   2.594  25.046  0.00  0.00    -0.260 N 
ATOM      6  C   UNL     1      -0.965   2.176  25.558  0.00  0.00    +0.116 C 
ATOM      7  C   UNL     1      -0.883   1.373  25.390  0.00  0.00    +0.113 C 
ATOM      8  C   UNL     1      -1.234   0.702  25.718  0.00  0.00    +0.094 C 
ATOM      9  N   UNL     1      -1.041  -0.047  25.432  0.00  0.00    -0.266 NA
ATOM     21  C   UNL     1      -0.496  -0.125  24.818  0.00  0.00    +0.094 C 
ATOM     22  C   UNL     1      -0.144   0.545  24.489  0.00  0.00    +0.112 C 
ATOM     23  N   UNL     1      -0.338   1.294  24.776  0.00  0.00    -0.261 N 
ATOM     24  C   UNL     1      -0.083   2.049  24.563  0.00  0.00    +0.307 C 
ATOM     25  O   UNL     1       0.463   2.228  23.971  0.00  0.00    -0.252 OA
ENDROOT
BRANCH   5   4
ATOM      4  C   UNL     1      -0.380   3.414  25.022  0.00  0.00    +0.127 C 
BRANCH   4   3
ATOM      3  C   UNL     1      -1.024   3.906  25.175  0.00  0.00    +0.164 C 
BRANCH   3   2
ATOM      1  C   UNL     1      -1.590   5.217  25.151  0.00  0.00    +0.174 C 
ATOM      2  O   UNL     1      -0.928   4.725  25.172  0.00  0.00    -0.349 OA
ENDBRANCH   3   2
ENDBRANCH   4   3
ENDBRANCH   5   4
BRANCH   9  10
ATOM     10  C   UNL     1      -1.392  -0.718  25.760  0.00  0.00    +0.099 C 
BRANCH  10  11
ATOM     11  C   UNL     1      -2.007  -1.097  25.364  0.00  0.00    -0.006 A 
ATOM     12  C   UNL     1      -1.844  -1.714  24.841  0.00  0.00    -0.002 A 
ATOM     13  C   UNL     1      -2.459  -2.093  24.445  0.00  0.00    +0.018 A 
ATOM     14  C   UNL     1      -3.239  -1.856  24.571  0.00  0.00    +0.106 A 
ATOM     15  C   UNL     1      -3.404  -1.240  25.094  0.00  0.00    +0.018 A 
ATOM     16  C   UNL     1      -2.787  -0.860  25.490  0.00  0.00    -0.002 A 
BRANCH  14  17
ATOM     17  S   UNL     1      -3.856  -2.236  24.175  0.00  0.00    +0.010 S 
ATOM     18  C   UNL     1      -4.472  -2.615  23.779  0.00  0.00    +0.182 C 
ATOM     19  O   UNL     1      -4.002  -1.548  23.744  0.00  0.00    -0.169 OA
ATOM     20  O   UNL     1      -3.709  -2.924  24.606  0.00  0.00    -0.169 OA
ENDBRANCH  14  17
ENDBRANCH  10  11
ENDBRANCH   9  10
TORSDOF 6
ENDMDL
MODEL 3
REMARK VINA RESULT:      -8.7      3.007      4.378
REMARK  Name = 
REMARK  6 active torsions:
REMARK  status: ('A' for Active; 'I' for Inactive)
REMARK    1  A    between atoms: O_2  and  C_3
REMARK    2  A    between atoms: C_3  and  C_4
REMARK    3  A    between atoms: C_4  and  N_5
REMARK    4  A    between atoms: N_9  and  C_10
REMARK    5  A    between atoms: C_10  and  C_11
REMARK    6  A    between atoms: C_14  and  S_17
REMARK                            x       y       z     vdW  Elec       q    Type
REMARK                         _______ _______ _______ _____ _____    ______ ____
ROOT
ATOM      5  N   UNL     1      -0.065   1.904  24.485  0.00  0.00    -0.260 N 
ATOM      6  C   UNL     1      -0.752   2.061  24.054  0.00  0.00    +0.116 C 
ATOM      7  C   UNL     1      -1.196   2.614  24.476  0.00  0.00    +0.113 C 
ATOM      8  C   UNL     1      -1.922   2.974  24.322  0.00  0.00    +0.094 C 
ATOM      9  N   UNL     1      -2.236   3.516  24.856  0.00  0.00    -0.266 NA
ATOM     21  C   UNL     1      -1.824   3.700  25.547  0.00  0.00    +0.094 C 
ATOM     22  C   UNL     1      -1.098   3.341  25.703  0.00  0.00    +0.112 C 
ATOM     23  N   UNL     1      -0.784   2.798  25.167  0.00  0.00    -0.261 N 
ATOM     24  C   UNL     1      -0.086   2.359  25.172  0.00  0.00    +0.307 C 
ATOM     25  O   UNL     1       0.492   2.373  25.762  0.00  0.00    -0.252 OA
ENDROOT
BRANCH   5   4
ATOM      4  C   UNL     1       0.535   1.383  24.265  0.00  0.00    +0.127 C 
BRANCH   4   3
ATOM      3  C   UNL     1       0.403   0.826  23.671  0.00  0.00    +0.164 C 
BRANCH   3   2
ATOM      1  C   UNL     1       0.938  -0.154  22.781  0.00  0.00    +0.174 C 
ATOM      2  O   UNL     1       0.987   0.275  23.483  0.00  0.00    -0.349 OA
ENDBRANCH   3   2
ENDBRANCH   4   3
ENDBRANCH   5   4
BRANCH   9  10
ATOM     10  C   UNL     1      -2.962   3.876  24.702  0.00  0.00    +0.099 C 
BRANCH  10  11
ATOM     11  C   UNL     1      -3.664   3.493  24.902  0.00  0.00    -0.006 A 
ATOM     12  C   UNL     1      -4.036   2.999  24.355  0.00  0.00    -0.002 A 
ATOM     13  C   UNL     1      -4.738   2.616  24.556  0.00  0.00    +0.018 A 
ATOM     14  C   UNL     1      -5.069   2.726  25.303  0.00  0.00    +0.106 A 
ATOM     15  C   UNL     1      -4.698   3.220  25.851  0.00  0.00    +0.018 A 
ATOM     16  C   UNL     1      -3.995   3.603  25.650  0.00  0.00    -0.002 A 
BRANCH  14  17
ATOM     17  S   UNL     1      -5.772   2.343  25.504  0.00  0.00    +0.010 S 
ATOM     18  C   UNL     1      -6.474   1.959  25.705  0.00  0.00    +0.182 C 
ATOM     19  O   UNL     1      -5.780   2.737  26.229  0.00  0.00    -0.169 OA
ATOM     20  O   UNL     1      -5.763   1.948  24.780  0.00  0.00    -0.169 OA
ENDBRANCH  14  17
ENDBRANCH  10  11
ENDBRANCH   9  10
TORSDOF 6
ENDMDL
MODEL 4
REMARK VINA RESULT:      -8.7      2.648      4.494
REMARK  Name = 
REMARK  6 active torsions:
REMARK  status: ('A' for Active; 'I' for Inactive)
REMARK    1  A    between atoms: O_2  and  C_3
REMARK    2  A    between atoms: C_3  and  C_4
REMARK    3  A    between atoms: C_4  and  N_5
REMARK    4  A    between atoms: N_9  and  C_10
REMARK    5  A    between atoms: C_10  and  C_11
REMARK    6  A    between atoms: C_14  and  S_17
REMARK                            x       y       z     vdW  Elec       q    Type
REMARK                         _______ _______ _______ _____ _____    ______ ____
ROOT
ATOM      5  N   UNL     1      -0.710  -0.491  24.394  0.00  0.00    -0.260 N 
ATOM      6  C   UNL     1      -1.281  -0.106  23.939  0.00  0.00    +0.116 C 
ATOM      7  C   UNL     1      -2.010  -0.201  24.313  0.00  0.00    +0.113 C 
ATOM      8  C   UNL     1      -2.769   0.059  24.118  0.00  0.00    +0.094 C 
ATOM      9  N   UNL     1      -3.406  -0.124  24.608  0.00  0.00    -0.266 NA
ATOM     21  C   UNL     1      -3.286  -0.567  25.293  0.00  0.00    +0.094 C 
ATOM     22  C   UNL     1      -2.528  -0.827  25.489  0.00  0.00    +0.112 C 
ATOM     23  N   UNL     1      -1.890  -0.644  24.998  0.00  0.00    -0.261 N 
ATOM     24  C   UNL     1      -1.086  -0.823  25.048  0.00  0.00    +0.307 C 
ATOM     25  O   UNL     1      -0.723  -1.258  25.648  0.00  0.00    -0.252 OA
ENDROOT
BRANCH   5   4
ATOM      4  C   UNL     1       0.096  -0.536  24.224  0.00  0.00    +0.127 C 
BRANCH   4   3
ATOM      3  C   UNL     1       0.381  -0.262  23.500  0.00  0.00    +0.164 C 
BRANCH   3   2
ATOM      1  C   UNL     1       1.470  -0.045  22.601  0.00  0.00    +0.174 C 
ATOM      2  O   UNL     1       1.178  -0.354  23.308  0.00  0.00    -0.349 OA
ENDBRANCH   3   2
ENDBRANCH   4   3
ENDBRANCH   5   4
BRANCH   9  10
ATOM     10  C   UNL     1      -4.165   0.136  24.413  0.00  0.00    +0.099 C 
BRANCH  10  11
ATOM     11  C   UNL     1      -4.422   0.880  24.658  0.00  0.00    -0.006 A 
ATOM     12  C   UNL     1      -4.196   1.554  24.238  0.00  0.00    -0.002 A 
ATOM     13  C   UNL     1      -4.454   2.298  24.483  0.00  0.00    +0.018 A 
ATOM     14  C   UNL     1      -4.937   2.369  25.148  0.00  0.00    +0.106 A 
ATOM     15  C   UNL     1      -5.163   1.696  25.568  0.00  0.00    +0.018 A 
ATOM     16  C   UNL     1      -4.905   0.951  25.322  0.00  0.00    -0.002 A 
BRANCH  14  17
ATOM     17  S   UNL     1      -5.195   3.114  25.393  0.00  0.00    +0.010 S 
ATOM     18  C   UNL     1      -5.453   3.858  25.639  0.00  0.00    +0.182 C 
ATOM     19  O   UNL     1      -4.411   3.358  25.476  0.00  0.00    -0.169 OA
ATOM     20  O   UNL     1      -5.978   2.869  25.311  0.00  0.00    -0.169 OA
ENDBRANCH  14  17
ENDBRANCH  10  11
ENDBRANCH   9  10
TORSDOF 6
ENDMDL
MODEL 5
REMARK VINA RESULT:      -8.3      2.755      5.765
REMARK  Name = 
REMARK  6 active torsions:
REMARK  status: ('A' for Active; 'I' for Inactive)
REMARK    1  A    between atoms: O_2  and  C_3
REMARK    2  A    between atoms: C_3  and  C_4
REMARK    3  A    between atoms: C_4  and  N_5
REMARK    4  A    between atoms: N_9  and  C_10
REMARK    5  A    between atoms: C_10  and  C_11
REMARK    6  A    between atoms: C_14  and  S_17
REMARK                            x       y       z     vdW  Elec       q    Type
REMARK                         _______ _______ _______ _____ _____    ______ ____
ROOT
ATOM      5  N   UNL     1      -1.238  -1.004  24.727  0.00  0.00    -0.260 N 
ATOM      6  C   UNL     1      -1.372  -0.503  25.369  0.00  0.00    +0.116 C 
ATOM      7  C   UNL     1      -0.912   0.174  25.263  0.00  0.00    +0.113 C 
ATOM      8  C   UNL     1      -0.819   0.856  25.718  0.00  0.00    +0.094 C 
ATOM      9  N   UNL     1      -0.310   1.453  25.467  0.00  0.00    -0.266 NA
ATOM     21  C   UNL     1       0.107   1.370  24.761  0.00  0.00    +0.094 C 
ATOM     22  C   UNL     1       0.015   0.689  24.304  0.00  0.00    +0.112 C 
ATOM     23  N   UNL     1      -0.495   0.090  24.556  0.00  0.00    -0.261 N 
ATOM     24  C   UNL     1      -0.696  -0.637  24.225  0.00  0.00    +0.307 C 
ATOM     25  O   UNL     1      -0.407  -0.945  23.516  0.00  0.00    -0.252 OA
ENDROOT
BRANCH   5   4
ATOM      4  C   UNL     1      -1.585  -1.743  24.609  0.00  0.00    +0.127 C 
BRANCH   4   3
ATOM      3  C   UNL     1      -2.384  -1.856  24.781  0.00  0.00    +0.164 C 
BRANCH   3   2
ATOM      1  C   UNL     1      -3.558  -2.664  24.669  0.00  0.00    +0.174 C 
ATOM      2  O   UNL     1      -2.736  -2.590  24.646  0.00  0.00    -0.349 OA
ENDBRANCH   3   2
ENDBRANCH   4   3
ENDBRANCH   5   4
BRANCH   9  10
ATOM     10  C   UNL     1      -0.217   2.135  25.923  0.00  0.00    +0.099 C 
BRANCH  10  11
ATOM     11  C   UNL     1      -0.629   2.822  25.726  0.00  0.00    -0.006 A 
ATOM     12  C   UNL     1      -0.299   3.365  25.199  0.00  0.00    -0.002 A 
ATOM     13  C   UNL     1      -0.710   4.052  25.002  0.00  0.00    +0.018 A 
ATOM     14  C   UNL     1      -1.452   4.197  25.333  0.00  0.00    +0.106 A 
ATOM     15  C   UNL     1      -1.782   3.656  25.860  0.00  0.00    +0.018 A 
ATOM     16  C   UNL     1      -1.370   2.968  26.057  0.00  0.00    -0.002 A 
BRANCH  14  17
ATOM     17  S   UNL     1      -1.864   4.885  25.136  0.00  0.00    +0.010 S 
ATOM     18  C   UNL     1      -2.275   5.572  24.940  0.00  0.00    +0.182 C 
ATOM     19  O   UNL     1      -1.153   5.303  25.110  0.00  0.00    -0.169 OA
ATOM     20  O   UNL     1      -2.574   4.466  25.163  0.00  0.00    -0.169 OA
ENDBRANCH  14  17
ENDBRANCH  10  11
ENDBRANCH   9  10
TORSDOF 6
ENDMDL
MODEL 6
REMARK VINA RESULT:      -8.0      2.234      5.180
REMARK  Name = 
REMARK  6 active torsions:
REMARK  status: ('A' for Active; 'I' for Inactive)
REMARK    1  A    between atoms: O_2  and  C_3
REMARK    2  A    between atoms: C_3  and  C_4
REMARK    3  A    between atoms: C_4  and  N_5
REMARK    4  A    between atoms: N_9  and  C_10
REMARK    5  A    between atoms: C_10  and  C_11
REMARK    6  A    between atoms: C_14  and  S_17
REMARK                            x       y       z     vdW  Elec       q    Type
REMARK                         _______ _______ _______ _____ _____    ______ ____
ROOT
ATOM      5  N   UNL     1      -1.736  -0.934  24.726  0.00  0.00    -0.260 N 
ATOM      6  C   UNL     1      -2.200  -0.372  24.340  0.00  0.00    +0.116 C 
ATOM      7  C   UNL     1      -1.929   0.375  24.559  0.00  0.00    +0.113 C 
ATOM      8  C   UNL     1      -2.175   1.135  24.352  0.00  0.00    +0.094 C 
ATOM      9  N   UNL     1      -1.791   1.794  24.665  0.00  0.00    -0.266 NA
ATOM     21  C   UNL     1      -1.160   1.693  25.187  0.00  0.00    +0.094 C 
ATOM     22  C   UNL     1      -0.913   0.934  25.396  0.00  0.00    +0.112 C 
ATOM     23  N   UNL     1      -1.298   0.275  25.081  0.00  0.00    -0.261 N 
ATOM     24  C   UNL     1      -1.179  -0.534  25.184  0.00  0.00    +0.307 C 
ATOM     25  O   UNL     1      -0.603  -0.883  25.662  0.00  0.00    -0.252 OA
ENDROOT
BRANCH   5   4
ATOM      4  C   UNL     1      -1.815  -1.753  24.665  0.00  0.00    +0.127 C 
BRANCH   4   3
ATOM      3  C   UNL     1      -2.559  -2.088  24.543  0.00  0.00    +0.164 C 
BRANCH   3   2
ATOM      1  C   UNL     1      -3.381  -3.256  24.494  0.00  0.00    +0.174 C 
ATOM      2  O   UNL     1      -2.635  -2.904  24.454  0.00  0.00    -0.349 OA
ENDBRANCH   3   2
ENDBRANCH   4   3
ENDBRANCH   5   4
BRANCH   9  10
ATOM     10  C   UNL     1      -2.037   2.554  24.458  0.00  0.00    +0.099 C 
BRANCH  10  11
ATOM     11  C   UNL     1      -2.778   2.826  24.693  0.00  0.00    -0.006 A 
ATOM     12  C   UNL     1      -2.876   3.167  25.439  0.00  0.00    -0.002 A 
ATOM     13  C   UNL     1      -3.617   3.439  25.675  0.00  0.00    +0.018 A 
ATOM     14  C   UNL     1      -4.262   3.373  25.165  0.00  0.00    +0.106 A 
ATOM     15  C   UNL     1      -4.166   3.033  24.420  0.00  0.00    +0.018 A 
ATOM     16  C   UNL     1      -3.424   2.760  24.184  0.00  0.00    -0.002 A 
BRANCH  14  17
ATOM     17  S   UNL     1      -5.005   3.646  25.401  0.00  0.00    +0.010 S 
ATOM     18  C   UNL     1      -5.746   3.919  25.637  0.00  0.00    +0.182 C 
ATOM     19  O   UNL     1      -5.246   2.869  25.540  0.00  0.00    -0.169 OA
ATOM     20  O   UNL     1      -4.762   4.422  25.262  0.00  0.00    -0.169 OA
ENDBRANCH  14  17
ENDBRANCH  10  11
ENDBRANCH   9  10
TORSDOF 6
ENDMDL
MODEL 7
REMARK VINA RESULT:      -5.8     16.147     18.738
REMARK  Name = 
REMARK  6 active torsions:
REMARK  status: ('A' for Active; 'I' for Inactive)
REMARK    1  A    between atoms: O_2  and  C_3
REMARK    2  A    between atoms: C_3  and  C_4
REMARK    3  A    between atoms: C_4  and  N_5
REMARK    4  A    between atoms: N_9  and  C_10
REMARK    5  A    between atoms: C_10  and  C_11
REMARK    6  A    between atoms: C_14  and  S_17
REMARK                            x       y       z     vdW  Elec       q    Type
REMARK                         _______ _______ _______ _____ _____    ______ ____
ROOT
ATOM      5  N   UNL     1      13.045   8.768  16.971  0.00  0.00    -0.260 N 
ATOM      6  C   UNL     1      12.772   9.002  17.714  0.00  0.00    +0.116 C 
ATOM      7  C   UNL     1      13.255   8.655  18.284  0.00  0.00    +0.113 C 
ATOM      8  C   UNL     1      13.249   8.689  19.109  0.00  0.00    +0.094 C 
ATOM      9  N   UNL     1      13.814   8.275  19.544  0.00  0.00    -0.266 NA
ATOM     21  C   UNL     1      14.386   7.826  19.154  0.00  0.00    +0.094 C 
ATOM     22  C   UNL     1      14.393   7.791  18.330  0.00  0.00    +0.112 C 
ATOM     23  N   UNL     1      13.827   8.206  17.895  0.00  0.00    -0.261 N 
ATOM     24  C   UNL     1      13.698   8.276  17.084  0.00  0.00    +0.307 C 
ATOM     25  O   UNL     1      14.142   7.916  16.489  0.00  0.00    -0.252 OA
ENDROOT
BRANCH   5   4
ATOM      4  C   UNL     1      12.723   8.987  16.244  0.00  0.00    +0.127 C 
BRANCH   4   3
ATOM      3  C   UNL     1      11.907   9.081  16.166  0.00  0.00    +0.164 C 
BRANCH   3   2
ATOM      1  C   UNL     1      10.736   9.094  15.348  0.00  0.00    +0.174 C 
ATOM      2  O   UNL     1      11.547   8.968  15.432  0.00  0.00    -0.349 OA
ENDBRANCH   3   2
ENDBRANCH   4   3
ENDBRANCH   5   4
BRANCH   9  10
ATOM     10  C   UNL     1      13.807   8.309  20.368  0.00  0.00    +0.099 C 
BRANCH  10  11
ATOM     11  C   UNL     1      13.115   8.143  20.783  0.00  0.00    -0.006 A 
ATOM     12  C   UNL     1      12.906   7.360  20.941  0.00  0.00    -0.002 A 
ATOM     13  C   UNL     1      12.213   7.194  21.356  0.00  0.00    +0.018 A 
ATOM     14  C   UNL     1      11.729   7.810  21.614  0.00  0.00    +0.106 A 
ATOM     15  C   UNL     1      11.937   8.592  21.457  0.00  0.00    +0.018 A 
ATOM     16  C   UNL     1      12.630   8.759  21.041  0.00  0.00    -0.002 A 
BRANCH  14  17
ATOM     17  S   UNL     1      11.035   7.643  22.030  0.00  0.00    +0.010 S 
ATOM     18  C   UNL     1      10.342   7.477  22.445  0.00  0.00    +0.182 C 
ATOM     19  O   UNL     1      10.848   7.056  21.482  0.00  0.00    -0.169 OA
ATOM     20  O   UNL     1      11.223   8.232  22.577  0.00  0.00    -0.169 OA
ENDBRANCH  14  17
ENDBRANCH  10  11
ENDBRANCH   9  10
TORSDOF 6
ENDMDL
MODEL 8
REMARK VINA RESULT:      -5.3     18.258     19.837
REMARK  Name = 
REMARK  6 active torsions:
REMARK  status: ('A' for Active; 'I' for Inactive)
REMARK    1  A    between atoms: O_2  and  C_3
REMARK    2  A    between atoms: C_3  and  C_4
REMARK    3  A    between atoms: C_4  and  N_5
REMARK    4  A    between atoms: N_9  and  C_10
REMARK    5  A    between atoms: C_10  and  C_11
REMARK    6  A    between atoms: C_14  and  S_17
REMARK                            x       y       z     vdW  Elec       q    Type
REMARK                         _______ _______ _______ _____ _____    ______ ____
ROOT
ATOM      5  N   UNL     1      12.887   8.570  17.143  0.00  0.00    -0.260 N 
ATOM      6  C   UNL     1      13.451   8.766  17.712  0.00  0.00    +0.116 C 
ATOM      7  C   UNL     1      13.218   8.430  18.428  0.00  0.00    +0.113 C 
ATOM      8  C   UNL     1      13.559   8.438  19.179  0.00  0.00    +0.094 C 
ATOM      9  N   UNL     1      13.193   8.045  19.803  0.00  0.00    -0.266 NA
ATOM     21  C   UNL     1      12.484   7.641  19.677  0.00  0.00    +0.094 C 
ATOM     22  C   UNL     1      12.143   7.631  18.927  0.00  0.00    +0.112 C 
ATOM     23  N   UNL     1      12.510   8.026  18.301  0.00  0.00    -0.261 N 
ATOM     24  C   UNL     1      12.305   8.113  17.508  0.00  0.00    +0.307 C 
ATOM     25  O   UNL     1      11.636   7.797  17.142  0.00  0.00    -0.252 OA
ENDROOT
BRANCH   5   4
ATOM      4  C   UNL     1      12.901   8.792  16.348  0.00  0.00    +0.127 C 
BRANCH   4   3
ATOM      3  C   UNL     1      13.619   8.966  15.981  0.00  0.00    +0.164 C 
BRANCH   3   2
ATOM      1  C   UNL     1      14.259   8.766  14.720  0.00  0.00    +0.174 C 
ATOM      2  O   UNL     1      13.647   9.093  15.167  0.00  0.00    -0.349 OA
ENDBRANCH   3   2
ENDBRANCH   4   3
ENDBRANCH   5   4
BRANCH   9  10
ATOM     10  C   UNL     1      13.534   8.053  20.555  0.00  0.00    +0.099 C 
BRANCH  10  11
ATOM     11  C   UNL     1      14.286   7.738  20.671  0.00  0.00    -0.006 A 
ATOM     12  C   UNL     1      14.928   8.238  20.810  0.00  0.00    -0.002 A 
ATOM     13  C   UNL     1      15.680   7.922  20.925  0.00  0.00    +0.018 A 
ATOM     14  C   UNL     1      15.793   7.105  20.902  0.00  0.00    +0.106 A 
ATOM     15  C   UNL     1      15.153   6.604  20.763  0.00  0.00    +0.018 A 
ATOM     16  C   UNL     1      14.399   6.921  20.647  0.00  0.00    -0.002 A 
BRANCH  14  17
ATOM     17  S   UNL     1      16.546   6.789  21.018  0.00  0.00    +0.010 S 
ATOM     18  C   UNL     1      17.299   6.472  21.133  0.00  0.00    +0.182 C 
ATOM     19  O   UNL     1      16.521   7.020  21.809  0.00  0.00    -0.169 OA
ATOM     20  O   UNL     1      16.570   6.558  20.226  0.00  0.00    -0.169 OA
ENDBRANCH  14  17
ENDBRANCH  10  11
ENDBRANCH   9  10
TORSDOF 6
ENDMDL
