MODEL 1
REMARK VINA RESULT:     -14.3      0.000      0.000
REMARK  Name = 
REMARK  4 active torsions:
REMARK  status: ('A' for Active; 'I' for Inactive)
REMARK    1  A    between atoms: C_7  and  C_8
REMARK    2  A    between atoms: C_14  and  N_15
REMARK    3  A    between atoms: C_16  and  C_18
REMARK    4  A    between atoms: C_21  and  C_24
REMARK                            x       y       z     vdW  Elec       q    Type
REMARK                         _______ _______ _______ _____ _____    ______ ____
ROOT
ATOM      8  C   UNL     1      -3.894   2.388  24.437  0.00  0.00    +0.047 C 
ATOM      9  C   UNL     1      -4.298   3.063  24.685  0.00  0.00    +0.042 C 
ATOM     10  C   UNL     1      -5.030   2.826  24.982  0.00  0.00    +0.184 C 
ATOM     11  O   UNL     1      -5.613   3.323  25.290  0.00  0.00    -0.220 OA
ATOM     12  C   UNL     1      -5.078   2.005  24.918  0.00  0.00    +0.202 C 
ATOM     13  O   UNL     1      -5.717   1.537  25.151  0.00  0.00    -0.219 OA
ATOM     14  C   UNL     1      -4.376   1.734  24.581  0.00  0.00    +0.132 C 
ENDROOT
BRANCH   8   7
ATOM      1  C   UNL     1      -2.591   2.892  25.315  0.00  0.00    +0.031 C 
ATOM      2  C   UNL     1      -2.489   2.622  24.542  0.00  0.00    -0.026 A 
ATOM      3  C   UNL     1      -1.733   2.604  24.208  0.00  0.00    -0.005 A 
ATOM      4  C   UNL     1      -1.631   2.335  23.436  0.00  0.00    -0.000 A 
ATOM      5  C   UNL     1      -2.281   2.083  22.997  0.00  0.00    -0.000 A 
ATOM      6  C   UNL     1      -3.037   2.101  23.331  0.00  0.00    -0.005 A 
ATOM      7  C   UNL     1      -3.139   2.370  24.103  0.00  0.00    -0.025 A 
ENDBRANCH   8   7
BRANCH  14  15
ATOM     15  N   UNL     1      -4.188   0.948  24.417  0.00  0.00    -0.200 NA
ATOM     16  C   UNL     1      -4.338   0.363  24.978  0.00  0.00    +0.265 C 
ATOM     17  O   UNL     1      -4.677   0.563  25.704  0.00  0.00    -0.268 OA
BRANCH  16  18
ATOM     18  C   UNL     1      -4.151  -0.424  24.815  0.00  0.00    +0.055 A 
ATOM     19  C   UNL     1      -4.425  -0.778  24.122  0.00  0.00    +0.005 A 
ATOM     20  C   UNL     1      -4.237  -1.565  23.958  0.00  0.00    +0.004 A 
ATOM     21  C   UNL     1      -3.775  -1.997  24.487  0.00  0.00    +0.071 A 
ATOM     22  C   UNL     1      -3.501  -1.643  25.180  0.00  0.00    +0.004 A 
ATOM     23  C   UNL     1      -3.688  -0.856  25.344  0.00  0.00    +0.005 A 
BRANCH  21  24
ATOM     24  C   UNL     1      -3.587  -2.784  24.324  0.00  0.00    +0.419 C 
ATOM     25  F   UNL     1      -3.400  -3.570  24.160  0.00  0.00    -0.166 F 
ATOM     26  F   UNL     1      -4.320  -2.882  23.959  0.00  0.00    -0.166 F 
ATOM     27  F   UNL     1      -2.854  -2.685  24.689  0.00  0.00    -0.166 F 
ENDBRANCH  21  24
ENDBRANCH  16  18
ENDBRANCH  14  15
TORSDOF 4
ENDMDL
MODEL 2
REMARK VINA RESULT:     -13.7      1.389      2.291
REMARK  Name = 
REMARK  4 active torsions:
REMARK  status: ('A' for Active; 'I' for Inactive)
REMARK    1  A    between atoms: C_7  and  C_8
REMARK    2  A    between atoms: C_14  and  N_15
REMARK    3  A    between atoms: C_16  and  C_18
REMARK    4  A    between atoms: C_21  and  C_24
REMARK                            x       y       z     vdW  Elec       q    Type
REMARK                         _______ _______ _______ _____ _____    ______ ____
ROOT
ATOM      8  C   UNL     1      -4.335   2.388  24.273  0.00  0.00    +0.047 C 
ATOM      9  C   UNL     1      -4.073   3.092  23.931  0.00  0.00    +0.042 C 
ATOM     10  C   UNL     1      -3.460   2.910  23.411  0.00  0.00    +0.184 C 
ATOM     11  O   UNL     1      -3.038   3.450  22.950  0.00  0.00    -0.220 OA
ATOM     12  C   UNL     1      -3.343   2.094  23.430  0.00  0.00    +0.202 C 
ATOM     13  O   UNL     1      -2.783   1.674  22.992  0.00  0.00    -0.219 OA
ATOM     14  C   UNL     1      -3.883   1.771  23.963  0.00  0.00    +0.132 C 
ENDROOT
BRANCH   8   7
ATOM      1  C   UNL     1      -4.245   3.200  25.707  0.00  0.00    +0.031 C 
ATOM      2  C   UNL     1      -4.896   2.720  25.544  0.00  0.00    -0.026 A 
ATOM      3  C   UNL     1      -5.504   2.645  26.099  0.00  0.00    -0.005 A 
ATOM      4  C   UNL     1      -6.154   2.166  25.936  0.00  0.00    -0.000 A 
ATOM      5  C   UNL     1      -6.199   1.761  25.220  0.00  0.00    -0.000 A 
ATOM      6  C   UNL     1      -5.592   1.835  24.665  0.00  0.00    -0.005 A 
ATOM      7  C   UNL     1      -4.941   2.314  24.827  0.00  0.00    -0.025 A 
ENDBRANCH   8   7
BRANCH  14  15
ATOM     15  N   UNL     1      -3.959   0.972  24.152  0.00  0.00    -0.200 NA
ATOM     16  C   UNL     1      -3.287   0.521  24.315  0.00  0.00    +0.265 C 
ATOM     17  O   UNL     1      -2.540   0.869  24.288  0.00  0.00    -0.268 OA
BRANCH  16  18
ATOM     18  C   UNL     1      -3.363  -0.278  24.505  0.00  0.00    +0.055 A 
ATOM     19  C   UNL     1      -3.704  -0.800  23.964  0.00  0.00    +0.005 A 
ATOM     20  C   UNL     1      -3.779  -1.600  24.154  0.00  0.00    +0.004 A 
ATOM     21  C   UNL     1      -3.514  -1.877  24.885  0.00  0.00    +0.071 A 
ATOM     22  C   UNL     1      -3.174  -1.355  25.425  0.00  0.00    +0.004 A 
ATOM     23  C   UNL     1      -3.098  -0.555  25.235  0.00  0.00    +0.005 A 
BRANCH  21  24
ATOM     24  C   UNL     1      -3.590  -2.676  25.075  0.00  0.00    +0.419 C 
ATOM     25  F   UNL     1      -3.666  -3.475  25.265  0.00  0.00    -0.166 F 
ATOM     26  F   UNL     1      -3.615  -2.483  25.876  0.00  0.00    -0.166 F 
ATOM     27  F   UNL     1      -3.565  -2.869  24.273  0.00  0.00    -0.166 F 
ENDBRANCH  21  24
ENDBRANCH  16  18
ENDBRANCH  14  15
TORSDOF 4
ENDMDL
MODEL 3
REMARK VINA RESULT:     -13.4      3.518      5.258
REMARK  Name = 
REMARK  4 active torsions:
REMARK  status: ('A' for Active; 'I' for Inactive)
REMARK    1  A    between atoms: C_7  and  C_8
REMARK    2  A    between atoms: C_14  and  N_15
REMARK    3  A    between atoms: C_16  and  C_18
REMARK    4  A    between atoms: C_21  and  C_24
REMARK                            x       y       z     vdW  Elec       q    Type
REMARK                         _______ _______ _______ _____ _____    ______ ____
ROOT
ATOM      8  C   UNL     1      -2.109  -0.207  24.661  0.00  0.00    +0.047 C 
ATOM      9  C   UNL     1      -1.785  -0.966  24.651  0.00  0.00    +0.042 C 
ATOM     10  C   UNL     1      -0.964  -0.892  24.644  0.00  0.00    +0.184 C 
ATOM     11  O   UNL     1      -0.422  -1.514  24.633  0.00  0.00    -0.220 OA
ATOM     12  C   UNL     1      -0.780  -0.088  24.650  0.00  0.00    +0.202 C 
ATOM     13  O   UNL     1      -0.021   0.236  24.646  0.00  0.00    -0.219 OA
ATOM     14  C   UNL     1      -1.487   0.336  24.661  0.00  0.00    +0.132 C 
ENDROOT
BRANCH   8   7
ATOM      1  C   UNL     1      -3.074  -0.784  25.869  0.00  0.00    +0.031 C 
ATOM      2  C   UNL     1      -3.395  -0.311  25.274  0.00  0.00    -0.026 A 
ATOM      3  C   UNL     1      -4.200  -0.127  25.283  0.00  0.00    -0.005 A 
ATOM      4  C   UNL     1      -4.522   0.345  24.688  0.00  0.00    -0.000 A 
ATOM      5  C   UNL     1      -4.040   0.634  24.085  0.00  0.00    -0.000 A 
ATOM      6  C   UNL     1      -3.235   0.449  24.076  0.00  0.00    -0.005 A 
ATOM      7  C   UNL     1      -2.913  -0.023  24.670  0.00  0.00    -0.025 A 
ENDBRANCH   8   7
BRANCH  14  15
ATOM     15  N   UNL     1      -1.561   1.157  24.669  0.00  0.00    -0.200 NA
ATOM     16  C   UNL     1      -1.103   1.606  25.188  0.00  0.00    +0.265 C 
ATOM     17  O   UNL     1      -0.572   1.234  25.698  0.00  0.00    -0.268 OA
BRANCH  16  18
ATOM     18  C   UNL     1      -1.176   2.428  25.197  0.00  0.00    +0.055 A 
ATOM     19  C   UNL     1      -0.913   2.873  24.554  0.00  0.00    +0.005 A 
ATOM     20  C   UNL     1      -0.986   3.695  24.563  0.00  0.00    +0.004 A 
ATOM     21  C   UNL     1      -1.323   4.071  25.215  0.00  0.00    +0.071 A 
ATOM     22  C   UNL     1      -1.587   3.627  25.858  0.00  0.00    +0.004 A 
ATOM     23  C   UNL     1      -1.513   2.805  25.849  0.00  0.00    +0.005 A 
BRANCH  21  24
ATOM     24  C   UNL     1      -1.397   4.893  25.224  0.00  0.00    +0.419 C 
ATOM     25  F   UNL     1      -1.470   5.715  25.232  0.00  0.00    -0.166 F 
ATOM     26  F   UNL     1      -2.208   4.819  25.352  0.00  0.00    -0.166 F 
ATOM     27  F   UNL     1      -0.585   4.967  25.095  0.00  0.00    -0.166 F 
ENDBRANCH  21  24
ENDBRANCH  16  18
ENDBRANCH  14  15
TORSDOF 4
ENDMDL
MODEL 4
REMARK VINA RESULT:     -13.2      1.683      2.447
REMARK  Name = 
REMARK  4 active torsions:
REMARK  status: ('A' for Active; 'I' for Inactive)
REMARK    1  A    between atoms: C_7  and  C_8
REMARK    2  A    between atoms: C_14  and  N_15
REMARK    3  A    between atoms: C_16  and  C_18
REMARK    4  A    between atoms: C_21  and  C_24
REMARK                            x       y       z     vdW  Elec       q    Type
REMARK                         _______ _______ _______ _____ _____    ______ ____
ROOT
ATOM      8  C   UNL     1      -1.932   2.286  24.876  0.00  0.00    +0.047 C 
ATOM      9  C   UNL     1      -1.341   2.740  25.229  0.00  0.00    +0.042 C 
ATOM     10  C   UNL     1      -0.778   2.226  25.544  0.00  0.00    +0.184 C 
ATOM     11  O   UNL     1      -0.092   2.446  25.946  0.00  0.00    -0.220 OA
ATOM     12  C   UNL     1      -1.022   1.454  25.386  0.00  0.00    +0.202 C 
ATOM     13  O   UNL     1      -0.621   0.766  25.602  0.00  0.00    -0.219 OA
ATOM     14  C   UNL     1      -1.735   1.491  24.973  0.00  0.00    +0.132 C 
ENDROOT
BRANCH   8   7
ATOM      1  C   UNL     1      -3.016   3.217  25.703  0.00  0.00    +0.031 C 
ATOM      2  C   UNL     1      -3.145   3.041  24.907  0.00  0.00    -0.026 A 
ATOM      3  C   UNL     1      -3.817   3.331  24.524  0.00  0.00    -0.005 A 
ATOM      4  C   UNL     1      -3.946   3.156  23.729  0.00  0.00    -0.000 A 
ATOM      5  C   UNL     1      -3.404   2.691  23.316  0.00  0.00    -0.000 A 
ATOM      6  C   UNL     1      -2.732   2.401  23.699  0.00  0.00    -0.005 A 
ATOM      7  C   UNL     1      -2.603   2.576  24.494  0.00  0.00    -0.025 A 
ENDBRANCH   8   7
BRANCH  14  15
ATOM     15  N   UNL     1      -2.173   0.846  24.705  0.00  0.00    -0.200 NA
ATOM     16  C   UNL     1      -2.279   0.189  25.191  0.00  0.00    +0.265 C 
ATOM     17  O   UNL     1      -1.946   0.175  25.946  0.00  0.00    -0.268 OA
BRANCH  16  18
ATOM     18  C   UNL     1      -2.718  -0.457  24.923  0.00  0.00    +0.055 A 
ATOM     19  C   UNL     1      -3.515  -0.526  25.125  0.00  0.00    +0.005 A 
ATOM     20  C   UNL     1      -3.954  -1.171  24.856  0.00  0.00    +0.004 A 
ATOM     21  C   UNL     1      -3.596  -1.747  24.386  0.00  0.00    +0.071 A 
ATOM     22  C   UNL     1      -2.799  -1.677  24.185  0.00  0.00    +0.004 A 
ATOM     23  C   UNL     1      -2.360  -1.032  24.453  0.00  0.00    +0.005 A 
BRANCH  21  24
ATOM     24  C   UNL     1      -4.035  -2.392  24.118  0.00  0.00    +0.419 C 
ATOM     25  F   UNL     1      -4.474  -3.037  23.850  0.00  0.00    -0.166 F 
ATOM     26  F   UNL     1      -3.727  -2.854  24.727  0.00  0.00    -0.166 F 
ATOM     27  F   UNL     1      -4.343  -1.929  23.508  0.00  0.00    -0.166 F 
ENDBRANCH  21  24
ENDBRANCH  16  18
ENDBRANCH  14  15
TORSDOF 4
ENDMDL
