MODEL 1
REMARK VINA RESULT:     -15.2      0.000      0.000
REMARK  Name = 
REMARK  5 active torsions:
REMARK  status: ('A' for Active; 'I' for Inactive)
REMARK    1  A    between atoms: O_2  and  C_3
REMARK    2  A    between atoms: C_6  and  C_7
REMARK    3  A    between atoms: C_7  and  N_8
REMARK    4  A    between atoms: C_17  and  C_18
REMARK    5  A    between atoms: C_19  and  C_20
REMARK                            x       y       z     vdW  Elec       q    Type
REMARK                         _______ _______ _______ _____ _____    ______ ____
ROOT
ATOM      8  N   UNL     1      -3.398   3.076  25.109  0.00  0.00    -0.269 NA
ATOM      9  C   UNL     1      -3.571   3.873  25.293  0.00  0.00    +0.074 C 
ATOM     10  C   UNL     1      -4.550   3.808  25.409  0.00  0.00    +0.039 C 
ATOM     11  C   UNL     1      -5.346   3.920  25.538  0.00  0.00    +0.011 C 
ATOM     12  C   UNL     1      -4.917   3.390  25.374  0.00  0.00    +0.054 C 
ATOM     13  C   UNL     1      -3.972   3.469  25.265  0.00  0.00    +0.078 C 
ATOM     14  C   UNL     1      -4.922   2.489  25.192  0.00  0.00    +0.041 A 
ATOM     15  C   UNL     1      -5.440   1.850  25.132  0.00  0.00    +0.013 A 
ATOM     16  C   UNL     1      -5.152   1.101  24.942  0.00  0.00    +0.006 A 
ATOM     17  C   UNL     1      -4.344   0.991  24.813  0.00  0.00    +0.056 A 
ATOM     27  C   UNL     1      -3.826   1.629  24.874  0.00  0.00    +0.261 A 
ATOM     28  O   UNL     1      -3.018   1.518  24.744  0.00  0.00    -0.267 OA
ATOM     29  N   UNL     1      -4.114   2.378  25.063  0.00  0.00    -0.299 N 
ATOM     30  C   UNL     1      -4.545   2.867  25.219  0.00  0.00    +0.110 C 
ENDROOT
BRANCH  17  18
ATOM     18  C   UNL     1      -4.056   0.241  24.624  0.00  0.00    +0.005 C 
ATOM     19  C   UNL     1      -4.408  -0.430  24.950  0.00  0.00    +0.000 C 
BRANCH  19  20
ATOM     20  C   UNL     1      -4.121  -1.180  24.761  0.00  0.00    +0.000 A 
ATOM     21  C   UNL     1      -3.626  -1.577  25.288  0.00  0.00    +0.001 A 
ATOM     22  C   UNL     1      -3.338  -2.327  25.099  0.00  0.00    +0.011 A 
ATOM     23  C   UNL     1      -3.547  -2.679  24.382  0.00  0.00    +0.058 A 
ATOM     24 CL   UNL     1      -3.259  -3.430  24.193  0.00  0.00    -0.082 Cl
ATOM     25  C   UNL     1      -4.042  -2.283  23.855  0.00  0.00    +0.011 A 
ATOM     26  C   UNL     1      -4.329  -1.532  24.045  0.00  0.00    +0.001 A 
ENDBRANCH  19  20
ENDBRANCH  17  18
BRANCH   8   7
ATOM      7  C   UNL     1      -2.950   2.411  24.916  0.00  0.00    +0.099 C 
BRANCH   7   6
ATOM      3  C   UNL     1      -0.501   2.610  24.625  0.00  0.00    +0.139 A 
ATOM      4  C   UNL     1      -1.000   2.682  23.973  0.00  0.00    +0.037 A 
ATOM      5  C   UNL     1      -1.817   2.616  24.070  0.00  0.00    +0.000 A 
ATOM      6  C   UNL     1      -2.134   2.477  24.819  0.00  0.00    -0.006 A 
ATOM     31  C   UNL     1      -1.634   2.405  25.471  0.00  0.00    +0.000 A 
ATOM     32  C   UNL     1      -0.817   2.472  25.375  0.00  0.00    +0.037 A 
BRANCH   3   2
ATOM      1  C   UNL     1       0.750   2.043  24.228  0.00  0.00    +0.252 C 
ATOM      2  O   UNL     1       0.316   2.677  24.529  0.00  0.00    -0.471 OA
ENDBRANCH   3   2
ENDBRANCH   7   6
ENDBRANCH   8   7
TORSDOF 5
ENDMDL
MODEL 2
REMARK VINA RESULT:     -14.3      0.687      1.018
REMARK  Name = 
REMARK  5 active torsions:
REMARK  status: ('A' for Active; 'I' for Inactive)
REMARK    1  A    between atoms: O_2  and  C_3
REMARK    2  A    between atoms: C_6  and  C_7
REMARK    3  A    between atoms: C_7  and  N_8
REMARK    4  A    between atoms: C_17  and  C_18
REMARK    5  A    between atoms: C_19  and  C_20
REMARK                            x       y       z     vdW  Elec       q    Type
REMARK                         _______ _______ _______ _____ _____    ______ ____
ROOT
ATOM      8  N   UNL     1      -3.999   3.304  25.259  0.00  0.00    -0.269 NA
ATOM      9  C   UNL     1      -4.312   4.064  25.407  0.00  0.00    +0.074 C 
ATOM     10  C   UNL     1      -5.270   3.836  25.488  0.00  0.00    +0.039 C 
ATOM     11  C   UNL     1      -6.079   3.814  25.582  0.00  0.00    +0.011 C 
ATOM     12  C   UNL     1      -5.560   3.360  25.454  0.00  0.00    +0.054 C 
ATOM     13  C   UNL     1      -4.637   3.597  25.378  0.00  0.00    +0.078 C 
ATOM     14  C   UNL     1      -5.403   2.467  25.306  0.00  0.00    +0.041 A 
ATOM     15  C   UNL     1      -5.803   1.747  25.249  0.00  0.00    +0.013 A 
ATOM     16  C   UNL     1      -5.383   1.054  25.098  0.00  0.00    +0.006 A 
ATOM     17  C   UNL     1      -4.563   1.079  25.004  0.00  0.00    +0.056 A 
ATOM     27  C   UNL     1      -4.164   1.798  25.061  0.00  0.00    +0.261 A 
ATOM     28  O   UNL     1      -3.344   1.824  24.967  0.00  0.00    -0.267 OA
ATOM     29  N   UNL     1      -4.584   2.492  25.211  0.00  0.00    -0.299 N 
ATOM     30  C   UNL     1      -5.097   2.904  25.332  0.00  0.00    +0.110 C 
ENDROOT
BRANCH  17  18
ATOM     18  C   UNL     1      -4.144   0.385  24.854  0.00  0.00    +0.005 C 
ATOM     19  C   UNL     1      -4.512  -0.347  24.949  0.00  0.00    +0.000 C 
BRANCH  19  20
ATOM     20  C   UNL     1      -4.094  -1.042  24.798  0.00  0.00    +0.000 A 
ATOM     21  C   UNL     1      -4.238  -1.470  24.107  0.00  0.00    +0.001 A 
ATOM     22  C   UNL     1      -3.820  -2.164  23.957  0.00  0.00    +0.011 A 
ATOM     23  C   UNL     1      -3.257  -2.432  24.498  0.00  0.00    +0.058 A 
ATOM     24 CL   UNL     1      -2.838  -3.127  24.348  0.00  0.00    -0.082 Cl
ATOM     25  C   UNL     1      -3.112  -2.005  25.188  0.00  0.00    +0.011 A 
ATOM     26  C   UNL     1      -3.531  -1.310  25.339  0.00  0.00    +0.001 A 
ENDBRANCH  19  20
ENDBRANCH  17  18
BRANCH   8   7
ATOM      7  C   UNL     1      -3.437   2.719  25.107  0.00  0.00    +0.099 C 
BRANCH   7   6
ATOM      3  C   UNL     1      -1.051   3.332  24.865  0.00  0.00    +0.139 A 
ATOM      4  C   UNL     1      -1.375   3.229  25.615  0.00  0.00    +0.037 A 
ATOM      5  C   UNL     1      -2.171   3.025  25.697  0.00  0.00    +0.000 A 
ATOM      6  C   UNL     1      -2.642   2.923  25.026  0.00  0.00    -0.006 A 
ATOM     31  C   UNL     1      -2.317   3.027  24.275  0.00  0.00    +0.000 A 
ATOM     32  C   UNL     1      -1.521   3.231  24.194  0.00  0.00    +0.037 A 
BRANCH   3   2
ATOM      1  C   UNL     1      -0.046   4.306  24.575  0.00  0.00    +0.252 C 
ATOM      2  O   UNL     1      -0.255   3.536  24.783  0.00  0.00    -0.471 OA
ENDBRANCH   3   2
ENDBRANCH   7   6
ENDBRANCH   8   7
TORSDOF 5
ENDMDL
MODEL 3
REMARK VINA RESULT:     -13.7      1.840      3.617
REMARK  Name = 
REMARK  5 active torsions:
REMARK  status: ('A' for Active; 'I' for Inactive)
REMARK    1  A    between atoms: O_2  and  C_3
REMARK    2  A    between atoms: C_6  and  C_7
REMARK    3  A    between atoms: C_7  and  N_8
REMARK    4  A    between atoms: C_17  and  C_18
REMARK    5  A    between atoms: C_19  and  C_20
REMARK                            x       y       z     vdW  Elec       q    Type
REMARK                         _______ _______ _______ _____ _____    ______ ____
ROOT
ATOM      8  N   UNL     1      -2.548   3.938  25.123  0.00  0.00    -0.269 NA
ATOM      9  C   UNL     1      -2.550   4.773  25.141  0.00  0.00    +0.074 C 
ATOM     10  C   UNL     1      -1.577   4.941  25.113  0.00  0.00    +0.039 C 
ATOM     11  C   UNL     1      -0.820   5.243  25.094  0.00  0.00    +0.011 C 
ATOM     12  C   UNL     1      -1.127   4.612  25.091  0.00  0.00    +0.054 C 
ATOM     13  C   UNL     1      -2.070   4.466  25.119  0.00  0.00    +0.078 C 
ATOM     14  C   UNL     1      -0.929   3.715  25.064  0.00  0.00    +0.041 A 
ATOM     15  C   UNL     1      -0.284   3.202  25.031  0.00  0.00    +0.013 A 
ATOM     16  C   UNL     1      -0.407   2.386  25.018  0.00  0.00    +0.006 A 
ATOM     17  C   UNL     1      -1.174   2.084  25.036  0.00  0.00    +0.056 A 
ATOM     27  C   UNL     1      -1.819   2.597  25.069  0.00  0.00    +0.261 A 
ATOM     28  O   UNL     1      -2.587   2.294  25.088  0.00  0.00    -0.267 OA
ATOM     29  N   UNL     1      -1.697   3.412  25.083  0.00  0.00    -0.299 N 
ATOM     30  C   UNL     1      -1.380   4.002  25.085  0.00  0.00    +0.110 C 
ENDROOT
BRANCH  17  18
ATOM     18  C   UNL     1      -1.296   1.268  25.023  0.00  0.00    +0.005 C 
ATOM     19  C   UNL     1      -0.650   0.755  25.053  0.00  0.00    +0.000 C 
BRANCH  19  20
ATOM     20  C   UNL     1      -0.771  -0.061  25.039  0.00  0.00    +0.000 A 
ATOM     21  C   UNL     1      -1.114  -0.439  25.688  0.00  0.00    +0.001 A 
ATOM     22  C   UNL     1      -1.235  -1.255  25.674  0.00  0.00    +0.011 A 
ATOM     23  C   UNL     1      -1.012  -1.693  25.011  0.00  0.00    +0.058 A 
ATOM     24 CL   UNL     1      -1.132  -2.510  24.997  0.00  0.00    -0.082 Cl
ATOM     25  C   UNL     1      -0.669  -1.316  24.363  0.00  0.00    +0.011 A 
ATOM     26  C   UNL     1      -0.548  -0.499  24.377  0.00  0.00    +0.001 A 
ENDBRANCH  19  20
ENDBRANCH  17  18
BRANCH   8   7
ATOM      7  C   UNL     1      -2.844   3.167  25.116  0.00  0.00    +0.099 C 
BRANCH   7   6
ATOM      3  C   UNL     1      -5.289   2.782  25.150  0.00  0.00    +0.139 A 
ATOM      4  C   UNL     1      -4.869   2.704  24.444  0.00  0.00    +0.037 A 
ATOM      5  C   UNL     1      -4.054   2.832  24.433  0.00  0.00    +0.000 A 
ATOM      6  C   UNL     1      -3.659   3.039  25.127  0.00  0.00    -0.006 A 
ATOM     31  C   UNL     1      -4.079   3.117  25.833  0.00  0.00    +0.000 A 
ATOM     32  C   UNL     1      -4.895   2.988  25.844  0.00  0.00    +0.037 A 
BRANCH   3   2
ATOM      1  C   UNL     1      -6.402   1.887  25.094  0.00  0.00    +0.252 C 
ATOM      2  O   UNL     1      -6.104   2.653  25.161  0.00  0.00    -0.471 OA
ENDBRANCH   3   2
ENDBRANCH   7   6
ENDBRANCH   8   7
TORSDOF 5
ENDMDL
MODEL 4
REMARK VINA RESULT:     -13.3      2.069      4.173
REMARK  Name = 
REMARK  5 active torsions:
REMARK  status: ('A' for Active; 'I' for Inactive)
REMARK    1  A    between atoms: O_2  and  C_3
REMARK    2  A    between atoms: C_6  and  C_7
REMARK    3  A    between atoms: C_7  and  N_8
REMARK    4  A    between atoms: C_17  and  C_18
REMARK    5  A    between atoms: C_19  and  C_20
REMARK                            x       y       z     vdW  Elec       q    Type
REMARK                         _______ _______ _______ _____ _____    ______ ____
ROOT
ATOM      8  N   UNL     1      -1.911  -1.034  24.571  0.00  0.00    -0.269 NA
ATOM      9  C   UNL     1      -1.544  -1.782  24.512  0.00  0.00    +0.074 C 
ATOM     10  C   UNL     1      -2.346  -2.358  24.476  0.00  0.00    +0.039 C 
ATOM     11  C   UNL     1      -2.894  -2.960  24.435  0.00  0.00    +0.011 C 
ATOM     12  C   UNL     1      -2.895  -2.260  24.487  0.00  0.00    +0.054 C 
ATOM     13  C   UNL     1      -2.110  -1.717  24.522  0.00  0.00    +0.078 C 
ATOM     14  C   UNL     1      -3.465  -1.542  24.546  0.00  0.00    +0.041 A 
ATOM     15  C   UNL     1      -4.270  -1.364  24.565  0.00  0.00    +0.013 A 
ATOM     16  C   UNL     1      -4.518  -0.579  24.626  0.00  0.00    +0.006 A 
ATOM     17  C   UNL     1      -3.960   0.027  24.667  0.00  0.00    +0.056 A 
ATOM     27  C   UNL     1      -3.155  -0.151  24.647  0.00  0.00    +0.261 A 
ATOM     28  O   UNL     1      -2.597   0.456  24.688  0.00  0.00    -0.267 OA
ATOM     29  N   UNL     1      -2.907  -0.935  24.587  0.00  0.00    -0.299 N 
ATOM     30  C   UNL     1      -2.934  -1.602  24.537  0.00  0.00    +0.110 C 
ENDROOT
BRANCH  17  18
ATOM     18  C   UNL     1      -4.208   0.812  24.728  0.00  0.00    +0.005 C 
ATOM     19  C   UNL     1      -4.835   1.008  25.227  0.00  0.00    +0.000 C 
BRANCH  19  20
ATOM     20  C   UNL     1      -5.084   1.792  25.288  0.00  0.00    +0.000 A 
ATOM     21  C   UNL     1      -5.758   1.978  25.726  0.00  0.00    +0.001 A 
ATOM     22  C   UNL     1      -6.007   2.762  25.787  0.00  0.00    +0.011 A 
ATOM     23  C   UNL     1      -5.580   3.360  25.410  0.00  0.00    +0.058 A 
ATOM     24 CL   UNL     1      -5.829   4.145  25.471  0.00  0.00    -0.082 Cl
ATOM     25  C   UNL     1      -4.907   3.175  24.973  0.00  0.00    +0.011 A 
ATOM     26  C   UNL     1      -4.658   2.390  24.912  0.00  0.00    +0.001 A 
ENDBRANCH  19  20
ENDBRANCH  17  18
BRANCH   8   7
ATOM      7  C   UNL     1      -1.982  -0.214  24.633  0.00  0.00    +0.099 C 
BRANCH   7   6
ATOM      3  C   UNL     1       0.042   1.209  24.587  0.00  0.00    +0.139 A 
ATOM      4  C   UNL     1      -0.322   1.034  25.306  0.00  0.00    +0.037 A 
ATOM      5  C   UNL     1      -0.997   0.559  25.321  0.00  0.00    +0.000 A 
ATOM      6  C   UNL     1      -1.308   0.260  24.618  0.00  0.00    -0.006 A 
ATOM     31  C   UNL     1      -0.943   0.435  23.899  0.00  0.00    +0.000 A 
ATOM     32  C   UNL     1      -0.268   0.910  23.883  0.00  0.00    +0.037 A 
BRANCH   3   2
ATOM      1  C   UNL     1       0.665   2.467  24.318  0.00  0.00    +0.252 C 
ATOM      2  O   UNL     1       0.717   1.684  24.571  0.00  0.00    -0.471 OA
ENDBRANCH   3   2
ENDBRANCH   7   6
ENDBRANCH   8   7
TORSDOF 5
ENDMDL
MODEL 5
REMARK VINA RESULT:     -13.2      1.380      3.258
REMARK  Name = 
REMARK  5 active torsions:
REMARK  status: ('A' for Active; 'I' for Inactive)
REMARK    1  A    between atoms: O_2  and  C_3
REMARK    2  A    between atoms: C_6  and  C_7
REMARK    3  A    between atoms: C_7  and  N_8
REMARK    4  A    between atoms: C_17  and  C_18
REMARK    5  A    between atoms: C_19  and  C_20
REMARK                            x       y       z     vdW  Elec       q    Type
REMARK                         _______ _______ _______ _____ _____    ______ ____
ROOT
ATOM      8  N   UNL     1      -1.748   2.802  25.457  0.00  0.00    -0.269 NA
ATOM      9  C   UNL     1      -1.239   3.416  25.706  0.00  0.00    +0.074 C 
ATOM     10  C   UNL     1      -0.408   2.899  25.842  0.00  0.00    +0.039 C 
ATOM     11  C   UNL     1       0.342   2.624  25.999  0.00  0.00    +0.011 C 
ATOM     12  C   UNL     1      -0.273   2.362  25.784  0.00  0.00    +0.054 C 
ATOM     13  C   UNL     1      -1.068   2.875  25.657  0.00  0.00    +0.078 C 
ATOM     14  C   UNL     1      -0.672   1.573  25.534  0.00  0.00    +0.041 A 
ATOM     15  C   UNL     1      -0.502   0.771  25.438  0.00  0.00    +0.013 A 
ATOM     16  C   UNL     1      -1.091   0.253  25.184  0.00  0.00    +0.006 A 
ATOM     17  C   UNL     1      -1.850   0.535  25.026  0.00  0.00    +0.056 A 
ATOM     27  C   UNL     1      -2.020   1.337  25.122  0.00  0.00    +0.261 A 
ATOM     28  O   UNL     1      -2.779   1.619  24.964  0.00  0.00    -0.267 OA
ATOM     29  N   UNL     1      -1.431   1.855  25.376  0.00  0.00    -0.299 N 
ATOM     30  C   UNL     1      -0.834   2.080  25.580  0.00  0.00    +0.110 C 
ENDROOT
BRANCH  17  18
ATOM     18  C   UNL     1      -2.438   0.016  24.772  0.00  0.00    +0.005 C 
ATOM     19  C   UNL     1      -2.313  -0.798  24.809  0.00  0.00    +0.000 C 
BRANCH  19  20
ATOM     20  C   UNL     1      -2.901  -1.318  24.555  0.00  0.00    +0.000 A 
ATOM     21  C   UNL     1      -3.529  -1.040  24.098  0.00  0.00    +0.001 A 
ATOM     22  C   UNL     1      -4.117  -1.560  23.845  0.00  0.00    +0.011 A 
ATOM     23  C   UNL     1      -4.076  -2.359  24.048  0.00  0.00    +0.058 A 
ATOM     24 CL   UNL     1      -4.665  -2.880  23.794  0.00  0.00    -0.082 Cl
ATOM     25  C   UNL     1      -3.449  -2.638  24.504  0.00  0.00    +0.011 A 
ATOM     26  C   UNL     1      -2.861  -2.117  24.758  0.00  0.00    +0.001 A 
ENDBRANCH  19  20
ENDBRANCH  17  18
BRANCH   8   7
ATOM      7  C   UNL     1      -2.439   2.431  25.202  0.00  0.00    +0.099 C 
BRANCH   7   6
ATOM      3  C   UNL     1      -4.543   3.722  25.027  0.00  0.00    +0.139 A 
ATOM      4  C   UNL     1      -4.061   3.629  24.365  0.00  0.00    +0.037 A 
ATOM      5  C   UNL     1      -3.359   3.199  24.423  0.00  0.00    +0.000 A 
ATOM      6  C   UNL     1      -3.140   2.861  25.144  0.00  0.00    -0.006 A 
ATOM     31  C   UNL     1      -3.623   2.954  25.805  0.00  0.00    +0.000 A 
ATOM     32  C   UNL     1      -4.325   3.385  25.747  0.00  0.00    +0.037 A 
BRANCH   3   2
ATOM      1  C   UNL     1      -5.834   4.062  25.539  0.00  0.00    +0.252 C 
ATOM      2  O   UNL     1      -5.245   4.152  24.969  0.00  0.00    -0.471 OA
ENDBRANCH   3   2
ENDBRANCH   7   6
ENDBRANCH   8   7
TORSDOF 5
ENDMDL
MODEL 6
REMARK VINA RESULT:     -13.0      1.576      4.024
REMARK  Name = 
REMARK  5 active torsions:
REMARK  status: ('A' for Active; 'I' for Inactive)
REMARK    1  A    between atoms: O_2  and  C_3
REMARK    2  A    between atoms: C_6  and  C_7
REMARK    3  A    between atoms: C_7  and  N_8
REMARK    4  A    between atoms: C_17  and  C_18
REMARK    5  A    between atoms: C_19  and  C_20
REMARK                            x       y       z     vdW  Elec       q    Type
REMARK                         _______ _______ _______ _____ _____    ______ ____
ROOT
ATOM      8  N   UNL     1      -4.868   1.023  25.039  0.00  0.00    -0.269 NA
ATOM      9  C   UNL     1      -5.663   1.082  25.288  0.00  0.00    +0.074 C 
ATOM     10  C   UNL     1      -5.725   2.059  25.417  0.00  0.00    +0.039 C 
ATOM     11  C   UNL     1      -5.936   2.832  25.568  0.00  0.00    +0.011 C 
ATOM     12  C   UNL     1      -5.366   2.482  25.355  0.00  0.00    +0.054 C 
ATOM     13  C   UNL     1      -5.322   1.535  25.235  0.00  0.00    +0.078 C 
ATOM     14  C   UNL     1      -4.491   2.613  25.104  0.00  0.00    +0.041 A 
ATOM     15  C   UNL     1      -3.938   3.216  25.003  0.00  0.00    +0.013 A 
ATOM     16  C   UNL     1      -3.173   3.035  24.750  0.00  0.00    +0.006 A 
ATOM     17  C   UNL     1      -2.963   2.252  24.598  0.00  0.00    +0.056 A 
ATOM     27  C   UNL     1      -3.517   1.649  24.699  0.00  0.00    +0.261 A 
ATOM     28  O   UNL     1      -3.307   0.866  24.546  0.00  0.00    -0.267 OA
ATOM     29  N   UNL     1      -4.281   1.830  24.952  0.00  0.00    -0.299 N 
ATOM     30  C   UNL     1      -4.810   2.187  25.153  0.00  0.00    +0.110 C 
ENDROOT
BRANCH  17  18
ATOM     18  C   UNL     1      -2.199   2.072  24.345  0.00  0.00    +0.005 C 
ATOM     19  C   UNL     1      -1.550   2.308  24.797  0.00  0.00    +0.000 C 
BRANCH  19  20
ATOM     20  C   UNL     1      -0.785   2.129  24.545  0.00  0.00    +0.000 A 
ATOM     21  C   UNL     1      -0.249   2.736  24.388  0.00  0.00    +0.001 A 
ATOM     22  C   UNL     1       0.516   2.557  24.135  0.00  0.00    +0.011 A 
ATOM     23  C   UNL     1       0.744   1.770  24.041  0.00  0.00    +0.058 A 
ATOM     24 CL   UNL     1       1.510   1.590  23.788  0.00  0.00    -0.082 Cl
ATOM     25  C   UNL     1       0.210   1.162  24.197  0.00  0.00    +0.011 A 
ATOM     26  C   UNL     1      -0.556   1.342  24.450  0.00  0.00    +0.001 A 
ENDBRANCH  19  20
ENDBRANCH  17  18
BRANCH   8   7
ATOM      7  C   UNL     1      -4.165   0.673  24.786  0.00  0.00    +0.099 C 
BRANCH   7   6
ATOM      3  C   UNL     1      -4.016  -1.787  24.563  0.00  0.00    +0.139 A 
ATOM      4  C   UNL     1      -4.266  -1.330  23.924  0.00  0.00    +0.037 A 
ATOM      5  C   UNL     1      -4.315  -0.509  23.998  0.00  0.00    +0.000 A 
ATOM      6  C   UNL     1      -4.115  -0.147  24.712  0.00  0.00    -0.006 A 
ATOM     31  C   UNL     1      -3.865  -0.604  25.351  0.00  0.00    +0.000 A 
ATOM     32  C   UNL     1      -3.816  -1.425  25.277  0.00  0.00    +0.037 A 
BRANCH   3   2
ATOM      1  C   UNL     1      -3.244  -2.989  24.602  0.00  0.00    +0.252 C 
ATOM      2  O   UNL     1      -3.966  -2.608  24.489  0.00  0.00    -0.471 OA
ENDBRANCH   3   2
ENDBRANCH   7   6
ENDBRANCH   8   7
TORSDOF 5
ENDMDL
