MODEL 1
REMARK VINA RESULT:     -11.3      0.000      0.000
REMARK  Name = 
REMARK  3 active torsions:
REMARK  status: ('A' for Active; 'I' for Inactive)
REMARK    1  A    between atoms: O_2  and  C_3
REMARK    2  A    between atoms: C_6  and  C_9
REMARK    3  A    between atoms: N_17  and  C_18
REMARK                            x       y       z     vdW  Elec       q    Type
REMARK                         _______ _______ _______ _____ _____    ______ ____
ROOT
ATOM      9  C   UNL     1      -3.752   2.756  25.172  0.00  0.00    +0.249 C 
ATOM     10  O   UNL     1      -4.557   2.883  25.299  0.00  0.00    -0.270 OA
ATOM     11  N   UNL     1      -3.474   1.995  25.013  0.00  0.00    -0.273 N 
ATOM     12  C   UNL     1      -2.669   1.868  24.886  0.00  0.00    +0.115 C 
ATOM     13  C   UNL     1      -2.391   1.108  24.728  0.00  0.00    +0.116 C 
ATOM     14  N   UNL     1      -2.918   0.474  24.695  0.00  0.00    -0.261 N 
ATOM     15  C   UNL     1      -3.723   0.601  24.822  0.00  0.00    +0.116 C 
ATOM     16  C   UNL     1      -4.109  -0.125  24.756  0.00  0.00    +0.116 C 
ATOM     17  N   UNL     1      -3.543  -0.700  24.589  0.00  0.00    -0.264 N 
ATOM     24  C   UNL     1      -2.807  -0.330  24.551  0.00  0.00    +0.307 C 
ATOM     25  O   UNL     1      -2.085  -0.699  24.397  0.00  0.00    -0.252 OA
ATOM     26  C   UNL     1      -4.002   1.362  24.981  0.00  0.00    +0.115 C 
ENDROOT
BRANCH   9   6
ATOM      3  C   UNL     1      -2.168   4.655  25.270  0.00  0.00    +0.139 A 
ATOM      4  C   UNL     1      -2.501   4.432  24.549  0.00  0.00    +0.037 A 
ATOM      5  C   UNL     1      -3.029   3.799  24.515  0.00  0.00    +0.008 A 
ATOM      6  C   UNL     1      -3.224   3.389  25.204  0.00  0.00    +0.054 A 
ATOM      7  C   UNL     1      -2.891   3.612  25.926  0.00  0.00    +0.008 A 
ATOM      8  C   UNL     1      -2.364   4.245  25.958  0.00  0.00    +0.037 A 
BRANCH   3   2
ATOM      1  C   UNL     1      -0.919   5.246  24.906  0.00  0.00    +0.252 C 
ATOM      2  O   UNL     1      -1.640   5.288  25.303  0.00  0.00    -0.471 OA
ENDBRANCH   3   2
ENDBRANCH   9   6
BRANCH  17  18
ATOM     18  C   UNL     1      -3.687  -1.505  24.479  0.00  0.00    +0.082 C 
ATOM     19  C   UNL     1      -3.413  -2.054  25.032  0.00  0.00    +0.052 C 
ATOM     20  C   UNL     1      -3.557  -2.858  24.921  0.00  0.00    +0.144 C 
ATOM     21  O   UNL     1      -3.975  -3.115  24.258  0.00  0.00    -0.354 OA
ATOM     22  C   UNL     1      -4.249  -2.568  23.706  0.00  0.00    +0.144 C 
ATOM     23  C   UNL     1      -4.105  -1.763  23.816  0.00  0.00    +0.052 C 
ENDBRANCH  17  18
TORSDOF 3
ENDMDL
MODEL 2
REMARK VINA RESULT:     -11.2      1.198      5.614
REMARK  Name = 
REMARK  3 active torsions:
REMARK  status: ('A' for Active; 'I' for Inactive)
REMARK    1  A    between atoms: O_2  and  C_3
REMARK    2  A    between atoms: C_6  and  C_9
REMARK    3  A    between atoms: N_17  and  C_18
REMARK                            x       y       z     vdW  Elec       q    Type
REMARK                         _______ _______ _______ _____ _____    ______ ____
ROOT
ATOM      9  C   UNL     1      -1.861  -0.520  25.554  0.00  0.00    +0.249 C 
ATOM     10  O   UNL     1      -1.292  -0.659  26.136  0.00  0.00    -0.270 OA
ATOM     11  N   UNL     1      -1.982   0.245  25.270  0.00  0.00    -0.273 N 
ATOM     12  C   UNL     1      -2.550   0.384  24.688  0.00  0.00    +0.115 C 
ATOM     13  C   UNL     1      -2.670   1.148  24.404  0.00  0.00    +0.116 C 
ATOM     14  N   UNL     1      -2.223   1.775  24.701  0.00  0.00    -0.261 N 
ATOM     15  C   UNL     1      -1.655   1.636  25.282  0.00  0.00    +0.116 C 
ATOM     16  C   UNL     1      -1.300   2.357  25.469  0.00  0.00    +0.116 C 
ATOM     17  N   UNL     1      -1.649   2.941  25.003  0.00  0.00    -0.264 N 
ATOM     24  C   UNL     1      -2.219   2.581  24.528  0.00  0.00    +0.307 C 
ATOM     25  O   UNL     1      -2.701   2.961  23.977  0.00  0.00    -0.252 OA
ATOM     26  C   UNL     1      -1.534   0.871  25.567  0.00  0.00    +0.115 C 
ENDROOT
BRANCH   9   6
ATOM      3  C   UNL     1      -3.203  -2.398  24.660  0.00  0.00    +0.139 A 
ATOM      4  C   UNL     1      -3.503  -1.929  25.268  0.00  0.00    +0.037 A 
ATOM      5  C   UNL     1      -3.056  -1.303  25.567  0.00  0.00    +0.008 A 
ATOM      6  C   UNL     1      -2.308  -1.146  25.257  0.00  0.00    +0.054 A 
ATOM      7  C   UNL     1      -2.007  -1.615  24.648  0.00  0.00    +0.008 A 
ATOM      8  C   UNL     1      -2.454  -2.241  24.350  0.00  0.00    +0.037 A 
BRANCH   3   2
ATOM      1  C   UNL     1      -4.243  -2.880  23.807  0.00  0.00    +0.252 C 
ATOM      2  O   UNL     1      -3.650  -3.024  24.362  0.00  0.00    -0.471 OA
ENDBRANCH   3   2
ENDBRANCH   9   6
BRANCH  17  18
ATOM     18  C   UNL     1      -1.460   3.744  25.011  0.00  0.00    +0.082 C 
ATOM     19  C   UNL     1      -0.759   4.007  24.662  0.00  0.00    +0.052 C 
ATOM     20  C   UNL     1      -0.571   4.810  24.669  0.00  0.00    +0.144 C 
ATOM     21  O   UNL     1      -1.083   5.350  25.025  0.00  0.00    -0.354 OA
ATOM     22  C   UNL     1      -1.783   5.088  25.373  0.00  0.00    +0.144 C 
ATOM     23  C   UNL     1      -1.971   4.285  25.366  0.00  0.00    +0.052 C 
ENDBRANCH  17  18
TORSDOF 3
ENDMDL
MODEL 3
REMARK VINA RESULT:     -10.5      1.301      1.959
REMARK  Name = 
REMARK  3 active torsions:
REMARK  status: ('A' for Active; 'I' for Inactive)
REMARK    1  A    between atoms: O_2  and  C_3
REMARK    2  A    between atoms: C_6  and  C_9
REMARK    3  A    between atoms: N_17  and  C_18
REMARK                            x       y       z     vdW  Elec       q    Type
REMARK                         _______ _______ _______ _____ _____    ______ ____
ROOT
ATOM      9  C   UNL     1      -0.724   1.871  24.943  0.00  0.00    +0.249 C 
ATOM     10  O   UNL     1       0.014   1.506  24.993  0.00  0.00    -0.270 OA
ATOM     11  N   UNL     1      -1.406   1.413  24.850  0.00  0.00    -0.273 N 
ATOM     12  C   UNL     1      -2.144   1.778  24.800  0.00  0.00    +0.115 C 
ATOM     13  C   UNL     1      -2.824   1.322  24.708  0.00  0.00    +0.116 C 
ATOM     14  N   UNL     1      -2.767   0.499  24.664  0.00  0.00    -0.261 N 
ATOM     15  C   UNL     1      -2.028   0.135  24.714  0.00  0.00    +0.116 C 
ATOM     16  C   UNL     1      -2.142  -0.680  24.655  0.00  0.00    +0.116 C 
ATOM     17  N   UNL     1      -2.950  -0.819  24.569  0.00  0.00    -0.264 N 
ATOM     24  C   UNL     1      -3.336  -0.090  24.575  0.00  0.00    +0.307 C 
ATOM     25  O   UNL     1      -4.149   0.029  24.503  0.00  0.00    -0.252 OA
ATOM     26  C   UNL     1      -1.347   0.592  24.807  0.00  0.00    +0.115 C 
ENDROOT
BRANCH   9   6
ATOM      3  C   UNL     1      -0.899   4.336  25.070  0.00  0.00    +0.139 A 
ATOM      4  C   UNL     1      -1.013   3.879  25.747  0.00  0.00    +0.037 A 
ATOM      5  C   UNL     1      -0.955   3.057  25.705  0.00  0.00    +0.008 A 
ATOM      6  C   UNL     1      -0.783   2.692  24.986  0.00  0.00    +0.054 A 
ATOM      7  C   UNL     1      -0.668   3.150  24.308  0.00  0.00    +0.008 A 
ATOM      8  C   UNL     1      -0.726   3.971  24.351  0.00  0.00    +0.037 A 
BRANCH   3   2
ATOM      1  C   UNL     1      -1.697   5.521  25.105  0.00  0.00    +0.252 C 
ATOM      2  O   UNL     1      -0.957   5.158  25.112  0.00  0.00    -0.471 OA
ENDBRANCH   3   2
ENDBRANCH   9   6
BRANCH  17  18
ATOM     18  C   UNL     1      -3.310  -1.557  24.490  0.00  0.00    +0.082 C 
ATOM     19  C   UNL     1      -3.842  -1.694  23.874  0.00  0.00    +0.052 C 
ATOM     20  C   UNL     1      -4.201  -2.433  23.795  0.00  0.00    +0.144 C 
ATOM     21  O   UNL     1      -4.029  -3.034  24.334  0.00  0.00    -0.354 OA
ATOM     22  C   UNL     1      -3.499  -2.897  24.949  0.00  0.00    +0.144 C 
ATOM     23  C   UNL     1      -3.139  -2.159  25.028  0.00  0.00    +0.052 C 
ENDBRANCH  17  18
TORSDOF 3
ENDMDL
MODEL 4
REMARK VINA RESULT:      -9.3      2.617      3.792
REMARK  Name = 
REMARK  3 active torsions:
REMARK  status: ('A' for Active; 'I' for Inactive)
REMARK    1  A    between atoms: O_2  and  C_3
REMARK    2  A    between atoms: C_6  and  C_9
REMARK    3  A    between atoms: N_17  and  C_18
REMARK                            x       y       z     vdW  Elec       q    Type
REMARK                         _______ _______ _______ _____ _____    ______ ____
ROOT
ATOM      9  C   UNL     1      -3.679   2.507  24.058  0.00  0.00    +0.249 C 
ATOM     10  O   UNL     1      -3.755   2.921  23.348  0.00  0.00    -0.270 OA
ATOM     11  N   UNL     1      -2.999   2.062  24.205  0.00  0.00    -0.273 N 
ATOM     12  C   UNL     1      -2.923   1.648  24.915  0.00  0.00    +0.115 C 
ATOM     13  C   UNL     1      -2.244   1.204  25.062  0.00  0.00    +0.116 C 
ATOM     14  N   UNL     1      -1.640   1.174  24.500  0.00  0.00    -0.261 N 
ATOM     15  C   UNL     1      -1.716   1.588  23.790  0.00  0.00    +0.116 C 
ATOM     16  C   UNL     1      -1.036   1.456  23.343  0.00  0.00    +0.116 C 
ATOM     17  N   UNL     1      -0.539   0.960  23.776  0.00  0.00    -0.264 N 
ATOM     24  C   UNL     1      -0.913   0.786  24.491  0.00  0.00    +0.307 C 
ATOM     25  O   UNL     1      -0.611   0.308  25.092  0.00  0.00    -0.252 OA
ATOM     26  C   UNL     1      -2.396   2.033  23.643  0.00  0.00    +0.115 C 
ENDROOT
BRANCH   9   6
ATOM      3  C   UNL     1      -5.487   2.597  25.746  0.00  0.00    +0.139 A 
ATOM      4  C   UNL     1      -5.461   1.978  25.202  0.00  0.00    +0.037 A 
ATOM      5  C   UNL     1      -4.859   1.947  24.639  0.00  0.00    +0.008 A 
ATOM      6  C   UNL     1      -4.282   2.536  24.620  0.00  0.00    +0.054 A 
ATOM      7  C   UNL     1      -4.307   3.156  25.165  0.00  0.00    +0.008 A 
ATOM      8  C   UNL     1      -4.909   3.186  25.728  0.00  0.00    +0.037 A 
BRANCH   3   2
ATOM      1  C   UNL     1      -6.445   1.932  26.572  0.00  0.00    +0.252 C 
ATOM      2  O   UNL     1      -6.089   2.628  26.309  0.00  0.00    -0.471 OA
ENDBRANCH   3   2
ENDBRANCH   9   6
BRANCH  17  18
ATOM     18  C   UNL     1       0.201   0.686  23.537  0.00  0.00    +0.082 C 
ATOM     19  C   UNL     1       0.271  -0.053  23.176  0.00  0.00    +0.052 C 
ATOM     20  C   UNL     1       1.012  -0.327  22.936  0.00  0.00    +0.144 C 
ATOM     21  O   UNL     1       1.682   0.139  23.058  0.00  0.00    -0.354 OA
ATOM     22  C   UNL     1       1.612   0.877  23.418  0.00  0.00    +0.144 C 
ATOM     23  C   UNL     1       0.872   1.151  23.657  0.00  0.00    +0.052 C 
ENDBRANCH  17  18
TORSDOF 3
ENDMDL
MODEL 5
REMARK VINA RESULT:      -9.3      2.628      4.499
REMARK  Name = 
REMARK  3 active torsions:
REMARK  status: ('A' for Active; 'I' for Inactive)
REMARK    1  A    between atoms: O_2  and  C_3
REMARK    2  A    between atoms: C_6  and  C_9
REMARK    3  A    between atoms: N_17  and  C_18
REMARK                            x       y       z     vdW  Elec       q    Type
REMARK                         _______ _______ _______ _____ _____    ______ ____
ROOT
ATOM      9  C   UNL     1      -0.648   0.422  24.604  0.00  0.00    +0.249 C 
ATOM     10  O   UNL     1      -0.574   0.074  25.348  0.00  0.00    -0.270 OA
ATOM     11  N   UNL     1      -1.326   0.854  24.416  0.00  0.00    -0.273 N 
ATOM     12  C   UNL     1      -1.401   1.202  23.671  0.00  0.00    +0.115 C 
ATOM     13  C   UNL     1      -2.078   1.633  23.484  0.00  0.00    +0.116 C 
ATOM     14  N   UNL     1      -2.682   1.717  24.040  0.00  0.00    -0.261 N 
ATOM     15  C   UNL     1      -2.607   1.368  24.784  0.00  0.00    +0.116 C 
ATOM     16  C   UNL     1      -3.287   1.543  25.216  0.00  0.00    +0.116 C 
ATOM     17  N   UNL     1      -3.782   1.999  24.740  0.00  0.00    -0.264 N 
ATOM     24  C   UNL     1      -3.408   2.106  24.013  0.00  0.00    +0.307 C 
ATOM     25  O   UNL     1      -3.707   2.529  23.370  0.00  0.00    -0.252 OA
ATOM     26  C   UNL     1      -1.929   0.937  24.972  0.00  0.00    +0.115 C 
ENDROOT
BRANCH   9   6
ATOM      3  C   UNL     1       1.161   0.173  22.933  0.00  0.00    +0.139 A 
ATOM      4  C   UNL     1       1.123   0.850  23.401  0.00  0.00    +0.037 A 
ATOM      5  C   UNL     1       0.520   0.934  23.958  0.00  0.00    +0.008 A 
ATOM      6  C   UNL     1      -0.045   0.339  24.047  0.00  0.00    +0.054 A 
ATOM      7  C   UNL     1      -0.007  -0.339  23.578  0.00  0.00    +0.008 A 
ATOM      8  C   UNL     1       0.596  -0.422  23.021  0.00  0.00    +0.037 A 
BRANCH   3   2
ATOM      1  C   UNL     1       2.552   0.142  22.609  0.00  0.00    +0.252 C 
ATOM      2  O   UNL     1       1.763   0.088  22.376  0.00  0.00    -0.471 OA
ENDBRANCH   3   2
ENDBRANCH   9   6
BRANCH  17  18
ATOM     18  C   UNL     1      -4.522   2.296  24.952  0.00  0.00    +0.082 C 
ATOM     19  C   UNL     1      -5.194   1.821  24.881  0.00  0.00    +0.052 C 
ATOM     20  C   UNL     1      -5.933   2.118  25.094  0.00  0.00    +0.144 C 
ATOM     21  O   UNL     1      -6.001   2.890  25.378  0.00  0.00    -0.354 OA
ATOM     22  C   UNL     1      -5.331   3.365  25.449  0.00  0.00    +0.144 C 
ATOM     23  C   UNL     1      -4.591   3.068  25.236  0.00  0.00    +0.052 C 
ENDBRANCH  17  18
TORSDOF 3
ENDMDL
