MODEL 1
REMARK VINA RESULT:     -15.3      0.000      0.000
REMARK  Name = 
REMARK  2 active torsions:
REMARK  status: ('A' for Active; 'I' for Inactive)
REMARK    1  A    between atoms: C_7  and  C_8
REMARK    2  A    between atoms: C_16  and  C_18
REMARK                            x       y       z     vdW  Elec       q    Type
REMARK                         _______ _______ _______ _____ _____    ______ ____
ROOT
ATOM      8  C   UNL     1      -3.725  -0.230  24.815  0.00  0.00    +0.014 A 
ATOM      9  C   UNL     1      -3.015   0.187  24.853  0.00  0.00    +0.041 A 
ATOM     10  C   UNL     1      -2.106   0.052  24.833  0.00  0.00    +0.058 C 
ATOM     11  C   UNL     1      -1.626  -0.457  24.776  0.00  0.00    +0.011 C 
ATOM     12  C   UNL     1      -1.637   0.353  24.861  0.00  0.00    +0.043 C 
ATOM     13  C   UNL     1      -1.445   1.317  24.961  0.00  0.00    +0.096 C 
ATOM     14  N   UNL     1      -2.226   1.612  24.997  0.00  0.00    -0.275 N 
ATOM     15  C   UNL     1      -1.904   0.981  24.929  0.00  0.00    +0.100 C 
ATOM     16  C   UNL     1      -2.839   2.161  25.059  0.00  0.00    +0.255 C 
ATOM     17  O   UNL     1      -3.625   1.907  25.038  0.00  0.00    -0.269 OA
ATOM     23  C   UNL     1      -2.585   0.504  24.884  0.00  0.00    +0.110 C 
ATOM     24  N   UNL     1      -3.022   1.008  24.939  0.00  0.00    -0.299 N 
ATOM     25  C   UNL     1      -3.740   1.411  24.987  0.00  0.00    +0.261 A 
ATOM     26  O   UNL     1      -4.002   2.189  25.070  0.00  0.00    -0.267 OA
ATOM     27  C   UNL     1      -4.451   0.994  24.948  0.00  0.00    +0.061 A 
ATOM     28  C   UNL     1      -4.443   0.173  24.862  0.00  0.00    +0.006 A 
ENDROOT
BRANCH   8   7
ATOM      1  F   UNL     1      -4.166  -0.913  23.379  0.00  0.00    -0.204 F 
ATOM      2  C   UNL     1      -3.938  -1.393  24.011  0.00  0.00    +0.140 A 
ATOM      3  C   UNL     1      -3.930  -2.213  23.925  0.00  0.00    +0.030 A 
ATOM      4  C   UNL     1      -3.702  -2.692  24.557  0.00  0.00    +0.002 A 
ATOM      5  C   UNL     1      -3.482  -2.350  25.275  0.00  0.00    +0.000 A 
ATOM      6  C   UNL     1      -3.489  -1.530  25.361  0.00  0.00    +0.002 A 
ATOM      7  C   UNL     1      -3.717  -1.051  24.729  0.00  0.00    +0.029 A 
ENDBRANCH   8   7
BRANCH  16  18
ATOM     18  C   UNL     1      -2.668   2.963  25.142  0.00  0.00    +0.083 A 
ATOM     19  C   UNL     1      -2.536   3.361  25.853  0.00  0.00    +0.012 A 
ATOM     20  C   UNL     1      -2.385   4.153  25.677  0.00  0.00    +0.008 A 
ATOM     21  C   UNL     1      -2.423   4.245  24.859  0.00  0.00    +0.036 A 
ATOM     22  S   UNL     1      -2.598   3.511  24.527  0.00  0.00    -0.082 S 
ENDBRANCH  16  18
TORSDOF 2
ENDMDL
MODEL 2
REMARK VINA RESULT:     -14.1      1.570      3.915
REMARK  Name = 
REMARK  2 active torsions:
REMARK  status: ('A' for Active; 'I' for Inactive)
REMARK    1  A    between atoms: C_7  and  C_8
REMARK    2  A    between atoms: C_16  and  C_18
REMARK                            x       y       z     vdW  Elec       q    Type
REMARK                         _______ _______ _______ _____ _____    ______ ____
ROOT
ATOM      8  C   UNL     1      -3.832   1.986  24.864  0.00  0.00    +0.014 A 
ATOM      9  C   UNL     1      -3.257   1.411  24.724  0.00  0.00    +0.041 A 
ATOM     10  C   UNL     1      -2.358   1.328  24.553  0.00  0.00    +0.058 C 
ATOM     11  C   UNL     1      -1.776   1.711  24.468  0.00  0.00    +0.011 C 
ATOM     12  C   UNL     1      -1.985   0.924  24.460  0.00  0.00    +0.043 C 
ATOM     13  C   UNL     1      -2.038  -0.061  24.412  0.00  0.00    +0.096 C 
ATOM     14  N   UNL     1      -2.855  -0.165  24.557  0.00  0.00    -0.275 N 
ATOM     15  C   UNL     1      -2.393   0.375  24.503  0.00  0.00    +0.100 C 
ATOM     16  C   UNL     1      -3.573  -0.555  24.667  0.00  0.00    +0.255 C 
ATOM     17  O   UNL     1      -4.259  -0.122  24.820  0.00  0.00    -0.269 OA
ATOM     23  C   UNL     1      -2.925   1.001  24.639  0.00  0.00    +0.110 C 
ATOM     24  N   UNL     1      -3.465   0.613  24.716  0.00  0.00    -0.299 N 
ATOM     25  C   UNL     1      -4.248   0.389  24.847  0.00  0.00    +0.261 A 
ATOM     26  O   UNL     1      -4.688  -0.307  24.888  0.00  0.00    -0.267 OA
ATOM     27  C   UNL     1      -4.823   0.964  24.988  0.00  0.00    +0.061 A 
ATOM     28  C   UNL     1      -4.615   1.762  24.996  0.00  0.00    +0.006 A 
ENDROOT
BRANCH   8   7
ATOM      1  F   UNL     1      -4.232   2.956  23.591  0.00  0.00    -0.204 F 
ATOM      2  C   UNL     1      -3.824   3.270  24.236  0.00  0.00    +0.140 A 
ATOM      3  C   UNL     1      -3.616   4.068  24.244  0.00  0.00    +0.030 A 
ATOM      4  C   UNL     1      -3.208   4.381  24.889  0.00  0.00    +0.002 A 
ATOM      5  C   UNL     1      -3.008   3.896  25.526  0.00  0.00    +0.000 A 
ATOM      6  C   UNL     1      -3.216   3.098  25.517  0.00  0.00    +0.002 A 
ATOM      7  C   UNL     1      -3.624   2.784  24.873  0.00  0.00    +0.029 A 
ENDBRANCH   8   7
BRANCH  16  18
ATOM     18  C   UNL     1      -3.606  -1.378  24.625  0.00  0.00    +0.083 A 
ATOM     19  C   UNL     1      -3.859  -1.821  23.976  0.00  0.00    +0.012 A 
ATOM     20  C   UNL     1      -3.801  -2.620  24.176  0.00  0.00    +0.008 A 
ATOM     21  C   UNL     1      -3.512  -2.671  24.946  0.00  0.00    +0.036 A 
ATOM     22  S   UNL     1      -3.391  -1.904  25.225  0.00  0.00    -0.082 S 
ENDBRANCH  16  18
TORSDOF 2
ENDMDL
MODEL 3
REMARK VINA RESULT:     -14.1      1.774      4.354
REMARK  Name = 
REMARK  2 active torsions:
REMARK  status: ('A' for Active; 'I' for Inactive)
REMARK    1  A    between atoms: C_7  and  C_8
REMARK    2  A    between atoms: C_16  and  C_18
REMARK                            x       y       z     vdW  Elec       q    Type
REMARK                         _______ _______ _______ _____ _____    ______ ____
ROOT
ATOM      8  C   UNL     1      -1.501   2.484  25.244  0.00  0.00    +0.014 A 
ATOM      9  C   UNL     1      -2.169   2.107  24.943  0.00  0.00    +0.041 A 
ATOM     10  C   UNL     1      -2.954   2.292  24.501  0.00  0.00    +0.058 C 
ATOM     11  C   UNL     1      -3.322   2.825  24.232  0.00  0.00    +0.011 C 
ATOM     12  C   UNL     1      -3.398   2.017  24.304  0.00  0.00    +0.043 C 
ATOM     13  C   UNL     1      -3.669   1.067  24.293  0.00  0.00    +0.096 C 
ATOM     14  N   UNL     1      -3.013   0.730  24.687  0.00  0.00    -0.275 N 
ATOM     15  C   UNL     1      -3.230   1.377  24.482  0.00  0.00    +0.100 C 
ATOM     16  C   UNL     1      -2.532   0.150  25.023  0.00  0.00    +0.255 C 
ATOM     17  O   UNL     1      -1.815   0.360  25.374  0.00  0.00    -0.269 OA
ATOM     23  C   UNL     1      -2.580   1.815  24.765  0.00  0.00    +0.110 C 
ATOM     24  N   UNL     1      -2.250   1.289  25.014  0.00  0.00    -0.299 N 
ATOM     25  C   UNL     1      -1.661   0.848  25.387  0.00  0.00    +0.261 A 
ATOM     26  O   UNL     1      -1.513   0.059  25.576  0.00  0.00    -0.267 OA
ATOM     27  C   UNL     1      -0.992   1.224  25.689  0.00  0.00    +0.061 A 
ATOM     28  C   UNL     1      -0.912   2.043  25.618  0.00  0.00    +0.006 A 
ENDROOT
BRANCH   8   7
ATOM      1  F   UNL     1      -0.389   3.115  24.202  0.00  0.00    -0.204 F 
ATOM      2  C   UNL     1      -0.865   3.618  24.652  0.00  0.00    +0.140 A 
ATOM      3  C   UNL     1      -0.784   4.436  24.580  0.00  0.00    +0.030 A 
ATOM      4  C   UNL     1      -1.260   4.938  25.030  0.00  0.00    +0.002 A 
ATOM      5  C   UNL     1      -1.815   4.622  25.551  0.00  0.00    +0.000 A 
ATOM      6  C   UNL     1      -1.896   3.804  25.623  0.00  0.00    +0.002 A 
ATOM      7  C   UNL     1      -1.420   3.302  25.173  0.00  0.00    +0.029 A 
ENDBRANCH   8   7
BRANCH  16  18
ATOM     18  C   UNL     1      -2.768  -0.640  25.008  0.00  0.00    +0.083 A 
ATOM     19  C   UNL     1      -3.272  -1.007  25.550  0.00  0.00    +0.012 A 
ATOM     20  C   UNL     1      -3.356  -1.796  25.324  0.00  0.00    +0.008 A 
ATOM     21  C   UNL     1      -2.906  -1.918  24.644  0.00  0.00    +0.036 A 
ATOM     22  S   UNL     1      -2.542  -1.204  24.448  0.00  0.00    -0.082 S 
ENDBRANCH  16  18
TORSDOF 2
ENDMDL
