MODEL 1
REMARK VINA RESULT:     -10.4      0.000      0.000
REMARK  Name = 
REMARK  7 active torsions:
REMARK  status: ('A' for Active; 'I' for Inactive)
REMARK    1  A    between atoms: O_2  and  C_3
REMARK    2  A    between atoms: C_6  and  C_9
REMARK    3  A    between atoms: N_11  and  C_12
REMARK    4  A    between atoms: C_12  and  C_13
REMARK    5  A    between atoms: C_15  and  C_16
REMARK    6  A    between atoms: C_16  and  C_17
REMARK    7  A    between atoms: N_19  and  C_20
REMARK                            x       y       z     vdW  Elec       q    Type
REMARK                         _______ _______ _______ _____ _____    ______ ____
ROOT
ATOM     13  C   UNL     1      -4.877   1.907  25.135  0.00  0.00    +0.170 C 
ATOM     14  O   UNL     1      -4.224   2.394  25.267  0.00  0.00    -0.351 OA
ATOM     15  C   UNL     1      -4.501   3.132  25.511  0.00  0.00    +0.157 C 
ATOM     23  C   UNL     1      -5.325   3.101  25.531  0.00  0.00    +0.212 C 
ATOM     24  O   UNL     1      -5.828   3.719  25.746  0.00  0.00    -0.218 OA
ATOM     25  C   UNL     1      -5.558   2.345  25.299  0.00  0.00    +0.213 C 
ATOM     26  O   UNL     1      -6.334   2.073  25.240  0.00  0.00    -0.218 OA
ENDROOT
BRANCH  13  12
ATOM     12  C   UNL     1      -4.854   1.121  24.884  0.00  0.00    +0.148 C 
BRANCH  12  11
ATOM      9  C   UNL     1      -4.129  -0.095  24.695  0.00  0.00    +0.265 C 
ATOM     10  O   UNL     1      -4.770  -0.413  24.285  0.00  0.00    -0.268 OA
ATOM     11  N   UNL     1      -4.172   0.673  24.995  0.00  0.00    -0.199 NA
BRANCH   9   6
ATOM      3  C   UNL     1      -2.079  -1.441  25.028  0.00  0.00    +0.139 A 
ATOM      4  C   UNL     1      -2.062  -0.778  24.538  0.00  0.00    +0.037 A 
ATOM      5  C   UNL     1      -2.746  -0.329  24.427  0.00  0.00    +0.008 A 
ATOM      6  C   UNL     1      -3.445  -0.544  24.806  0.00  0.00    +0.055 A 
ATOM      7  C   UNL     1      -3.463  -1.207  25.297  0.00  0.00    +0.008 A 
ATOM      8  C   UNL     1      -2.779  -1.656  25.408  0.00  0.00    +0.037 A 
BRANCH   3   2
ATOM      1  C   UNL     1      -0.673  -1.515  25.271  0.00  0.00    +0.252 C 
ATOM      2  O   UNL     1      -1.395  -1.890  25.139  0.00  0.00    -0.471 OA
ENDBRANCH   3   2
ENDBRANCH   9   6
ENDBRANCH  12  11
ENDBRANCH  13  12
BRANCH  15  16
ATOM     16  C   UNL     1      -4.035   3.785  25.703  0.00  0.00    +0.119 C 
BRANCH  16  17
ATOM     17  C   UNL     1      -3.278   3.860  25.380  0.00  0.00    +0.244 C 
ATOM     18  O   UNL     1      -3.175   3.845  24.562  0.00  0.00    -0.273 OA
ATOM     19  N   UNL     1      -2.626   3.949  25.877  0.00  0.00    -0.207 NA
BRANCH  19  20
ATOM     20  C   UNL     1      -1.869   4.024  25.554  0.00  0.00    +0.095 C 
ATOM     21  C   UNL     1      -1.360   3.375  25.543  0.00  0.00    +0.023 C 
ATOM     22  C   UNL     1      -1.623   4.747  25.243  0.00  0.00    +0.023 C 
ENDBRANCH  19  20
ENDBRANCH  16  17
ENDBRANCH  15  16
TORSDOF 7
ENDMDL
MODEL 2
REMARK VINA RESULT:      -9.8      1.301      1.890
REMARK  Name = 
REMARK  7 active torsions:
REMARK  status: ('A' for Active; 'I' for Inactive)
REMARK    1  A    between atoms: O_2  and  C_3
REMARK    2  A    between atoms: C_6  and  C_9
REMARK    3  A    between atoms: N_11  and  C_12
REMARK    4  A    between atoms: C_12  and  C_13
REMARK    5  A    between atoms: C_15  and  C_16
REMARK    6  A    between atoms: C_16  and  C_17
REMARK    7  A    between atoms: N_19  and  C_20
REMARK                            x       y       z     vdW  Elec       q    Type
REMARK                         _______ _______ _______ _____ _____    ______ ____
ROOT
ATOM     13  C   UNL     1      -3.829   2.480  24.848  0.00  0.00    +0.170 C 
ATOM     14  O   UNL     1      -3.009   2.472  24.931  0.00  0.00    -0.351 OA
ATOM     15  C   UNL     1      -2.742   3.253  24.894  0.00  0.00    +0.157 C 
ATOM     23  C   UNL     1      -3.397   3.742  24.788  0.00  0.00    +0.212 C 
ATOM     24  O   UNL     1      -3.383   4.564  24.722  0.00  0.00    -0.218 OA
ATOM     25  C   UNL     1      -4.070   3.265  24.760  0.00  0.00    +0.213 C 
ATOM     26  O   UNL     1      -4.846   3.525  24.661  0.00  0.00    -0.218 OA
ENDROOT
BRANCH  13  12
ATOM     12  C   UNL     1      -4.324   1.818  24.853  0.00  0.00    +0.148 C 
BRANCH  12  11
ATOM      9  C   UNL     1      -4.483   0.399  24.886  0.00  0.00    +0.265 C 
ATOM     10  O   UNL     1      -5.288   0.494  25.042  0.00  0.00    -0.268 OA
ATOM     11  N   UNL     1      -4.001   1.063  24.792  0.00  0.00    -0.199 NA
BRANCH   9   6
ATOM      3  C   UNL     1      -3.515  -1.871  24.701  0.00  0.00    +0.139 A 
ATOM      4  C   UNL     1      -3.923  -1.544  24.064  0.00  0.00    +0.037 A 
ATOM      5  C   UNL     1      -4.246  -0.786  24.126  0.00  0.00    +0.008 A 
ATOM      6  C   UNL     1      -4.160  -0.358  24.825  0.00  0.00    +0.055 A 
ATOM      7  C   UNL     1      -3.752  -0.685  25.463  0.00  0.00    +0.008 A 
ATOM      8  C   UNL     1      -3.429  -1.442  25.401  0.00  0.00    +0.037 A 
BRANCH   3   2
ATOM      1  C   UNL     1      -2.383  -2.722  24.513  0.00  0.00    +0.252 C 
ATOM      2  O   UNL     1      -3.192  -2.628  24.640  0.00  0.00    -0.471 OA
ENDBRANCH   3   2
ENDBRANCH   9   6
ENDBRANCH  12  11
ENDBRANCH  13  12
BRANCH  15  16
ATOM     16  C   UNL     1      -1.957   3.499  24.952  0.00  0.00    +0.119 C 
BRANCH  16  17
ATOM     17  C   UNL     1      -1.418   3.058  25.395  0.00  0.00    +0.244 C 
ATOM     18  O   UNL     1      -1.515   2.988  26.212  0.00  0.00    -0.273 OA
ATOM     19  N   UNL     1      -0.783   2.687  25.022  0.00  0.00    -0.207 NA
BRANCH  19  20
ATOM     20  C   UNL     1      -0.244   2.246  25.465  0.00  0.00    +0.095 C 
ATOM     21  C   UNL     1       0.242   2.622  26.015  0.00  0.00    +0.023 C 
ATOM     22  C   UNL     1      -0.192   1.430  25.358  0.00  0.00    +0.023 C 
ENDBRANCH  19  20
ENDBRANCH  16  17
ENDBRANCH  15  16
TORSDOF 7
ENDMDL
MODEL 3
REMARK VINA RESULT:      -9.8      1.638      3.221
REMARK  Name = 
REMARK  7 active torsions:
REMARK  status: ('A' for Active; 'I' for Inactive)
REMARK    1  A    between atoms: O_2  and  C_3
REMARK    2  A    between atoms: C_6  and  C_9
REMARK    3  A    between atoms: N_11  and  C_12
REMARK    4  A    between atoms: C_12  and  C_13
REMARK    5  A    between atoms: C_15  and  C_16
REMARK    6  A    between atoms: C_16  and  C_17
REMARK    7  A    between atoms: N_19  and  C_20
REMARK                            x       y       z     vdW  Elec       q    Type
REMARK                         _______ _______ _______ _____ _____    ______ ____
ROOT
ATOM     13  C   UNL     1      -1.173   1.733  25.459  0.00  0.00    +0.170 C 
ATOM     14  O   UNL     1      -1.893   2.083  25.260  0.00  0.00    -0.351 OA
ATOM     15  C   UNL     1      -1.766   2.895  25.173  0.00  0.00    +0.157 C 
ATOM     23  C   UNL     1      -0.969   3.046  25.319  0.00  0.00    +0.212 C 
ATOM     24  O   UNL     1      -0.603   3.784  25.293  0.00  0.00    -0.218 OA
ATOM     25  C   UNL     1      -0.601   2.329  25.496  0.00  0.00    +0.213 C 
ATOM     26  O   UNL     1       0.196   2.223  25.677  0.00  0.00    -0.218 OA
ENDROOT
BRANCH  13  12
ATOM     12  C   UNL     1      -1.045   0.930  25.598  0.00  0.00    +0.148 C 
BRANCH  12  11
ATOM      9  C   UNL     1      -1.539  -0.411  25.592  0.00  0.00    +0.265 C 
ATOM     10  O   UNL     1      -0.918  -0.641  26.084  0.00  0.00    -0.268 OA
ATOM     11  N   UNL     1      -1.602   0.376  25.349  0.00  0.00    -0.199 NA
BRANCH   9   6
ATOM      3  C   UNL     1      -3.212  -2.075  24.846  0.00  0.00    +0.139 A 
ATOM      4  C   UNL     1      -3.412  -1.519  25.422  0.00  0.00    +0.037 A 
ATOM      5  C   UNL     1      -2.854  -0.964  25.671  0.00  0.00    +0.008 A 
ATOM      6  C   UNL     1      -2.097  -0.966  25.343  0.00  0.00    +0.055 A 
ATOM      7  C   UNL     1      -1.897  -1.521  24.767  0.00  0.00    +0.008 A 
ATOM      8  C   UNL     1      -2.455  -2.076  24.518  0.00  0.00    +0.037 A 
BRANCH   3   2
ATOM      1  C   UNL     1      -4.190  -2.507  23.898  0.00  0.00    +0.252 C 
ATOM      2  O   UNL     1      -3.770  -2.630  24.597  0.00  0.00    -0.471 OA
ENDBRANCH   3   2
ENDBRANCH   9   6
ENDBRANCH  12  11
ENDBRANCH  13  12
BRANCH  15  16
ATOM     16  C   UNL     1      -2.338   3.455  24.976  0.00  0.00    +0.119 C 
BRANCH  16  17
ATOM     17  C   UNL     1      -3.117   3.358  25.233  0.00  0.00    +0.244 C 
ATOM     18  O   UNL     1      -3.289   3.368  26.040  0.00  0.00    -0.273 OA
ATOM     19  N   UNL     1      -3.722   3.251  24.683  0.00  0.00    -0.207 NA
BRANCH  19  20
ATOM     20  C   UNL     1      -4.501   3.154  24.941  0.00  0.00    +0.095 C 
ATOM     21  C   UNL     1      -4.899   3.784  25.296  0.00  0.00    +0.023 C 
ATOM     22  C   UNL     1      -4.880   2.428  24.844  0.00  0.00    +0.023 C 
ENDBRANCH  19  20
ENDBRANCH  16  17
ENDBRANCH  15  16
TORSDOF 7
ENDMDL
MODEL 4
REMARK VINA RESULT:      -9.7      1.691      5.399
REMARK  Name = 
REMARK  7 active torsions:
REMARK  status: ('A' for Active; 'I' for Inactive)
REMARK    1  A    between atoms: O_2  and  C_3
REMARK    2  A    between atoms: C_6  and  C_9
REMARK    3  A    between atoms: N_11  and  C_12
REMARK    4  A    between atoms: C_12  and  C_13
REMARK    5  A    between atoms: C_15  and  C_16
REMARK    6  A    between atoms: C_16  and  C_17
REMARK    7  A    between atoms: N_19  and  C_20
REMARK                            x       y       z     vdW  Elec       q    Type
REMARK                         _______ _______ _______ _____ _____    ______ ____
ROOT
ATOM     13  C   UNL     1      -0.884   0.883  24.450  0.00  0.00    +0.170 C 
ATOM     14  O   UNL     1      -1.337   0.277  24.778  0.00  0.00    -0.351 OA
ATOM     15  C   UNL     1      -0.959  -0.439  24.619  0.00  0.00    +0.157 C 
ATOM     23  C   UNL     1      -0.273  -0.276  24.192  0.00  0.00    +0.212 C 
ATOM     24  O   UNL     1       0.272  -0.832  23.918  0.00  0.00    -0.218 OA
ATOM     25  C   UNL     1      -0.225   0.541  24.088  0.00  0.00    +0.213 C 
ATOM     26  O   UNL     1       0.374   0.946  23.691  0.00  0.00    -0.218 OA
ENDROOT
BRANCH  13  12
ATOM     12  C   UNL     1      -1.057   1.690  24.479  0.00  0.00    +0.148 C 
BRANCH  12  11
ATOM      9  C   UNL     1      -2.004   2.745  24.648  0.00  0.00    +0.265 C 
ATOM     10  O   UNL     1      -1.419   3.299  24.469  0.00  0.00    -0.268 OA
ATOM     11  N   UNL     1      -1.823   1.940  24.653  0.00  0.00    -0.199 NA
BRANCH   9   6
ATOM      3  C   UNL     1      -4.303   3.499  25.171  0.00  0.00    +0.139 A 
ATOM      4  C   UNL     1      -3.682   3.689  25.678  0.00  0.00    +0.037 A 
ATOM      5  C   UNL     1      -2.915   3.437  25.504  0.00  0.00    +0.008 A 
ATOM      6  C   UNL     1      -2.771   2.997  24.822  0.00  0.00    +0.055 A 
ATOM      7  C   UNL     1      -3.392   2.806  24.314  0.00  0.00    +0.008 A 
ATOM      8  C   UNL     1      -4.159   3.057  24.488  0.00  0.00    +0.037 A 
BRANCH   3   2
ATOM      1  C   UNL     1      -5.612   3.222  25.672  0.00  0.00    +0.252 C 
ATOM      2  O   UNL     1      -5.070   3.750  25.345  0.00  0.00    -0.471 OA
ENDBRANCH   3   2
ENDBRANCH   9   6
ENDBRANCH  12  11
ENDBRANCH  13  12
BRANCH  15  16
ATOM     16  C   UNL     1      -1.223  -1.187  24.846  0.00  0.00    +0.119 C 
BRANCH  16  17
ATOM     17  C   UNL     1      -2.028  -1.320  24.969  0.00  0.00    +0.244 C 
ATOM     18  O   UNL     1      -2.403  -1.003  25.633  0.00  0.00    -0.273 OA
ATOM     19  N   UNL     1      -2.459  -1.770  24.428  0.00  0.00    -0.207 NA
BRANCH  19  20
ATOM     20  C   UNL     1      -3.264  -1.903  24.550  0.00  0.00    +0.095 C 
ATOM     21  C   UNL     1      -3.509  -2.516  25.044  0.00  0.00    +0.023 C 
ATOM     22  C   UNL     1      -3.823  -1.423  24.179  0.00  0.00    +0.023 C 
ENDBRANCH  19  20
ENDBRANCH  16  17
ENDBRANCH  15  16
TORSDOF 7
ENDMDL
