MODEL 1
REMARK VINA RESULT:     -10.0      0.000      0.000
REMARK  Name = 
REMARK  4 active torsions:
REMARK  status: ('A' for Active; 'I' for Inactive)
REMARK    1  A    between atoms: C_2  and  C_4
REMARK    2  A    between atoms: C_4  and  N_5
REMARK    3  A    between atoms: N_10  and  S_16
REMARK    4  A    between atoms: S_16  and  C_19
REMARK                            x       y       z     vdW  Elec       q    Type
REMARK                         _______ _______ _______ _____ _____    ______ ____
ROOT
ATOM      5  N   UNL     1      -3.284   3.074  24.871  0.00  0.00    -0.203 N 
ATOM      6  C   UNL     1      -2.885   2.368  24.717  0.00  0.00    +0.253 C 
ATOM      7  O   UNL     1      -2.084   2.294  24.536  0.00  0.00    -0.273 OA
ATOM      8  C   UNL     1      -3.428   1.751  24.775  0.00  0.00    +0.172 C 
ATOM      9  C   UNL     1      -3.349   0.935  24.680  0.00  0.00    +0.125 C 
ATOM     10  N   UNL     1      -4.004   0.443  24.775  0.00  0.00    -0.151 NA
ATOM     11  C   UNL     1      -4.738   0.766  24.964  0.00  0.00    +0.117 C 
ATOM     12  C   UNL     1      -4.819   1.582  25.060  0.00  0.00    +0.115 C 
ATOM     13  N   UNL     1      -4.163   2.074  24.965  0.00  0.00    -0.254 N 
ATOM     14  C   UNL     1      -4.074   2.892  25.024  0.00  0.00    +0.314 C 
ATOM     15  O   UNL     1      -4.670   3.433  25.205  0.00  0.00    -0.252 OA
ENDROOT
BRANCH  10  16
ATOM     16  S   UNL     1      -3.925  -0.373  24.679  0.00  0.00    +0.069 S 
ATOM     17  O   UNL     1      -3.897  -0.466  25.498  0.00  0.00    -0.152 OA
ATOM     18  O   UNL     1      -3.953  -0.279  23.860  0.00  0.00    -0.152 OA
BRANCH  16  19
ATOM     19  C   UNL     1      -3.846  -1.188  24.583  0.00  0.00    +0.152 A 
ATOM     20  C   UNL     1      -4.162  -1.637  23.968  0.00  0.00    +0.027 A 
ATOM     21  C   UNL     1      -3.948  -2.424  24.090  0.00  0.00    +0.009 A 
ATOM     22  C   UNL     1      -3.499  -2.462  24.782  0.00  0.00    +0.037 A 
ATOM     23  S   UNL     1      -3.436  -1.698  25.086  0.00  0.00    -0.067 S 
ENDBRANCH  16  19
ENDBRANCH  10  16
BRANCH   5   4
ATOM      4  C   UNL     1      -2.952   3.829  24.871  0.00  0.00    +0.191 C 
BRANCH   4   2
ATOM      1  N   UNL     1      -1.723   4.258  25.460  0.00  0.00    -0.086 NA
ATOM      2  C   UNL     1      -2.528   4.094  25.527  0.00  0.00    +0.281 C 
ATOM      3  O   UNL     1      -2.911   4.194  26.252  0.00  0.00    -0.270 OA
ENDBRANCH   4   2
ENDBRANCH   5   4
TORSDOF 4
ENDMDL
MODEL 2
REMARK VINA RESULT:      -9.6      1.117      1.632
REMARK  Name = 
REMARK  4 active torsions:
REMARK  status: ('A' for Active; 'I' for Inactive)
REMARK    1  A    between atoms: C_2  and  C_4
REMARK    2  A    between atoms: C_4  and  N_5
REMARK    3  A    between atoms: N_10  and  S_16
REMARK    4  A    between atoms: S_16  and  C_19
REMARK                            x       y       z     vdW  Elec       q    Type
REMARK                         _______ _______ _______ _____ _____    ______ ____
ROOT
ATOM      5  N   UNL     1      -4.350   2.669  24.670  0.00  0.00    -0.203 N 
ATOM      6  C   UNL     1      -4.718   1.936  24.764  0.00  0.00    +0.253 C 
ATOM      7  O   UNL     1      -5.508   1.813  24.967  0.00  0.00    -0.273 OA
ATOM      8  C   UNL     1      -4.158   1.349  24.619  0.00  0.00    +0.172 C 
ATOM      9  C   UNL     1      -4.205   0.525  24.630  0.00  0.00    +0.125 C 
ATOM     10  N   UNL     1      -3.539   0.071  24.458  0.00  0.00    -0.151 NA
ATOM     11  C   UNL     1      -2.824   0.441  24.275  0.00  0.00    +0.117 C 
ATOM     12  C   UNL     1      -2.776   1.264  24.263  0.00  0.00    +0.115 C 
ATOM     13  N   UNL     1      -3.443   1.718  24.436  0.00  0.00    -0.254 N 
ATOM     14  C   UNL     1      -3.562   2.534  24.467  0.00  0.00    +0.314 C 
ATOM     15  O   UNL     1      -2.993   3.113  24.321  0.00  0.00    -0.252 OA
ENDROOT
BRANCH  10  16
ATOM     16  S   UNL     1      -3.586  -0.753  24.470  0.00  0.00    +0.069 S 
ATOM     17  O   UNL     1      -3.364  -0.755  25.264  0.00  0.00    -0.152 OA
ATOM     18  O   UNL     1      -3.808  -0.750  23.674  0.00  0.00    -0.152 OA
BRANCH  16  19
ATOM     19  C   UNL     1      -3.633  -1.576  24.480  0.00  0.00    +0.152 A 
ATOM     20  C   UNL     1      -4.069  -2.043  23.959  0.00  0.00    +0.027 A 
ATOM     21  C   UNL     1      -3.958  -2.833  24.170  0.00  0.00    +0.009 A 
ATOM     22  C   UNL     1      -3.453  -2.854  24.822  0.00  0.00    +0.037 A 
ATOM     23  S   UNL     1      -3.252  -2.077  25.014  0.00  0.00    -0.067 S 
ENDBRANCH  16  19
ENDBRANCH  10  16
BRANCH   5   4
ATOM      4  C   UNL     1      -4.707   3.406  24.763  0.00  0.00    +0.191 C 
BRANCH   4   2
ATOM      1  N   UNL     1      -5.595   3.838  25.797  0.00  0.00    -0.086 NA
ATOM      2  C   UNL     1      -4.828   3.715  25.518  0.00  0.00    +0.281 C 
ATOM      3  O   UNL     1      -4.180   3.901  25.995  0.00  0.00    -0.270 OA
ENDBRANCH   4   2
ENDBRANCH   5   4
TORSDOF 4
ENDMDL
MODEL 3
REMARK VINA RESULT:      -8.8      1.808      4.615
REMARK  Name = 
REMARK  4 active torsions:
REMARK  status: ('A' for Active; 'I' for Inactive)
REMARK    1  A    between atoms: C_2  and  C_4
REMARK    2  A    between atoms: C_4  and  N_5
REMARK    3  A    between atoms: N_10  and  S_16
REMARK    4  A    between atoms: S_16  and  C_19
REMARK                            x       y       z     vdW  Elec       q    Type
REMARK                         _______ _______ _______ _____ _____    ______ ____
ROOT
ATOM      5  N   UNL     1      -3.289  -1.033  24.977  0.00  0.00    -0.203 N 
ATOM      6  C   UNL     1      -2.710  -0.543  25.304  0.00  0.00    +0.253 C 
ATOM      7  O   UNL     1      -2.151  -0.765  25.868  0.00  0.00    -0.273 OA
ATOM      8  C   UNL     1      -2.790   0.205  24.968  0.00  0.00    +0.172 C 
ATOM      9  C   UNL     1      -2.373   0.908  25.079  0.00  0.00    +0.125 C 
ATOM     10  N   UNL     1      -2.583   1.584  24.657  0.00  0.00    -0.151 NA
ATOM     11  C   UNL     1      -3.210   1.558  24.122  0.00  0.00    +0.117 C 
ATOM     12  C   UNL     1      -3.628   0.856  24.010  0.00  0.00    +0.115 C 
ATOM     13  N   UNL     1      -3.418   0.179  24.433  0.00  0.00    -0.254 N 
ATOM     14  C   UNL     1      -3.726  -0.586  24.439  0.00  0.00    +0.314 C 
ATOM     15  O   UNL     1      -4.360  -0.857  23.985  0.00  0.00    -0.252 OA
ENDROOT
BRANCH  10  16
ATOM     16  S   UNL     1      -2.165   2.287  24.768  0.00  0.00    +0.069 S 
ATOM     17  O   UNL     1      -1.628   2.061  24.185  0.00  0.00    -0.152 OA
ATOM     18  O   UNL     1      -2.704   2.514  25.352  0.00  0.00    -0.152 OA
BRANCH  16  19
ATOM     19  C   UNL     1      -1.749   2.991  24.880  0.00  0.00    +0.152 A 
ATOM     20  C   UNL     1      -2.016   3.651  25.295  0.00  0.00    +0.027 A 
ATOM     21  C   UNL     1      -1.424   4.226  25.269  0.00  0.00    +0.009 A 
ATOM     22  C   UNL     1      -0.791   3.919  24.837  0.00  0.00    +0.037 A 
ATOM     23  S   UNL     1      -0.991   3.156  24.597  0.00  0.00    -0.067 S 
ENDBRANCH  16  19
ENDBRANCH  10  16
BRANCH   5   4
ATOM      4  C   UNL     1      -3.409  -1.829  25.156  0.00  0.00    +0.191 C 
BRANCH   4   2
ATOM      1  N   UNL     1      -3.696  -2.907  24.263  0.00  0.00    -0.086 NA
ATOM      2  C   UNL     1      -3.150  -2.413  24.636  0.00  0.00    +0.281 C 
ATOM      3  O   UNL     1      -2.343  -2.504  24.487  0.00  0.00    -0.270 OA
ENDBRANCH   4   2
ENDBRANCH   5   4
TORSDOF 4
ENDMDL
MODEL 4
REMARK VINA RESULT:      -8.7      1.582      2.237
REMARK  Name = 
REMARK  4 active torsions:
REMARK  status: ('A' for Active; 'I' for Inactive)
REMARK    1  A    between atoms: C_2  and  C_4
REMARK    2  A    between atoms: C_4  and  N_5
REMARK    3  A    between atoms: N_10  and  S_16
REMARK    4  A    between atoms: S_16  and  C_19
REMARK                            x       y       z     vdW  Elec       q    Type
REMARK                         _______ _______ _______ _____ _____    ______ ____
ROOT
ATOM      5  N   UNL     1      -1.325   2.697  25.585  0.00  0.00    -0.203 N 
ATOM      6  C   UNL     1      -2.047   2.368  25.360  0.00  0.00    +0.253 C 
ATOM      7  O   UNL     1      -2.756   2.777  25.261  0.00  0.00    -0.273 OA
ATOM      8  C   UNL     1      -1.935   1.558  25.252  0.00  0.00    +0.172 C 
ATOM      9  C   UNL     1      -2.451   0.954  25.030  0.00  0.00    +0.125 C 
ATOM     10  N   UNL     1      -2.176   0.179  24.965  0.00  0.00    -0.151 NA
ATOM     11  C   UNL     1      -1.385   0.008  25.123  0.00  0.00    +0.117 C 
ATOM     12  C   UNL     1      -0.868   0.611  25.345  0.00  0.00    +0.115 C 
ATOM     13  N   UNL     1      -1.144   1.387  25.409  0.00  0.00    -0.254 N 
ATOM     14  C   UNL     1      -0.766   2.091  25.615  0.00  0.00    +0.314 C 
ATOM     15  O   UNL     1       0.030   2.174  25.816  0.00  0.00    -0.252 OA
ENDROOT
BRANCH  10  16
ATOM     16  S   UNL     1      -2.692  -0.425  24.743  0.00  0.00    +0.069 S 
ATOM     17  O   UNL     1      -2.547  -0.259  23.949  0.00  0.00    -0.152 OA
ATOM     18  O   UNL     1      -2.838  -0.592  25.539  0.00  0.00    -0.152 OA
BRANCH  16  19
ATOM     19  C   UNL     1      -3.208  -1.030  24.523  0.00  0.00    +0.152 A 
ATOM     20  C   UNL     1      -3.891  -0.943  24.069  0.00  0.00    +0.027 A 
ATOM     21  C   UNL     1      -4.237  -1.687  23.983  0.00  0.00    +0.009 A 
ATOM     22  C   UNL     1      -3.767  -2.235  24.385  0.00  0.00    +0.037 A 
ATOM     23  S   UNL     1      -3.131  -1.828  24.718  0.00  0.00    -0.067 S 
ENDBRANCH  16  19
ENDBRANCH  10  16
BRANCH   5   4
ATOM      4  C   UNL     1      -1.185   3.494  25.750  0.00  0.00    +0.191 C 
BRANCH   4   2
ATOM      1  N   UNL     1      -1.629   4.686  25.099  0.00  0.00    -0.086 NA
ATOM      2  C   UNL     1      -1.119   4.038  25.134  0.00  0.00    +0.281 C 
ATOM      3  O   UNL     1      -0.542   3.934  24.552  0.00  0.00    -0.270 OA
ENDBRANCH   4   2
ENDBRANCH   5   4
TORSDOF 4
ENDMDL
