MODEL 1
REMARK VINA RESULT:     -11.8      0.000      0.000
REMARK  Name = 
REMARK  7 active torsions:
REMARK  status: ('A' for Active; 'I' for Inactive)
REMARK    1  A    between atoms: C_2  and  N_3
REMARK    2  A    between atoms: N_6  and  C_7
REMARK    3  A    between atoms: C_7  and  C_8
REMARK    4  A    between atoms: C_12  and  C_13
REMARK    5  A    between atoms: C_13  and  C_14
REMARK    6  A    between atoms: C_17  and  C_19
REMARK    7  A    between atoms: C_27  and  C_28
REMARK                            x       y       z     vdW  Elec       q    Type
REMARK                         _______ _______ _______ _____ _____    ______ ____
ROOT
ATOM      8  C   UNL     1      -4.041   0.797  24.239  0.00  0.00    +0.043 C 
ATOM      9  C   UNL     1      -4.649   0.925  24.781  0.00  0.00    -0.033 C 
ATOM     10  C   UNL     1      -4.786   1.685  25.075  0.00  0.00    -0.048 C 
ATOM     11  C   UNL     1      -5.394   1.813  25.617  0.00  0.00    +0.026 C 
ATOM     12  C   UNL     1      -4.314   2.314  24.826  0.00  0.00    +0.027 C 
ATOM     26  C   UNL     1      -3.706   2.184  24.284  0.00  0.00    +0.005 C 
ATOM     27  C   UNL     1      -3.569   1.426  23.991  0.00  0.00    +0.006 C 
ENDROOT
BRANCH  27  28
ATOM     28  C   UNL     1      -2.961   1.296  23.449  0.00  0.00    +0.000 C 
ATOM     29  C   UNL     1      -2.233   1.006  23.706  0.00  0.00    +0.000 C 
ATOM     30  C   UNL     1      -3.081   1.457  22.648  0.00  0.00    +0.000 C 
ENDBRANCH  27  28
BRANCH   8   7
ATOM      7  C   UNL     1      -3.905   0.037  23.945  0.00  0.00    +0.121 C 
BRANCH   7   6
ATOM      3  N   UNL     1      -3.837  -2.014  24.688  0.00  0.00    -0.187 NA
ATOM      4  C   UNL     1      -3.882  -1.374  24.170  0.00  0.00    +0.339 C 
ATOM      5  O   UNL     1      -3.949  -1.504  23.358  0.00  0.00    -0.249 OA
ATOM      6  N   UNL     1      -3.859  -0.603  24.464  0.00  0.00    -0.187 NA
BRANCH   3   2
ATOM      1  C   UNL     1      -3.440  -3.384  24.776  0.00  0.00    +0.025 C 
ATOM      2  C   UNL     1      -3.859  -2.785  24.394  0.00  0.00    +0.117 C 
ENDBRANCH   3   2
ENDBRANCH   7   6
ENDBRANCH   8   7
BRANCH  12  13
ATOM     13  C   UNL     1      -4.451   3.072  25.120  0.00  0.00    +0.091 C 
BRANCH  13  14
ATOM     14  C   UNL     1      -3.824   3.521  25.415  0.00  0.00    +0.227 A 
ATOM     15  N   UNL     1      -3.738   3.781  26.193  0.00  0.00    -0.111 NA
ATOM     16  N   UNL     1      -3.034   4.208  26.243  0.00  0.00    -0.107 NA
ATOM     17  C   UNL     1      -2.685   4.212  25.496  0.00  0.00    +0.252 A 
ATOM     18  O   UNL     1      -3.173   3.787  24.984  0.00  0.00    -0.419 OA
BRANCH  17  19
ATOM     19  C   UNL     1      -1.972   4.577  25.295  0.00  0.00    +0.083 A 
ATOM     20  C   UNL     1      -1.971   5.357  25.024  0.00  0.00    +0.007 A 
ATOM     21  C   UNL     1      -1.259   5.722  24.823  0.00  0.00    +0.000 A 
ATOM     22  C   UNL     1      -0.549   5.307  24.892  0.00  0.00    +0.002 A 
ATOM     23  C   UNL     1      -0.550   4.527  25.163  0.00  0.00    +0.030 A 
ATOM     24  C   UNL     1      -1.263   4.162  25.364  0.00  0.00    +0.145 A 
ATOM     25  F   UNL     1      -1.264   3.383  25.634  0.00  0.00    -0.204 F 
ENDBRANCH  17  19
ENDBRANCH  13  14
ENDBRANCH  12  13
TORSDOF 7
ENDMDL
MODEL 2
REMARK VINA RESULT:     -11.5      2.674      4.307
REMARK  Name = 
REMARK  7 active torsions:
REMARK  status: ('A' for Active; 'I' for Inactive)
REMARK    1  A    between atoms: C_2  and  N_3
REMARK    2  A    between atoms: N_6  and  C_7
REMARK    3  A    between atoms: C_7  and  C_8
REMARK    4  A    between atoms: C_12  and  C_13
REMARK    5  A    between atoms: C_13  and  C_14
REMARK    6  A    between atoms: C_17  and  C_19
REMARK    7  A    between atoms: C_27  and  C_28
REMARK                            x       y       z     vdW  Elec       q    Type
REMARK                         _______ _______ _______ _____ _____    ______ ____
ROOT
ATOM      8  C   UNL     1      -0.508   1.440  24.393  0.00  0.00    +0.043 C 
ATOM      9  C   UNL     1      -0.294   2.231  24.300  0.00  0.00    -0.033 C 
ATOM     10  C   UNL     1      -0.762   2.826  24.630  0.00  0.00    -0.048 C 
ATOM     11  C   UNL     1      -0.548   3.617  24.537  0.00  0.00    +0.026 C 
ATOM     12  C   UNL     1      -1.442   2.629  25.053  0.00  0.00    +0.027 C 
ATOM     26  C   UNL     1      -1.655   1.837  25.146  0.00  0.00    +0.005 C 
ATOM     27  C   UNL     1      -1.188   1.243  24.816  0.00  0.00    +0.006 C 
ENDROOT
BRANCH  27  28
ATOM     28  C   UNL     1      -1.401   0.451  24.908  0.00  0.00    +0.000 C 
ATOM     29  C   UNL     1      -1.147   0.029  25.569  0.00  0.00    +0.000 C 
ATOM     30  C   UNL     1      -1.869   0.081  24.338  0.00  0.00    +0.000 C 
ENDBRANCH  27  28
BRANCH   8   7
ATOM      7  C   UNL     1      -0.040   0.845  24.062  0.00  0.00    +0.121 C 
BRANCH   7   6
ATOM      3  N   UNL     1       1.900   0.650  23.083  0.00  0.00    -0.187 NA
ATOM      4  C   UNL     1       1.133   0.479  23.334  0.00  0.00    +0.339 C 
ATOM      5  O   UNL     1       0.772  -0.228  23.107  0.00  0.00    -0.249 OA
ATOM      6  N   UNL     1       0.727   1.016  23.811  0.00  0.00    -0.187 NA
BRANCH   3   2
ATOM      1  C   UNL     1       3.080   0.276  22.369  0.00  0.00    +0.025 C 
ATOM      2  C   UNL     1       2.307   0.113  22.605  0.00  0.00    +0.117 C 
ENDBRANCH   3   2
ENDBRANCH   7   6
ENDBRANCH   8   7
BRANCH  12  13
ATOM     13  C   UNL     1      -1.909   3.223  25.383  0.00  0.00    +0.091 C 
BRANCH  13  14
ATOM     14  C   UNL     1      -2.706   3.284  25.179  0.00  0.00    +0.227 A 
ATOM     15  N   UNL     1      -3.032   3.833  24.656  0.00  0.00    -0.111 NA
ATOM     16  N   UNL     1      -3.844   3.695  24.616  0.00  0.00    -0.107 NA
ATOM     17  C   UNL     1      -4.020   3.062  25.114  0.00  0.00    +0.252 A 
ATOM     18  O   UNL     1      -3.316   2.808  25.462  0.00  0.00    -0.419 OA
BRANCH  17  19
ATOM     19  C   UNL     1      -4.769   2.738  25.242  0.00  0.00    +0.083 A 
ATOM     20  C   UNL     1      -5.207   2.964  25.903  0.00  0.00    +0.007 A 
ATOM     21  C   UNL     1      -5.955   2.641  26.032  0.00  0.00    +0.000 A 
ATOM     22  C   UNL     1      -6.265   2.092  25.499  0.00  0.00    +0.002 A 
ATOM     23  C   UNL     1      -5.826   1.866  24.837  0.00  0.00    +0.030 A 
ATOM     24  C   UNL     1      -5.078   2.190  24.709  0.00  0.00    +0.145 A 
ATOM     25  F   UNL     1      -4.640   1.964  24.048  0.00  0.00    -0.204 F 
ENDBRANCH  17  19
ENDBRANCH  13  14
ENDBRANCH  12  13
TORSDOF 7
ENDMDL
MODEL 3
REMARK VINA RESULT:     -10.8      2.878      4.808
REMARK  Name = 
REMARK  7 active torsions:
REMARK  status: ('A' for Active; 'I' for Inactive)
REMARK    1  A    between atoms: C_2  and  N_3
REMARK    2  A    between atoms: N_6  and  C_7
REMARK    3  A    between atoms: C_7  and  C_8
REMARK    4  A    between atoms: C_12  and  C_13
REMARK    5  A    between atoms: C_13  and  C_14
REMARK    6  A    between atoms: C_17  and  C_19
REMARK    7  A    between atoms: C_27  and  C_28
REMARK                            x       y       z     vdW  Elec       q    Type
REMARK                         _______ _______ _______ _____ _____    ______ ____
ROOT
ATOM      8  C   UNL     1      -0.345   0.456  24.297  0.00  0.00    +0.043 C 
ATOM      9  C   UNL     1      -0.501  -0.353  24.255  0.00  0.00    -0.033 C 
ATOM     10  C   UNL     1      -1.210  -0.652  24.555  0.00  0.00    -0.048 C 
ATOM     11  C   UNL     1      -1.366  -1.461  24.513  0.00  0.00    +0.026 C 
ATOM     12  C   UNL     1      -1.761  -0.142  24.897  0.00  0.00    +0.027 C 
ATOM     26  C   UNL     1      -1.604   0.667  24.938  0.00  0.00    +0.005 C 
ATOM     27  C   UNL     1      -0.896   0.966  24.639  0.00  0.00    +0.006 C 
ENDROOT
BRANCH  27  28
ATOM     28  C   UNL     1      -0.739   1.775  24.680  0.00  0.00    +0.000 C 
ATOM     29  C   UNL     1      -0.935   2.267  24.049  0.00  0.00    +0.000 C 
ATOM     30  C   UNL     1      -0.384   2.091  25.355  0.00  0.00    +0.000 C 
ENDBRANCH  27  28
BRANCH   8   7
ATOM      7  C   UNL     1       0.364   0.755  23.997  0.00  0.00    +0.121 C 
BRANCH   7   6
ATOM      3  N   UNL     1       2.022   0.092  22.742  0.00  0.00    -0.187 NA
ATOM      4  C   UNL     1       1.575   0.543  23.269  0.00  0.00    +0.339 C 
ATOM      5  O   UNL     1       1.891   1.232  23.594  0.00  0.00    -0.249 OA
ATOM      6  N   UNL     1       0.810   0.304  23.470  0.00  0.00    -0.187 NA
BRANCH   3   2
ATOM      1  C   UNL     1       3.127   0.068  21.837  0.00  0.00    +0.025 C 
ATOM      2  C   UNL     1       2.786   0.331  22.540  0.00  0.00    +0.117 C 
ENDBRANCH   3   2
ENDBRANCH   7   6
ENDBRANCH   8   7
BRANCH  12  13
ATOM     13  C   UNL     1      -2.469  -0.441  25.196  0.00  0.00    +0.091 C 
BRANCH  13  14
ATOM     14  C   UNL     1      -3.189  -0.118  24.955  0.00  0.00    +0.227 A 
ATOM     15  N   UNL     1      -3.671  -0.407  24.350  0.00  0.00    -0.111 NA
ATOM     16  N   UNL     1      -4.333   0.082  24.297  0.00  0.00    -0.107 NA
ATOM     17  C   UNL     1      -4.260   0.672  24.868  0.00  0.00    +0.252 A 
ATOM     18  O   UNL     1      -3.553   0.548  25.275  0.00  0.00    -0.419 OA
BRANCH  17  19
ATOM     19  C   UNL     1      -4.801   1.280  25.009  0.00  0.00    +0.083 A 
ATOM     20  C   UNL     1      -5.374   1.194  25.596  0.00  0.00    +0.007 A 
ATOM     21  C   UNL     1      -5.914   1.801  25.738  0.00  0.00    +0.000 A 
ATOM     22  C   UNL     1      -5.881   2.495  25.292  0.00  0.00    +0.002 A 
ATOM     23  C   UNL     1      -5.307   2.581  24.705  0.00  0.00    +0.030 A 
ATOM     24  C   UNL     1      -4.767   1.973  24.564  0.00  0.00    +0.145 A 
ATOM     25  F   UNL     1      -4.194   2.060  23.976  0.00  0.00    -0.204 F 
ENDBRANCH  17  19
ENDBRANCH  13  14
ENDBRANCH  12  13
TORSDOF 7
ENDMDL
MODEL 4
REMARK VINA RESULT:     -10.8      2.722      5.296
REMARK  Name = 
REMARK  7 active torsions:
REMARK  status: ('A' for Active; 'I' for Inactive)
REMARK    1  A    between atoms: C_2  and  N_3
REMARK    2  A    between atoms: N_6  and  C_7
REMARK    3  A    between atoms: C_7  and  C_8
REMARK    4  A    between atoms: C_12  and  C_13
REMARK    5  A    between atoms: C_13  and  C_14
REMARK    6  A    between atoms: C_17  and  C_19
REMARK    7  A    between atoms: C_27  and  C_28
REMARK                            x       y       z     vdW  Elec       q    Type
REMARK                         _______ _______ _______ _____ _____    ______ ____
ROOT
ATOM      8  C   UNL     1      -0.746   1.613  24.181  0.00  0.00    +0.043 C 
ATOM      9  C   UNL     1      -1.132   1.644  23.453  0.00  0.00    -0.033 C 
ATOM     10  C   UNL     1      -1.957   1.619  23.422  0.00  0.00    -0.048 C 
ATOM     11  C   UNL     1      -2.343   1.650  22.693  0.00  0.00    +0.026 C 
ATOM     12  C   UNL     1      -2.395   1.564  24.119  0.00  0.00    +0.027 C 
ATOM     26  C   UNL     1      -2.007   1.533  24.847  0.00  0.00    +0.005 C 
ATOM     27  C   UNL     1      -1.184   1.558  24.878  0.00  0.00    +0.006 C 
ENDROOT
BRANCH  27  28
ATOM     28  C   UNL     1      -0.797   1.527  25.606  0.00  0.00    +0.000 C 
ATOM     29  C   UNL     1      -0.627   0.799  25.953  0.00  0.00    +0.000 C 
ATOM     30  C   UNL     1      -0.579   2.226  25.987  0.00  0.00    +0.000 C 
ENDBRANCH  27  28
BRANCH   8   7
ATOM      7  C   UNL     1       0.078   1.638  24.212  0.00  0.00    +0.121 C 
BRANCH   7   6
ATOM      3  N   UNL     1       1.766   0.752  23.149  0.00  0.00    -0.187 NA
ATOM      4  C   UNL     1       1.321   1.273  23.608  0.00  0.00    +0.339 C 
ATOM      5  O   UNL     1       1.673   1.949  23.924  0.00  0.00    -0.249 OA
ATOM      6  N   UNL     1       0.523   1.117  23.752  0.00  0.00    -0.187 NA
BRANCH   3   2
ATOM      1  C   UNL     1       3.014   0.376  22.563  0.00  0.00    +0.025 C 
ATOM      2  C   UNL     1       2.564   0.907  23.005  0.00  0.00    +0.117 C 
ENDBRANCH   3   2
ENDBRANCH   7   6
ENDBRANCH   8   7
BRANCH  12  13
ATOM     13  C   UNL     1      -3.218   1.540  24.088  0.00  0.00    +0.091 C 
BRANCH  13  14
ATOM     14  C   UNL     1      -3.620   0.859  24.323  0.00  0.00    +0.227 A 
ATOM     15  N   UNL     1      -4.321   0.836  24.760  0.00  0.00    -0.111 NA
ATOM     16  N   UNL     1      -4.526   0.045  24.869  0.00  0.00    -0.107 NA
ATOM     17  C   UNL     1      -3.954  -0.421  24.501  0.00  0.00    +0.252 A 
ATOM     18  O   UNL     1      -3.395   0.082  24.163  0.00  0.00    -0.419 OA
BRANCH  17  19
ATOM     19  C   UNL     1      -3.943  -1.246  24.474  0.00  0.00    +0.083 A 
ATOM     20  C   UNL     1      -4.279  -1.642  23.832  0.00  0.00    +0.007 A 
ATOM     21  C   UNL     1      -4.268  -2.466  23.805  0.00  0.00    +0.000 A 
ATOM     22  C   UNL     1      -3.922  -2.895  24.419  0.00  0.00    +0.002 A 
ATOM     23  C   UNL     1      -3.586  -2.499  25.061  0.00  0.00    +0.030 A 
ATOM     24  C   UNL     1      -3.598  -1.674  25.088  0.00  0.00    +0.145 A 
ATOM     25  F   UNL     1      -3.262  -1.279  25.730  0.00  0.00    -0.204 F 
ENDBRANCH  17  19
ENDBRANCH  13  14
ENDBRANCH  12  13
TORSDOF 7
ENDMDL
MODEL 5
REMARK VINA RESULT:     -10.1      1.430      2.302
REMARK  Name = 
REMARK  7 active torsions:
REMARK  status: ('A' for Active; 'I' for Inactive)
REMARK    1  A    between atoms: C_2  and  N_3
REMARK    2  A    between atoms: N_6  and  C_7
REMARK    3  A    between atoms: C_7  and  C_8
REMARK    4  A    between atoms: C_12  and  C_13
REMARK    5  A    between atoms: C_13  and  C_14
REMARK    6  A    between atoms: C_17  and  C_19
REMARK    7  A    between atoms: C_27  and  C_28
REMARK                            x       y       z     vdW  Elec       q    Type
REMARK                         _______ _______ _______ _____ _____    ______ ____
ROOT
ATOM      8  C   UNL     1      -2.590  -0.086  24.537  0.00  0.00    +0.043 C 
ATOM      9  C   UNL     1      -1.872  -0.452  24.711  0.00  0.00    -0.033 C 
ATOM     10  C   UNL     1      -1.200   0.006  24.854  0.00  0.00    -0.048 C 
ATOM     11  C   UNL     1      -0.482  -0.360  25.028  0.00  0.00    +0.026 C 
ATOM     12  C   UNL     1      -1.247   0.829  24.822  0.00  0.00    +0.027 C 
ATOM     26  C   UNL     1      -1.966   1.194  24.647  0.00  0.00    +0.005 C 
ATOM     27  C   UNL     1      -2.637   0.737  24.505  0.00  0.00    +0.006 C 
ENDROOT
BRANCH  27  28
ATOM     28  C   UNL     1      -3.356   1.103  24.330  0.00  0.00    +0.000 C 
ATOM     29  C   UNL     1      -3.517   1.351  23.561  0.00  0.00    +0.000 C 
ATOM     30  C   UNL     1      -3.914   1.219  24.926  0.00  0.00    +0.000 C 
ENDBRANCH  27  28
BRANCH   8   7
ATOM      7  C   UNL     1      -3.262  -0.543  24.394  0.00  0.00    +0.121 C 
BRANCH   7   6
ATOM      3  N   UNL     1      -3.751  -2.669  24.315  0.00  0.00    -0.187 NA
ATOM      4  C   UNL     1      -3.761  -1.860  24.152  0.00  0.00    +0.339 C 
ATOM      5  O   UNL     1      -4.279  -1.560  23.585  0.00  0.00    -0.249 OA
ATOM      6  N   UNL     1      -3.252  -1.352  24.557  0.00  0.00    -0.187 NA
BRANCH   3   2
ATOM      1  C   UNL     1      -4.103  -3.987  23.891  0.00  0.00    +0.025 C 
ATOM      2  C   UNL     1      -4.260  -3.178  23.910  0.00  0.00    +0.117 C 
ENDBRANCH   3   2
ENDBRANCH   7   6
ENDBRANCH   8   7
BRANCH  12  13
ATOM     13  C   UNL     1      -0.575   1.286  24.964  0.00  0.00    +0.091 C 
BRANCH  13  14
ATOM     14  C   UNL     1      -0.650   2.038  25.294  0.00  0.00    +0.227 A 
ATOM     15  N   UNL     1      -0.522   2.235  26.086  0.00  0.00    -0.111 NA
ATOM     16  N   UNL     1      -0.658   3.044  26.172  0.00  0.00    -0.107 NA
ATOM     17  C   UNL     1      -0.870   3.347  25.435  0.00  0.00    +0.252 A 
ATOM     18  O   UNL     1      -0.864   2.725  24.893  0.00  0.00    -0.419 OA
BRANCH  17  19
ATOM     19  C   UNL     1      -1.055   4.134  25.269  0.00  0.00    +0.083 A 
ATOM     20  C   UNL     1      -0.519   4.603  24.851  0.00  0.00    +0.007 A 
ATOM     21  C   UNL     1      -0.703   5.390  24.685  0.00  0.00    +0.000 A 
ATOM     22  C   UNL     1      -1.422   5.707  24.935  0.00  0.00    +0.002 A 
ATOM     23  C   UNL     1      -1.958   5.238  25.352  0.00  0.00    +0.030 A 
ATOM     24  C   UNL     1      -1.773   4.451  25.519  0.00  0.00    +0.145 A 
ATOM     25  F   UNL     1      -2.309   3.982  25.936  0.00  0.00    -0.204 F 
ENDBRANCH  17  19
ENDBRANCH  13  14
ENDBRANCH  12  13
TORSDOF 7
ENDMDL
MODEL 6
REMARK VINA RESULT:      -9.9      2.557      5.024
REMARK  Name = 
REMARK  7 active torsions:
REMARK  status: ('A' for Active; 'I' for Inactive)
REMARK    1  A    between atoms: C_2  and  N_3
REMARK    2  A    between atoms: N_6  and  C_7
REMARK    3  A    between atoms: C_7  and  C_8
REMARK    4  A    between atoms: C_12  and  C_13
REMARK    5  A    between atoms: C_13  and  C_14
REMARK    6  A    between atoms: C_17  and  C_19
REMARK    7  A    between atoms: C_27  and  C_28
REMARK                            x       y       z     vdW  Elec       q    Type
REMARK                         _______ _______ _______ _____ _____    ______ ____
ROOT
ATOM      8  C   UNL     1      -0.453   2.208  25.826  0.00  0.00    +0.043 C 
ATOM      9  C   UNL     1      -0.585   1.397  25.897  0.00  0.00    -0.033 C 
ATOM     10  C   UNL     1      -1.112   1.018  25.387  0.00  0.00    -0.048 C 
ATOM     11  C   UNL     1      -1.244   0.207  25.459  0.00  0.00    +0.026 C 
ATOM     12  C   UNL     1      -1.507   1.451  24.806  0.00  0.00    +0.027 C 
ATOM     26  C   UNL     1      -1.374   2.263  24.735  0.00  0.00    +0.005 C 
ATOM     27  C   UNL     1      -0.847   2.641  25.245  0.00  0.00    +0.006 C 
ENDROOT
BRANCH  27  28
ATOM     28  C   UNL     1      -0.715   3.452  25.174  0.00  0.00    +0.000 C 
ATOM     29  C   UNL     1      -1.183   3.985  25.594  0.00  0.00    +0.000 C 
ATOM     30  C   UNL     1      -0.113   3.730  24.683  0.00  0.00    +0.000 C 
ENDBRANCH  27  28
BRANCH   8   7
ATOM      7  C   UNL     1       0.074   2.586  26.336  0.00  0.00    +0.121 C 
BRANCH   7   6
ATOM      3  N   UNL     1       0.826   2.321  28.368  0.00  0.00    -0.187 NA
ATOM      4  C   UNL     1       0.783   2.550  27.577  0.00  0.00    +0.339 C 
ATOM      5  O   UNL     1       1.405   2.970  27.234  0.00  0.00    -0.249 OA
ATOM      6  N   UNL     1       0.117   2.358  27.128  0.00  0.00    -0.187 NA
BRANCH   3   2
ATOM      1  C   UNL     1       1.504   2.349  29.625  0.00  0.00    +0.025 C 
ATOM      2  C   UNL     1       1.491   2.513  28.817  0.00  0.00    +0.117 C 
ENDBRANCH   3   2
ENDBRANCH   7   6
ENDBRANCH   8   7
BRANCH  12  13
ATOM     13  C   UNL     1      -2.033   1.073  24.297  0.00  0.00    +0.091 C 
BRANCH  13  14
ATOM     14  C   UNL     1      -2.791   1.380  24.183  0.00  0.00    +0.227 A 
ATOM     15  N   UNL     1      -3.093   1.673  23.473  0.00  0.00    -0.111 NA
ATOM     16  N   UNL     1      -3.867   1.922  23.609  0.00  0.00    -0.107 NA
ATOM     17  C   UNL     1      -4.044   1.783  24.403  0.00  0.00    +0.252 A 
ATOM     18  O   UNL     1      -3.378   1.448  24.757  0.00  0.00    -0.419 OA
BRANCH  17  19
ATOM     19  C   UNL     1      -4.760   1.950  24.778  0.00  0.00    +0.083 A 
ATOM     20  C   UNL     1      -5.327   1.356  24.865  0.00  0.00    +0.007 A 
ATOM     21  C   UNL     1      -6.043   1.522  25.239  0.00  0.00    +0.000 A 
ATOM     22  C   UNL     1      -6.193   2.281  25.526  0.00  0.00    +0.002 A 
ATOM     23  C   UNL     1      -5.626   2.875  25.439  0.00  0.00    +0.030 A 
ATOM     24  C   UNL     1      -4.909   2.708  25.064  0.00  0.00    +0.145 A 
ATOM     25  F   UNL     1      -4.343   3.302  24.977  0.00  0.00    -0.204 F 
ENDBRANCH  17  19
ENDBRANCH  13  14
ENDBRANCH  12  13
TORSDOF 7
ENDMDL
MODEL 7
REMARK VINA RESULT:      -9.8      1.430      5.475
REMARK  Name = 
REMARK  7 active torsions:
REMARK  status: ('A' for Active; 'I' for Inactive)
REMARK    1  A    between atoms: C_2  and  N_3
REMARK    2  A    between atoms: N_6  and  C_7
REMARK    3  A    between atoms: C_7  and  C_8
REMARK    4  A    between atoms: C_12  and  C_13
REMARK    5  A    between atoms: C_13  and  C_14
REMARK    6  A    between atoms: C_17  and  C_19
REMARK    7  A    between atoms: C_27  and  C_28
REMARK                            x       y       z     vdW  Elec       q    Type
REMARK                         _______ _______ _______ _____ _____    ______ ____
ROOT
ATOM      8  C   UNL     1      -2.789   2.450  24.312  0.00  0.00    +0.043 C 
ATOM      9  C   UNL     1      -3.446   2.601  24.788  0.00  0.00    -0.033 C 
ATOM     10  C   UNL     1      -4.026   2.020  24.886  0.00  0.00    -0.048 C 
ATOM     11  C   UNL     1      -4.683   2.171  25.361  0.00  0.00    +0.026 C 
ATOM     12  C   UNL     1      -3.947   1.291  24.508  0.00  0.00    +0.027 C 
ATOM     26  C   UNL     1      -3.289   1.142  24.033  0.00  0.00    +0.005 C 
ATOM     27  C   UNL     1      -2.711   1.721  23.935  0.00  0.00    +0.006 C 
ENDROOT
BRANCH  27  28
ATOM     28  C   UNL     1      -2.053   1.572  23.460  0.00  0.00    +0.000 C 
ATOM     29  C   UNL     1      -1.374   1.238  23.787  0.00  0.00    +0.000 C 
ATOM     30  C   UNL     1      -2.075   1.757  22.656  0.00  0.00    +0.000 C 
ENDBRANCH  27  28
BRANCH   8   7
ATOM      7  C   UNL     1      -2.210   3.030  24.214  0.00  0.00    +0.121 C 
BRANCH   7   6
ATOM      3  N   UNL     1      -1.721   5.000  25.017  0.00  0.00    -0.187 NA
ATOM      4  C   UNL     1      -1.643   4.272  24.636  0.00  0.00    +0.339 C 
ATOM      5  O   UNL     1      -0.922   4.059  24.297  0.00  0.00    -0.249 OA
ATOM      6  N   UNL     1      -2.288   3.758  24.595  0.00  0.00    -0.187 NA
BRANCH   3   2
ATOM      1  C   UNL     1      -1.194   6.328  24.996  0.00  0.00    +0.025 C 
ATOM      2  C   UNL     1      -1.076   5.514  25.058  0.00  0.00    +0.117 C 
ENDBRANCH   3   2
ENDBRANCH   7   6
ENDBRANCH   8   7
BRANCH  12  13
ATOM     13  C   UNL     1      -4.526   0.712  24.606  0.00  0.00    +0.091 C 
BRANCH  13  14
ATOM     14  C   UNL     1      -4.314  -0.046  24.854  0.00  0.00    +0.227 A 
ATOM     15  N   UNL     1      -4.341  -0.328  25.629  0.00  0.00    -0.111 NA
ATOM     16  N   UNL     1      -4.082  -1.111  25.624  0.00  0.00    -0.107 NA
ATOM     17  C   UNL     1      -3.895  -1.313  24.847  0.00  0.00    +0.252 A 
ATOM     18  O   UNL     1      -4.038  -0.655  24.371  0.00  0.00    -0.419 OA
BRANCH  17  19
ATOM     19  C   UNL     1      -3.614  -2.045  24.589  0.00  0.00    +0.083 A 
ATOM     20  C   UNL     1      -4.109  -2.550  24.164  0.00  0.00    +0.007 A 
ATOM     21  C   UNL     1      -3.829  -3.282  23.906  0.00  0.00    +0.000 A 
ATOM     22  C   UNL     1      -3.053  -3.509  24.074  0.00  0.00    +0.002 A 
ATOM     23  C   UNL     1      -2.558  -3.004  24.500  0.00  0.00    +0.030 A 
ATOM     24  C   UNL     1      -2.839  -2.272  24.757  0.00  0.00    +0.145 A 
ATOM     25  F   UNL     1      -2.344  -1.768  25.183  0.00  0.00    -0.204 F 
ENDBRANCH  17  19
ENDBRANCH  13  14
ENDBRANCH  12  13
TORSDOF 7
ENDMDL
MODEL 8
REMARK VINA RESULT:      -9.7      2.127      5.342
REMARK  Name = 
REMARK  7 active torsions:
REMARK  status: ('A' for Active; 'I' for Inactive)
REMARK    1  A    between atoms: C_2  and  N_3
REMARK    2  A    between atoms: N_6  and  C_7
REMARK    3  A    between atoms: C_7  and  C_8
REMARK    4  A    between atoms: C_12  and  C_13
REMARK    5  A    between atoms: C_13  and  C_14
REMARK    6  A    between atoms: C_17  and  C_19
REMARK    7  A    between atoms: C_27  and  C_28
REMARK                            x       y       z     vdW  Elec       q    Type
REMARK                         _______ _______ _______ _____ _____    ______ ____
ROOT
ATOM      8  C   UNL     1      -2.362   2.258  24.367  0.00  0.00    +0.043 C 
ATOM      9  C   UNL     1      -1.905   2.252  25.054  0.00  0.00    -0.033 C 
ATOM     10  C   UNL     1      -1.325   1.673  25.158  0.00  0.00    -0.048 C 
ATOM     11  C   UNL     1      -0.868   1.667  25.844  0.00  0.00    +0.026 C 
ATOM     12  C   UNL     1      -1.204   1.101  24.576  0.00  0.00    +0.027 C 
ATOM     26  C   UNL     1      -1.663   1.108  23.890  0.00  0.00    +0.005 C 
ATOM     27  C   UNL     1      -2.241   1.686  23.785  0.00  0.00    +0.006 C 
ENDROOT
BRANCH  27  28
ATOM     28  C   UNL     1      -2.700   1.693  23.099  0.00  0.00    +0.000 C 
ATOM     29  C   UNL     1      -3.400   1.260  23.066  0.00  0.00    +0.000 C 
ATOM     30  C   UNL     1      -2.456   2.133  22.446  0.00  0.00    +0.000 C 
ENDBRANCH  27  28
BRANCH   8   7
ATOM      7  C   UNL     1      -2.941   2.837  24.263  0.00  0.00    +0.121 C 
BRANCH   7   6
ATOM      3  N   UNL     1      -4.594   3.723  25.380  0.00  0.00    -0.187 NA
ATOM      4  C   UNL     1      -4.018   3.607  24.800  0.00  0.00    +0.339 C 
ATOM      5  O   UNL     1      -3.944   4.144  24.178  0.00  0.00    -0.249 OA
ATOM      6  N   UNL     1      -3.517   2.953  24.843  0.00  0.00    -0.187 NA
BRANCH   3   2
ATOM      1  C   UNL     1      -5.838   4.350  25.695  0.00  0.00    +0.025 C 
ATOM      2  C   UNL     1      -5.096   4.377  25.337  0.00  0.00    +0.117 C 
ENDBRANCH   3   2
ENDBRANCH   7   6
ENDBRANCH   8   7
BRANCH  12  13
ATOM     13  C   UNL     1      -0.626   0.523  24.680  0.00  0.00    +0.091 C 
BRANCH  13  14
ATOM     14  C   UNL     1      -0.844  -0.267  24.781  0.00  0.00    +0.227 A 
ATOM     15  N   UNL     1      -0.338  -0.887  24.981  0.00  0.00    -0.111 NA
ATOM     16  N   UNL     1      -0.786  -1.578  25.023  0.00  0.00    -0.107 NA
ATOM     17  C   UNL     1      -1.569  -1.385  24.849  0.00  0.00    +0.252 A 
ATOM     18  O   UNL     1      -1.604  -0.574  24.700  0.00  0.00    -0.419 OA
BRANCH  17  19
ATOM     19  C   UNL     1      -2.206  -1.910  24.828  0.00  0.00    +0.083 A 
ATOM     20  C   UNL     1      -2.245  -2.486  24.239  0.00  0.00    +0.007 A 
ATOM     21  C   UNL     1      -2.881  -3.011  24.217  0.00  0.00    +0.000 A 
ATOM     22  C   UNL     1      -3.478  -2.960  24.785  0.00  0.00    +0.002 A 
ATOM     23  C   UNL     1      -3.438  -2.383  25.375  0.00  0.00    +0.030 A 
ATOM     24  C   UNL     1      -2.801  -1.859  25.396  0.00  0.00    +0.145 A 
ATOM     25  F   UNL     1      -2.762  -1.283  25.985  0.00  0.00    -0.204 F 
ENDBRANCH  17  19
ENDBRANCH  13  14
ENDBRANCH  12  13
TORSDOF 7
ENDMDL
