MODEL 1
REMARK VINA RESULT:      -8.9      0.000      0.000
REMARK  Name = 
REMARK  6 active torsions:
REMARK  status: ('A' for Active; 'I' for Inactive)
REMARK    1  A    between atoms: N_2  and  C_4
REMARK    2  A    between atoms: C_7  and  C_10
REMARK    3  A    between atoms: N_15  and  C_16
REMARK    4  A    between atoms: C_20  and  O_24
REMARK    5  A    between atoms: O_24  and  C_25
REMARK    6  A    between atoms: N_27  and  C_28
REMARK                            x       y       z     vdW  Elec       q    Type
REMARK                         _______ _______ _______ _____ _____    ______ ____
ROOT
ATOM     16  C   UNL     1      -0.653   0.335  24.156  0.00  0.00    +0.155 C 
ATOM     17  C   UNL     1      -0.630  -0.460  23.937  0.00  0.00    +0.166 C 
ATOM     18  O   UNL     1       0.077  -0.592  23.533  0.00  0.00    -0.348 OA
ATOM     19  C   UNL     1       0.491   0.120  23.502  0.00  0.00    +0.186 C 
ATOM     20  C   UNL     1       1.184   0.479  23.234  0.00  0.00    +0.229 C 
ATOM     21  C   UNL     1       1.161   1.274  23.453  0.00  0.00    +0.188 C 
ATOM     22  O   UNL     1       0.454   1.407  23.856  0.00  0.00    -0.348 OA
ATOM     23  C   UNL     1       0.040   0.693  23.887  0.00  0.00    +0.168 C 
ENDROOT
BRANCH  16  15
ATOM     10  C   UNL     1      -3.338   1.309  24.265  0.00  0.00    +0.086 A 
ATOM     11  C   UNL     1      -3.462   1.053  23.491  0.00  0.00    +0.040 A 
ATOM     12  C   UNL     1      -2.853   0.682  23.076  0.00  0.00    +0.103 A 
ATOM     13  N   UNL     1      -2.119   0.566  23.436  0.00  0.00    -0.211 NA
ATOM     14  C   UNL     1      -1.995   0.822  24.211  0.00  0.00    +0.237 A 
ATOM     15  N   UNL     1      -1.262   0.707  24.570  0.00  0.00    -0.200 NA
ATOM     35  N   UNL     1      -2.604   1.193  24.625  0.00  0.00    -0.212 NA
BRANCH  10   7
ATOM      4  C   UNL     1      -5.166   2.423  25.509  0.00  0.00    +0.048 A 
ATOM      5  C   UNL     1      -4.512   2.859  25.256  0.00  0.00    +0.015 A 
ATOM      6  C   UNL     1      -3.903   2.488  24.842  0.00  0.00    +0.003 A 
ATOM      7  C   UNL     1      -3.947   1.680  24.680  0.00  0.00    +0.018 A 
ATOM      8  C   UNL     1      -4.600   1.244  24.931  0.00  0.00    +0.003 A 
ATOM      9  C   UNL     1      -5.209   1.615  25.346  0.00  0.00    +0.015 A 
BRANCH   4   2
ATOM      1  C   UNL     1      -5.911   3.601  25.819  0.00  0.00    +0.112 C 
ATOM      2  N   UNL     1      -5.774   2.794  25.923  0.00  0.00    -0.304 N 
ATOM      3  C   UNL     1      -6.247   2.359  26.440  0.00  0.00    +0.112 C 
ENDBRANCH   4   2
ENDBRANCH  10   7
ENDBRANCH  16  15
BRANCH  20  24
ATOM     24  O   UNL     1       1.793   0.108  22.819  0.00  0.00    -0.432 OA
BRANCH  24  25
ATOM     25  C   UNL     1       2.578   0.228  23.043  0.00  0.00    +0.425 C 
ATOM     26  O   UNL     1       2.804   0.945  23.383  0.00  0.00    -0.224 OA
ATOM     27  N   UNL     1       3.136  -0.367  22.926  0.00  0.00    -0.142 NA
BRANCH  27  28
ATOM     28  C   UNL     1       3.921  -0.247  23.150  0.00  0.00    +0.077 A 
ATOM     29  C   UNL     1       4.359   0.364  22.809  0.00  0.00    +0.016 A 
ATOM     30  C   UNL     1       5.143   0.484  23.032  0.00  0.00    -0.003 A 
ATOM     31  C   UNL     1       5.491  -0.007  23.597  0.00  0.00    -0.022 A 
ATOM     32  C   UNL     1       6.275   0.113  23.821  0.00  0.00    +0.031 C 
ATOM     33  C   UNL     1       5.054  -0.618  23.939  0.00  0.00    -0.003 A 
ATOM     34  C   UNL     1       4.269  -0.737  23.714  0.00  0.00    +0.016 A 
ENDBRANCH  27  28
ENDBRANCH  24  25
ENDBRANCH  20  24
TORSDOF 6
ENDMDL
MODEL 2
REMARK VINA RESULT:      -8.4      1.419      7.744
REMARK  Name = 
REMARK  6 active torsions:
REMARK  status: ('A' for Active; 'I' for Inactive)
REMARK    1  A    between atoms: N_2  and  C_4
REMARK    2  A    between atoms: C_7  and  C_10
REMARK    3  A    between atoms: N_15  and  C_16
REMARK    4  A    between atoms: C_20  and  O_24
REMARK    5  A    between atoms: O_24  and  C_25
REMARK    6  A    between atoms: N_27  and  C_28
REMARK                            x       y       z     vdW  Elec       q    Type
REMARK                         _______ _______ _______ _____ _____    ______ ____
ROOT
ATOM     16  C   UNL     1      -0.261   0.748  23.726  0.00  0.00    +0.155 C 
ATOM     17  C   UNL     1      -0.634   1.033  23.048  0.00  0.00    +0.166 C 
ATOM     18  O   UNL     1      -1.446   0.923  23.140  0.00  0.00    -0.348 OA
ATOM     19  C   UNL     1      -1.575   0.570  23.874  0.00  0.00    +0.186 C 
ATOM     20  C   UNL     1      -2.156   0.284  24.385  0.00  0.00    +0.229 C 
ATOM     21  C   UNL     1      -1.782  -0.002  25.063  0.00  0.00    +0.188 C 
ATOM     22  O   UNL     1      -0.970   0.108  24.971  0.00  0.00    -0.348 OA
ATOM     23  C   UNL     1      -0.842   0.462  24.236  0.00  0.00    +0.168 C 
ENDROOT
BRANCH  16  15
ATOM     10  C   UNL     1       2.399   0.113  22.893  0.00  0.00    +0.086 A 
ATOM     11  C   UNL     1       2.103  -0.207  22.192  0.00  0.00    +0.040 A 
ATOM     12  C   UNL     1       1.290  -0.207  22.050  0.00  0.00    +0.103 A 
ATOM     13  N   UNL     1       0.773   0.111  22.608  0.00  0.00    -0.211 NA
ATOM     14  C   UNL     1       1.070   0.430  23.310  0.00  0.00    +0.237 A 
ATOM     15  N   UNL     1       0.552   0.749  23.868  0.00  0.00    -0.200 NA
ATOM     35  N   UNL     1       1.882   0.431  23.451  0.00  0.00    -0.212 NA
BRANCH  10   7
ATOM      4  C   UNL     1       4.837   0.114  23.319  0.00  0.00    +0.048 A 
ATOM      5  C   UNL     1       4.476   0.776  22.984  0.00  0.00    +0.015 A 
ATOM      6  C   UNL     1       3.664   0.776  22.842  0.00  0.00    +0.003 A 
ATOM      7  C   UNL     1       3.211   0.113  23.035  0.00  0.00    +0.018 A 
ATOM      8  C   UNL     1       3.572  -0.549  23.370  0.00  0.00    +0.003 A 
ATOM      9  C   UNL     1       4.385  -0.549  23.512  0.00  0.00    +0.015 A 
BRANCH   4   2
ATOM      1  C   UNL     1       5.948   0.465  24.146  0.00  0.00    +0.112 C 
ATOM      2  N   UNL     1       5.649   0.114  23.461  0.00  0.00    -0.304 N 
ATOM      3  C   UNL     1       6.164  -0.235  22.919  0.00  0.00    +0.112 C 
ENDBRANCH   4   2
ENDBRANCH  10   7
ENDBRANCH  16  15
BRANCH  20  24
ATOM     24  O   UNL     1      -2.969   0.283  24.243  0.00  0.00    -0.432 OA
BRANCH  24  25
ATOM     25  C   UNL     1      -3.458   0.814  24.642  0.00  0.00    +0.425 C 
ATOM     26  O   UNL     1      -3.392   0.901  25.460  0.00  0.00    -0.224 OA
ATOM     27  N   UNL     1      -4.014   1.257  24.224  0.00  0.00    -0.142 NA
BRANCH  27  28
ATOM     28  C   UNL     1      -4.504   1.788  24.624  0.00  0.00    +0.077 A 
ATOM     29  C   UNL     1      -5.202   1.523  24.972  0.00  0.00    +0.016 A 
ATOM     30  C   UNL     1      -5.691   2.053  25.371  0.00  0.00    -0.003 A 
ATOM     31  C   UNL     1      -5.482   2.850  25.422  0.00  0.00    -0.022 A 
ATOM     32  C   UNL     1      -5.970   3.380  25.821  0.00  0.00    +0.031 C 
ATOM     33  C   UNL     1      -4.783   3.115  25.073  0.00  0.00    -0.003 A 
ATOM     34  C   UNL     1      -4.294   2.584  24.674  0.00  0.00    +0.016 A 
ENDBRANCH  27  28
ENDBRANCH  24  25
ENDBRANCH  20  24
TORSDOF 6
ENDMDL
