REMARK  Name = 
REMARK  6 active torsions:
REMARK  status: ('A' for Active; 'I' for Inactive)
REMARK    1  A    between atoms: C_2  and  N_3
REMARK    2  A    between atoms: N_6  and  C_7
REMARK    3  A    between atoms: C_7  and  C_8
REMARK    4  A    between atoms: C_10  and  C_11
REMARK    5  A    between atoms: C_11  and  C_12
REMARK    6  A    between atoms: C_15  and  C_17
REMARK                            x       y       z     vdW  Elec       q    Type
REMARK                         _______ _______ _______ _____ _____    ______ ____
ROOT
ATOM      8  C   UNL     1       0.560  -6.947   0.000  0.00  0.00    +0.167 C 
ATOM      9  O   UNL     1       1.275  -6.534   0.000  0.00  0.00    -0.354 OA
ATOM     10  C   UNL     1       1.989  -6.947   0.000  0.00  0.00    +0.121 C 
ATOM     24  C   UNL     1       1.989  -7.772   0.000  0.00  0.00    +0.033 C 
ATOM     25  C   UNL     1       1.275  -8.184   0.000  0.00  0.00    +0.038 C 
ATOM     26  C   UNL     1       0.560  -7.772   0.000  0.00  0.00    +0.181 C 
ATOM     27  O   UNL     1      -0.154  -8.184   0.000  0.00  0.00    -0.220 OA
ENDROOT
BRANCH   8   7
ATOM      7  C   UNL     1      -0.154  -6.534   0.000  0.00  0.00    +0.149 C 
BRANCH   7   6
ATOM      3  N   UNL     1      -2.298  -6.947   0.000  0.00  0.00    -0.187 NA
ATOM      4  C   UNL     1      -1.583  -6.534   0.000  0.00  0.00    +0.339 C 
ATOM      5  O   UNL     1      -1.583  -5.709   0.000  0.00  0.00    -0.249 OA
ATOM      6  N   UNL     1      -0.869  -6.947   0.000  0.00  0.00    -0.185 NA
BRANCH   3   2
ATOM      1  C   UNL     1      -3.727  -6.947   0.000  0.00  0.00    +0.025 C 
ATOM      2  C   UNL     1      -3.012  -6.534   0.000  0.00  0.00    +0.117 C 
ENDBRANCH   3   2
ENDBRANCH   7   6
ENDBRANCH   8   7
BRANCH  10  11
ATOM     11  C   UNL     1       2.704  -6.534   0.000  0.00  0.00    +0.079 C 
BRANCH  11  12
ATOM     12  C   UNL     1       2.704  -5.709   0.000  0.00  0.00    +0.103 A 
ATOM     13  N   UNL     1       2.036  -5.224   0.000  0.00  0.00    -0.081 NA
ATOM     14  O   UNL     1       2.291  -4.440   0.000  0.00  0.00    -0.354 OA
ATOM     15  C   UNL     1       3.116  -4.440   0.000  0.00  0.00    +0.177 A 
ATOM     16  C   UNL     1       3.371  -5.224   0.000  0.00  0.00    +0.058 A 
BRANCH  15  17
ATOM     17  C   UNL     1       3.601  -3.772   0.000  0.00  0.00    +0.037 A 
ATOM     18  C   UNL     1       3.265  -3.018   0.000  0.00  0.00    +0.005 A 
ATOM     19  C   UNL     1       3.750  -2.351   0.000  0.00  0.00    +0.030 A 
ATOM     20  C   UNL     1       4.571  -2.437   0.000  0.00  0.00    +0.140 A 
ATOM     21  F   UNL     1       5.056  -1.770   0.000  0.00  0.00    -0.204 F 
ATOM     22  C   UNL     1       4.906  -3.191   0.000  0.00  0.00    +0.030 A 
ATOM     23  C   UNL     1       4.421  -3.858   0.000  0.00  0.00    +0.005 A 
ENDBRANCH  15  17
ENDBRANCH  11  12
ENDBRANCH  10  11
TORSDOF 6
