MODEL 1
REMARK VINA RESULT:     -10.0      0.000      0.000
REMARK  Name = 
REMARK  9 active torsions:
REMARK  status: ('A' for Active; 'I' for Inactive)
REMARK    1  A    between atoms: C_2  and  C_3
REMARK    2  A    between atoms: N_5  and  C_6
REMARK    3  A    between atoms: C_6  and  C_7
REMARK    4  A    between atoms: C_11  and  O_12
REMARK    5  A    between atoms: C_18  and  C_19
REMARK    6  A    between atoms: C_19  and  C_20
REMARK    7  A    between atoms: N_22  and  C_24
REMARK    8  A    between atoms: C_24  and  C_25
REMARK    9  A    between atoms: C_25  and  C_26
REMARK                            x       y       z     vdW  Elec       q    Type
REMARK                         _______ _______ _______ _____ _____    ______ ____
ROOT
ATOM      3  C   UNL     1      -4.906   1.682  25.183  0.00  0.00    +0.017 C 
ATOM      4  C   UNL     1      -5.036   0.884  25.021  0.00  0.00    +0.072 C 
ATOM      5  N   UNL     1      -4.491   0.459  24.571  0.00  0.00    -0.269 NA
ATOM     16  C   UNL     1      -3.815   0.832  24.283  0.00  0.00    +0.072 C 
ATOM     17  C   UNL     1      -3.683   1.631  24.444  0.00  0.00    +0.018 C 
ATOM     18  C   UNL     1      -4.228   2.055  24.894  0.00  0.00    +0.012 C 
ENDROOT
BRANCH   3   2
ATOM      1  C   UNL     1      -6.193   1.784  25.795  0.00  0.00    +0.000 C 
ATOM      2  C   UNL     1      -5.450   2.106  25.633  0.00  0.00    +0.001 C 
ENDBRANCH   3   2
BRANCH   5   6
ATOM      6  C   UNL     1      -4.622  -0.339  24.410  0.00  0.00    +0.102 C 
BRANCH   6   7
ATOM      7  C   UNL     1      -4.038  -0.897  24.583  0.00  0.00    +0.033 A 
ATOM      8  C   UNL     1      -3.926  -1.544  24.084  0.00  0.00    +0.196 A 
ATOM      9  O   UNL     1      -4.396  -1.635  23.412  0.00  0.00    -0.287 OA
ATOM     10  C   UNL     1      -3.343  -2.101  24.257  0.00  0.00    +0.079 A 
ATOM     11  C   UNL     1      -2.872  -2.011  24.929  0.00  0.00    +0.142 A 
ATOM     14  C   UNL     1      -2.985  -1.364  25.427  0.00  0.00    +0.037 A 
ATOM     15  C   UNL     1      -3.568  -0.806  25.254  0.00  0.00    +0.003 A 
BRANCH  11  12
ATOM     12  O   UNL     1      -2.289  -2.568  25.102  0.00  0.00    -0.471 OA
ATOM     13  C   UNL     1      -1.498  -2.401  24.940  0.00  0.00    +0.252 C 
ENDBRANCH  11  12
ENDBRANCH   6   7
ENDBRANCH   5   6
BRANCH  18  19
ATOM     19  C   UNL     1      -4.097   2.854  25.056  0.00  0.00    +0.085 C 
BRANCH  19  20
ATOM     20  C   UNL     1      -3.437   3.235  24.740  0.00  0.00    +0.226 C 
ATOM     21  O   UNL     1      -3.187   3.060  23.973  0.00  0.00    -0.275 OA
ATOM     22  N   UNL     1      -3.028   3.792  25.191  0.00  0.00    -0.277 N 
ATOM     23  C   UNL     1      -3.278   3.967  25.956  0.00  0.00    +0.115 C 
BRANCH  22  24
ATOM     24  C   UNL     1      -2.368   4.174  24.874  0.00  0.00    +0.110 C 
BRANCH  24  25
ATOM     25  C   UNL     1      -1.897   4.650  25.357  0.00  0.00    +0.127 C 
BRANCH  25  26
ATOM     26  C   UNL     1      -1.213   4.997  25.051  0.00  0.00    +0.075 C 
ATOM     27  N   UNL     1      -0.530   5.344  24.746  0.00  0.00    -0.196 NA
ENDBRANCH  25  26
ENDBRANCH  24  25
ENDBRANCH  22  24
ENDBRANCH  19  20
ENDBRANCH  18  19
TORSDOF 9
ENDMDL
MODEL 2
REMARK VINA RESULT:      -8.8      2.480      4.482
REMARK  Name = 
REMARK  9 active torsions:
REMARK  status: ('A' for Active; 'I' for Inactive)
REMARK    1  A    between atoms: C_2  and  C_3
REMARK    2  A    between atoms: N_5  and  C_6
REMARK    3  A    between atoms: C_6  and  C_7
REMARK    4  A    between atoms: C_11  and  O_12
REMARK    5  A    between atoms: C_18  and  C_19
REMARK    6  A    between atoms: C_19  and  C_20
REMARK    7  A    between atoms: N_22  and  C_24
REMARK    8  A    between atoms: C_24  and  C_25
REMARK    9  A    between atoms: C_25  and  C_26
REMARK                            x       y       z     vdW  Elec       q    Type
REMARK                         _______ _______ _______ _____ _____    ______ ____
ROOT
ATOM      3  C   UNL     1      -2.893  -0.140  25.026  0.00  0.00    +0.017 C 
ATOM      4  C   UNL     1      -3.657   0.160  24.952  0.00  0.00    +0.072 C 
ATOM      5  N   UNL     1      -3.818   0.748  24.396  0.00  0.00    -0.269 NA
ATOM     16  C   UNL     1      -3.214   1.036  23.915  0.00  0.00    +0.072 C 
ATOM     17  C   UNL     1      -2.448   0.736  23.988  0.00  0.00    +0.018 C 
ATOM     18  C   UNL     1      -2.288   0.148  24.544  0.00  0.00    +0.012 C 
ENDROOT
BRANCH   3   2
ATOM      1  C   UNL     1      -3.349  -1.181  25.893  0.00  0.00    +0.000 C 
ATOM      2  C   UNL     1      -2.733  -0.728  25.582  0.00  0.00    +0.001 C 
ENDBRANCH   3   2
BRANCH   5   6
ATOM      6  C   UNL     1      -4.582   1.048  24.322  0.00  0.00    +0.102 C 
BRANCH   6   7
ATOM      7  C   UNL     1      -4.799   1.732  24.732  0.00  0.00    +0.033 A 
ATOM      8  C   UNL     1      -5.536   1.775  25.100  0.00  0.00    +0.196 A 
ATOM      9  O   UNL     1      -6.057   1.137  25.059  0.00  0.00    -0.287 OA
ATOM     10  C   UNL     1      -5.753   2.458  25.509  0.00  0.00    +0.079 A 
ATOM     11  C   UNL     1      -5.232   3.098  25.550  0.00  0.00    +0.142 A 
ATOM     14  C   UNL     1      -4.495   3.053  25.182  0.00  0.00    +0.037 A 
ATOM     15  C   UNL     1      -4.279   2.370  24.773  0.00  0.00    +0.003 A 
BRANCH  11  12
ATOM     12  O   UNL     1      -5.448   3.780  25.959  0.00  0.00    -0.471 OA
ATOM     13  C   UNL     1      -5.638   4.467  25.544  0.00  0.00    +0.252 C 
ENDBRANCH  11  12
ENDBRANCH   6   7
ENDBRANCH   5   6
BRANCH  18  19
ATOM     19  C   UNL     1      -1.523  -0.152  24.618  0.00  0.00    +0.085 C 
BRANCH  19  20
ATOM     20  C   UNL     1      -0.898   0.210  24.219  0.00  0.00    +0.226 C 
ATOM     21  O   UNL     1      -0.909   1.024  24.085  0.00  0.00    -0.275 OA
ATOM     22  N   UNL     1      -0.261  -0.243  23.955  0.00  0.00    -0.277 N 
ATOM     23  C   UNL     1      -0.250  -1.056  24.088  0.00  0.00    +0.115 C 
BRANCH  22  24
ATOM     24  C   UNL     1       0.364   0.118  23.555  0.00  0.00    +0.110 C 
BRANCH  24  25
ATOM     25  C   UNL     1       0.911  -0.342  23.143  0.00  0.00    +0.127 C 
BRANCH  25  26
ATOM     26  C   UNL     1       1.601   0.003  22.849  0.00  0.00    +0.075 C 
ATOM     27  N   UNL     1       2.291   0.347  22.555  0.00  0.00    -0.196 NA
ENDBRANCH  25  26
ENDBRANCH  24  25
ENDBRANCH  22  24
ENDBRANCH  19  20
ENDBRANCH  18  19
TORSDOF 9
ENDMDL
MODEL 3
REMARK VINA RESULT:      -8.8      1.424      4.982
REMARK  Name = 
REMARK  9 active torsions:
REMARK  status: ('A' for Active; 'I' for Inactive)
REMARK    1  A    between atoms: C_2  and  C_3
REMARK    2  A    between atoms: N_5  and  C_6
REMARK    3  A    between atoms: C_6  and  C_7
REMARK    4  A    between atoms: C_11  and  O_12
REMARK    5  A    between atoms: C_18  and  C_19
REMARK    6  A    between atoms: C_19  and  C_20
REMARK    7  A    between atoms: N_22  and  C_24
REMARK    8  A    between atoms: C_24  and  C_25
REMARK    9  A    between atoms: C_25  and  C_26
REMARK                            x       y       z     vdW  Elec       q    Type
REMARK                         _______ _______ _______ _____ _____    ______ ____
ROOT
ATOM      3  C   UNL     1      -4.783   1.252  24.805  0.00  0.00    +0.017 C 
ATOM      4  C   UNL     1      -4.621   2.039  24.620  0.00  0.00    +0.072 C 
ATOM      5  N   UNL     1      -3.971   2.227  24.148  0.00  0.00    -0.269 NA
ATOM     16  C   UNL     1      -3.483   1.628  23.861  0.00  0.00    +0.072 C 
ATOM     17  C   UNL     1      -3.644   0.840  24.046  0.00  0.00    +0.018 C 
ATOM     18  C   UNL     1      -4.294   0.652  24.517  0.00  0.00    +0.012 C 
ENDROOT
BRANCH   3   2
ATOM      1  C   UNL     1      -6.029   1.622  25.399  0.00  0.00    +0.000 C 
ATOM      2  C   UNL     1      -5.432   1.064  25.276  0.00  0.00    +0.001 C 
ENDBRANCH   3   2
BRANCH   5   6
ATOM      6  C   UNL     1      -3.810   3.014  23.963  0.00  0.00    +0.102 C 
BRANCH   6   7
ATOM      7  C   UNL     1      -3.190   3.408  24.341  0.00  0.00    +0.033 A 
ATOM      8  C   UNL     1      -3.327   4.134  24.710  0.00  0.00    +0.196 A 
ATOM      9  O   UNL     1      -4.082   4.466  24.703  0.00  0.00    -0.287 OA
ATOM     10  C   UNL     1      -2.707   4.527  25.087  0.00  0.00    +0.079 A 
ATOM     11  C   UNL     1      -1.951   4.195  25.096  0.00  0.00    +0.142 A 
ATOM     14  C   UNL     1      -1.816   3.470  24.726  0.00  0.00    +0.037 A 
ATOM     15  C   UNL     1      -2.435   3.077  24.349  0.00  0.00    +0.003 A 
BRANCH  11  12
ATOM     12  O   UNL     1      -1.333   4.588  25.472  0.00  0.00    -0.471 OA
ATOM     13  C   UNL     1      -0.740   4.949  25.026  0.00  0.00    +0.252 C 
ENDBRANCH  11  12
ENDBRANCH   6   7
ENDBRANCH   5   6
BRANCH  18  19
ATOM     19  C   UNL     1      -4.456  -0.135  24.703  0.00  0.00    +0.085 C 
BRANCH  19  20
ATOM     20  C   UNL     1      -3.848  -0.632  24.960  0.00  0.00    +0.226 C 
ATOM     21  O   UNL     1      -3.299  -0.359  25.512  0.00  0.00    -0.275 OA
ATOM     22  N   UNL     1      -3.791  -1.400  24.666  0.00  0.00    -0.277 N 
ATOM     23  C   UNL     1      -4.340  -1.672  24.115  0.00  0.00    +0.115 C 
BRANCH  22  24
ATOM     24  C   UNL     1      -3.184  -1.896  24.924  0.00  0.00    +0.110 C 
BRANCH  24  25
ATOM     25  C   UNL     1      -2.909  -2.499  24.433  0.00  0.00    +0.127 C 
BRANCH  25  26
ATOM     26  C   UNL     1      -2.108  -2.700  24.436  0.00  0.00    +0.075 C 
ATOM     27  N   UNL     1      -1.307  -2.900  24.439  0.00  0.00    -0.196 NA
ENDBRANCH  25  26
ENDBRANCH  24  25
ENDBRANCH  22  24
ENDBRANCH  19  20
ENDBRANCH  18  19
TORSDOF 9
ENDMDL
MODEL 4
REMARK VINA RESULT:      -8.8      2.298      3.278
REMARK  Name = 
REMARK  9 active torsions:
REMARK  status: ('A' for Active; 'I' for Inactive)
REMARK    1  A    between atoms: C_2  and  C_3
REMARK    2  A    between atoms: N_5  and  C_6
REMARK    3  A    between atoms: C_6  and  C_7
REMARK    4  A    between atoms: C_11  and  O_12
REMARK    5  A    between atoms: C_18  and  C_19
REMARK    6  A    between atoms: C_19  and  C_20
REMARK    7  A    between atoms: N_22  and  C_24
REMARK    8  A    between atoms: C_24  and  C_25
REMARK    9  A    between atoms: C_25  and  C_26
REMARK                            x       y       z     vdW  Elec       q    Type
REMARK                         _______ _______ _______ _____ _____    ______ ____
ROOT
ATOM      3  C   UNL     1      -0.352   0.311  24.246  0.00  0.00    +0.017 C 
ATOM      4  C   UNL     1      -0.567  -0.464  24.432  0.00  0.00    +0.072 C 
ATOM      5  N   UNL     1      -1.017  -0.616  25.107  0.00  0.00    -0.269 NA
ATOM     16  C   UNL     1      -1.250   0.005  25.596  0.00  0.00    +0.072 C 
ATOM     17  C   UNL     1      -1.035   0.780  25.411  0.00  0.00    +0.018 C 
ATOM     18  C   UNL     1      -0.586   0.933  24.736  0.00  0.00    +0.012 C 
ENDROOT
BRANCH   3   2
ATOM      1  C   UNL     1       0.572  -0.130  23.249  0.00  0.00    +0.000 C 
ATOM      2  C   UNL     1       0.097   0.463  23.572  0.00  0.00    +0.001 C 
ENDBRANCH   3   2
BRANCH   5   6
ATOM      6  C   UNL     1      -1.232  -1.390  25.292  0.00  0.00    +0.102 C 
BRANCH   6   7
ATOM      7  C   UNL     1      -1.960  -1.688  25.039  0.00  0.00    +0.033 A 
ATOM      8  C   UNL     1      -1.993  -2.409  24.639  0.00  0.00    +0.196 A 
ATOM      9  O   UNL     1      -1.300  -2.832  24.491  0.00  0.00    -0.287 OA
ATOM     10  C   UNL     1      -2.719  -2.706  24.386  0.00  0.00    +0.079 A 
ATOM     11  C   UNL     1      -3.413  -2.283  24.533  0.00  0.00    +0.142 A 
ATOM     14  C   UNL     1      -3.378  -1.563  24.934  0.00  0.00    +0.037 A 
ATOM     15  C   UNL     1      -2.652  -1.265  25.187  0.00  0.00    +0.003 A 
BRANCH  11  12
ATOM     12  O   UNL     1      -4.139  -2.581  24.281  0.00  0.00    -0.471 OA
ATOM     13  C   UNL     1      -4.559  -2.194  23.685  0.00  0.00    +0.252 C 
ENDBRANCH  11  12
ENDBRANCH   6   7
ENDBRANCH   5   6
BRANCH  18  19
ATOM     19  C   UNL     1      -0.370   1.707  24.550  0.00  0.00    +0.085 C 
BRANCH  19  20
ATOM     20  C   UNL     1      -0.902   2.325  24.677  0.00  0.00    +0.226 C 
ATOM     21  O   UNL     1      -1.714   2.179  24.665  0.00  0.00    -0.275 OA
ATOM     22  N   UNL     1      -0.622   3.088  24.817  0.00  0.00    -0.277 N 
ATOM     23  C   UNL     1       0.189   3.233  24.829  0.00  0.00    +0.115 C 
BRANCH  22  24
ATOM     24  C   UNL     1      -1.154   3.706  24.944  0.00  0.00    +0.110 C 
BRANCH  24  25
ATOM     25  C   UNL     1      -0.876   4.478  25.032  0.00  0.00    +0.127 C 
BRANCH  25  26
ATOM     26  C   UNL     1      -1.410   5.101  25.118  0.00  0.00    +0.075 C 
ATOM     27  N   UNL     1      -1.944   5.724  25.205  0.00  0.00    -0.196 NA
ENDBRANCH  25  26
ENDBRANCH  24  25
ENDBRANCH  22  24
ENDBRANCH  19  20
ENDBRANCH  18  19
TORSDOF 9
ENDMDL
MODEL 5
REMARK VINA RESULT:      -8.6      2.220      3.487
REMARK  Name = 
REMARK  9 active torsions:
REMARK  status: ('A' for Active; 'I' for Inactive)
REMARK    1  A    between atoms: C_2  and  C_3
REMARK    2  A    between atoms: N_5  and  C_6
REMARK    3  A    between atoms: C_6  and  C_7
REMARK    4  A    between atoms: C_11  and  O_12
REMARK    5  A    between atoms: C_18  and  C_19
REMARK    6  A    between atoms: C_19  and  C_20
REMARK    7  A    between atoms: N_22  and  C_24
REMARK    8  A    between atoms: C_24  and  C_25
REMARK    9  A    between atoms: C_25  and  C_26
REMARK                            x       y       z     vdW  Elec       q    Type
REMARK                         _______ _______ _______ _____ _____    ______ ____
ROOT
ATOM      3  C   UNL     1      -3.493  -0.459  24.616  0.00  0.00    +0.017 C 
ATOM      4  C   UNL     1      -2.731  -0.756  24.724  0.00  0.00    +0.072 C 
ATOM      5  N   UNL     1      -2.147  -0.280  25.061  0.00  0.00    -0.269 NA
ATOM     16  C   UNL     1      -2.325   0.492  25.289  0.00  0.00    +0.072 C 
ATOM     17  C   UNL     1      -3.087   0.790  25.180  0.00  0.00    +0.018 C 
ATOM     18  C   UNL     1      -3.671   0.314  24.844  0.00  0.00    +0.012 C 
ENDROOT
BRANCH   3   2
ATOM      1  C   UNL     1      -3.964  -1.750  24.224  0.00  0.00    +0.000 C 
ATOM      2  C   UNL     1      -4.077  -0.934  24.280  0.00  0.00    +0.001 C 
ENDBRANCH   3   2
BRANCH   5   6
ATOM      6  C   UNL     1      -1.386  -0.577  25.169  0.00  0.00    +0.102 C 
BRANCH   6   7
ATOM      7  C   UNL     1      -0.806  -0.446  24.596  0.00  0.00    +0.033 A 
ATOM      8  C   UNL     1      -0.315  -1.064  24.357  0.00  0.00    +0.196 A 
ATOM      9  O   UNL     1      -0.402  -1.814  24.690  0.00  0.00    -0.287 OA
ATOM     10  C   UNL     1       0.265  -0.932  23.784  0.00  0.00    +0.079 A 
ATOM     11  C   UNL     1       0.353  -0.182  23.451  0.00  0.00    +0.142 A 
ATOM     14  C   UNL     1      -0.139   0.435  23.691  0.00  0.00    +0.037 A 
ATOM     15  C   UNL     1      -0.718   0.304  24.263  0.00  0.00    +0.003 A 
BRANCH  11  12
ATOM     12  O   UNL     1       0.931  -0.051  22.879  0.00  0.00    -0.471 OA
ATOM     13  C   UNL     1       1.640   0.317  23.086  0.00  0.00    +0.252 C 
ENDBRANCH  11  12
ENDBRANCH   6   7
ENDBRANCH   5   6
BRANCH  18  19
ATOM     19  C   UNL     1      -4.433   0.611  24.735  0.00  0.00    +0.085 C 
BRANCH  19  20
ATOM     20  C   UNL     1      -4.555   1.426  24.685  0.00  0.00    +0.226 C 
ATOM     21  O   UNL     1      -4.032   1.895  24.252  0.00  0.00    -0.275 OA
ATOM     22  N   UNL     1      -5.199   1.770  25.067  0.00  0.00    -0.277 N 
ATOM     23  C   UNL     1      -5.722   1.302  25.499  0.00  0.00    +0.115 C 
BRANCH  22  24
ATOM     24  C   UNL     1      -5.321   2.585  25.016  0.00  0.00    +0.110 C 
BRANCH  24  25
ATOM     25  C   UNL     1      -5.791   2.967  25.576  0.00  0.00    +0.127 C 
BRANCH  25  26
ATOM     26  C   UNL     1      -5.809   3.792  25.605  0.00  0.00    +0.075 C 
ATOM     27  N   UNL     1      -5.828   4.616  25.634  0.00  0.00    -0.196 NA
ENDBRANCH  25  26
ENDBRANCH  24  25
ENDBRANCH  22  24
ENDBRANCH  19  20
ENDBRANCH  18  19
TORSDOF 9
ENDMDL
MODEL 6
REMARK VINA RESULT:      -8.3      2.127      5.383
REMARK  Name = 
REMARK  9 active torsions:
REMARK  status: ('A' for Active; 'I' for Inactive)
REMARK    1  A    between atoms: C_2  and  C_3
REMARK    2  A    between atoms: N_5  and  C_6
REMARK    3  A    between atoms: C_6  and  C_7
REMARK    4  A    between atoms: C_11  and  O_12
REMARK    5  A    between atoms: C_18  and  C_19
REMARK    6  A    between atoms: C_19  and  C_20
REMARK    7  A    between atoms: N_22  and  C_24
REMARK    8  A    between atoms: C_24  and  C_25
REMARK    9  A    between atoms: C_25  and  C_26
REMARK                            x       y       z     vdW  Elec       q    Type
REMARK                         _______ _______ _______ _____ _____    ______ ____
ROOT
ATOM      3  C   UNL     1      -0.898   1.944  25.468  0.00  0.00    +0.017 C 
ATOM      4  C   UNL     1      -1.307   2.658  25.405  0.00  0.00    +0.072 C 
ATOM      5  N   UNL     1      -1.981   2.708  24.931  0.00  0.00    -0.269 NA
ATOM     16  C   UNL     1      -2.246   2.043  24.521  0.00  0.00    +0.072 C 
ATOM     17  C   UNL     1      -1.837   1.329  24.583  0.00  0.00    +0.018 C 
ATOM     18  C   UNL     1      -1.164   1.279  25.057  0.00  0.00    +0.012 C 
ENDROOT
BRANCH   3   2
ATOM      1  C   UNL     1       0.117   2.582  26.246  0.00  0.00    +0.000 C 
ATOM      2  C   UNL     1      -0.225   1.895  25.941  0.00  0.00    +0.001 C 
ENDBRANCH   3   2
BRANCH   5   6
ATOM      6  C   UNL     1      -2.389   3.421  24.869  0.00  0.00    +0.102 C 
BRANCH   6   7
ATOM      7  C   UNL     1      -3.193   3.455  25.056  0.00  0.00    +0.033 A 
ATOM      8  C   UNL     1      -3.450   3.917  25.689  0.00  0.00    +0.196 A 
ATOM      9  O   UNL     1      -2.905   4.346  26.136  0.00  0.00    -0.287 OA
ATOM     10  C   UNL     1      -4.253   3.951  25.875  0.00  0.00    +0.079 A 
ATOM     11  C   UNL     1      -4.799   3.521  25.428  0.00  0.00    +0.142 A 
ATOM     14  C   UNL     1      -4.540   3.060  24.796  0.00  0.00    +0.037 A 
ATOM     15  C   UNL     1      -3.738   3.026  24.609  0.00  0.00    +0.003 A 
BRANCH  11  12
ATOM     12  O   UNL     1      -5.601   3.555  25.615  0.00  0.00    -0.471 OA
ATOM     13  C   UNL     1      -6.018   2.860  25.768  0.00  0.00    +0.252 C 
ENDBRANCH  11  12
ENDBRANCH   6   7
ENDBRANCH   5   6
BRANCH  18  19
ATOM     19  C   UNL     1      -0.755   0.566  25.120  0.00  0.00    +0.085 C 
BRANCH  19  20
ATOM     20  C   UNL     1      -1.169  -0.136  25.256  0.00  0.00    +0.226 C 
ATOM     21  O   UNL     1      -1.823  -0.137  25.758  0.00  0.00    -0.275 OA
ATOM     22  N   UNL     1      -0.927  -0.834  24.890  0.00  0.00    -0.277 N 
ATOM     23  C   UNL     1      -0.273  -0.832  24.389  0.00  0.00    +0.115 C 
BRANCH  22  24
ATOM     24  C   UNL     1      -1.340  -1.536  25.027  0.00  0.00    +0.110 C 
BRANCH  24  25
ATOM     25  C   UNL     1      -1.377  -2.113  24.439  0.00  0.00    +0.127 C 
BRANCH  25  26
ATOM     26  C   UNL     1      -2.028  -2.619  24.398  0.00  0.00    +0.075 C 
ATOM     27  N   UNL     1      -2.679  -3.124  24.356  0.00  0.00    -0.196 NA
ENDBRANCH  25  26
ENDBRANCH  24  25
ENDBRANCH  22  24
ENDBRANCH  19  20
ENDBRANCH  18  19
TORSDOF 9
ENDMDL
MODEL 7
REMARK VINA RESULT:      -8.0      2.037      3.600
REMARK  Name = 
REMARK  9 active torsions:
REMARK  status: ('A' for Active; 'I' for Inactive)
REMARK    1  A    between atoms: C_2  and  C_3
REMARK    2  A    between atoms: N_5  and  C_6
REMARK    3  A    between atoms: C_6  and  C_7
REMARK    4  A    between atoms: C_11  and  O_12
REMARK    5  A    between atoms: C_18  and  C_19
REMARK    6  A    between atoms: C_19  and  C_20
REMARK    7  A    between atoms: N_22  and  C_24
REMARK    8  A    between atoms: C_24  and  C_25
REMARK    9  A    between atoms: C_25  and  C_26
REMARK                            x       y       z     vdW  Elec       q    Type
REMARK                         _______ _______ _______ _____ _____    ______ ____
ROOT
ATOM      3  C   UNL     1      -1.450   3.201  24.827  0.00  0.00    +0.017 C 
ATOM      4  C   UNL     1      -0.828   2.682  24.673  0.00  0.00    +0.072 C 
ATOM      5  N   UNL     1      -0.969   1.974  24.274  0.00  0.00    -0.269 NA
ATOM     16  C   UNL     1      -1.733   1.785  24.029  0.00  0.00    +0.072 C 
ATOM     17  C   UNL     1      -2.356   2.303  24.182  0.00  0.00    +0.018 C 
ATOM     18  C   UNL     1      -2.215   3.011  24.581  0.00  0.00    +0.012 C 
ENDROOT
BRANCH   3   2
ATOM      1  C   UNL     1      -0.605   4.321  25.097  0.00  0.00    +0.000 C 
ATOM      2  C   UNL     1      -1.309   3.909  25.225  0.00  0.00    +0.001 C 
ENDBRANCH   3   2
BRANCH   5   6
ATOM      6  C   UNL     1      -0.346   1.456  24.121  0.00  0.00    +0.102 C 
BRANCH   6   7
ATOM      7  C   UNL     1      -0.397   0.668  24.362  0.00  0.00    +0.033 A 
ATOM      8  C   UNL     1      -0.087   0.070  23.884  0.00  0.00    +0.196 A 
ATOM      9  O   UNL     1       0.273   0.260  23.166  0.00  0.00    -0.287 OA
ATOM     10  C   UNL     1      -0.137  -0.717  24.124  0.00  0.00    +0.079 A 
ATOM     11  C   UNL     1      -0.497  -0.908  24.842  0.00  0.00    +0.142 A 
ATOM     14  C   UNL     1      -0.806  -0.310  25.319  0.00  0.00    +0.037 A 
ATOM     15  C   UNL     1      -0.756   0.478  25.079  0.00  0.00    +0.003 A 
BRANCH  11  12
ATOM     12  O   UNL     1      -0.548  -1.694  25.082  0.00  0.00    -0.471 OA
ATOM     13  C   UNL     1      -1.242  -2.121  24.955  0.00  0.00    +0.252 C 
ENDBRANCH  11  12
ENDBRANCH   6   7
ENDBRANCH   5   6
BRANCH  18  19
ATOM     19  C   UNL     1      -2.838   3.530  24.734  0.00  0.00    +0.085 C 
BRANCH  19  20
ATOM     20  C   UNL     1      -3.610   3.318  24.533  0.00  0.00    +0.226 C 
ATOM     21  O   UNL     1      -3.774   3.027  23.779  0.00  0.00    -0.275 OA
ATOM     22  N   UNL     1      -4.216   3.399  25.086  0.00  0.00    -0.277 N 
ATOM     23  C   UNL     1      -4.052   3.690  25.839  0.00  0.00    +0.115 C 
BRANCH  22  24
ATOM     24  C   UNL     1      -4.989   3.187  24.884  0.00  0.00    +0.110 C 
BRANCH  24  25
ATOM     25  C   UNL     1      -5.501   2.899  25.463  0.00  0.00    +0.127 C 
BRANCH  25  26
ATOM     26  C   UNL     1      -6.073   2.337  25.265  0.00  0.00    +0.075 C 
ATOM     27  N   UNL     1      -6.644   1.776  25.067  0.00  0.00    -0.196 NA
ENDBRANCH  25  26
ENDBRANCH  24  25
ENDBRANCH  22  24
ENDBRANCH  19  20
ENDBRANCH  18  19
TORSDOF 9
ENDMDL
MODEL 8
REMARK VINA RESULT:      -8.0      2.438      5.949
REMARK  Name = 
REMARK  9 active torsions:
REMARK  status: ('A' for Active; 'I' for Inactive)
REMARK    1  A    between atoms: C_2  and  C_3
REMARK    2  A    between atoms: N_5  and  C_6
REMARK    3  A    between atoms: C_6  and  C_7
REMARK    4  A    between atoms: C_11  and  O_12
REMARK    5  A    between atoms: C_18  and  C_19
REMARK    6  A    between atoms: C_19  and  C_20
REMARK    7  A    between atoms: N_22  and  C_24
REMARK    8  A    between atoms: C_24  and  C_25
REMARK    9  A    between atoms: C_25  and  C_26
REMARK                            x       y       z     vdW  Elec       q    Type
REMARK                         _______ _______ _______ _____ _____    ______ ____
ROOT
ATOM      3  C   UNL     1      -0.259   0.482  24.252  0.00  0.00    +0.017 C 
ATOM      4  C   UNL     1      -0.019   1.255  24.412  0.00  0.00    +0.072 C 
ATOM      5  N   UNL     1      -0.278   1.634  25.097  0.00  0.00    -0.269 NA
ATOM     16  C   UNL     1      -0.778   1.241  25.622  0.00  0.00    +0.072 C 
ATOM     17  C   UNL     1      -1.020   0.468  25.462  0.00  0.00    +0.018 C 
ATOM     18  C   UNL     1      -0.760   0.089  24.777  0.00  0.00    +0.012 C 
ENDROOT
BRANCH   3   2
ATOM      1  C   UNL     1       0.706   0.335  23.209  0.00  0.00    +0.000 C 
ATOM      2  C   UNL     1       0.000   0.103  23.567  0.00  0.00    +0.001 C 
ENDBRANCH   3   2
BRANCH   5   6
ATOM      6  C   UNL     1      -0.037   2.406  25.257  0.00  0.00    +0.102 C 
BRANCH   6   7
ATOM      7  C   UNL     1      -0.600   3.005  25.342  0.00  0.00    +0.033 A 
ATOM      8  C   UNL     1      -0.584   3.660  24.841  0.00  0.00    +0.196 A 
ATOM      9  O   UNL     1      -0.008   3.718  24.253  0.00  0.00    -0.287 OA
ATOM     10  C   UNL     1      -1.146   4.258  24.927  0.00  0.00    +0.079 A 
ATOM     11  C   UNL     1      -1.724   4.200  25.514  0.00  0.00    +0.142 A 
ATOM     14  C   UNL     1      -1.738   3.545  26.015  0.00  0.00    +0.037 A 
ATOM     15  C   UNL     1      -1.176   2.947  25.929  0.00  0.00    +0.003 A 
BRANCH  11  12
ATOM     12  O   UNL     1      -2.285   4.798  25.600  0.00  0.00    -0.471 OA
ATOM     13  C   UNL     1      -3.036   4.620  25.893  0.00  0.00    +0.252 C 
ENDBRANCH  11  12
ENDBRANCH   6   7
ENDBRANCH   5   6
BRANCH  18  19
ATOM     19  C   UNL     1      -1.001  -0.684  24.617  0.00  0.00    +0.085 C 
BRANCH  19  20
ATOM     20  C   UNL     1      -1.801  -0.883  24.656  0.00  0.00    +0.226 C 
ATOM     21  O   UNL     1      -2.373  -0.289  24.676  0.00  0.00    -0.275 OA
ATOM     22  N   UNL     1      -2.028  -1.675  24.673  0.00  0.00    -0.277 N 
ATOM     23  C   UNL     1      -1.456  -2.269  24.653  0.00  0.00    +0.115 C 
BRANCH  22  24
ATOM     24  C   UNL     1      -2.828  -1.874  24.712  0.00  0.00    +0.110 C 
BRANCH  24  25
ATOM     25  C   UNL     1      -3.081  -2.618  24.459  0.00  0.00    +0.127 C 
BRANCH  25  26
ATOM     26  C   UNL     1      -3.840  -2.711  24.148  0.00  0.00    +0.075 C 
ATOM     27  N   UNL     1      -4.598  -2.805  23.837  0.00  0.00    -0.196 NA
ENDBRANCH  25  26
ENDBRANCH  24  25
ENDBRANCH  22  24
ENDBRANCH  19  20
ENDBRANCH  18  19
TORSDOF 9
ENDMDL
MODEL 9
REMARK VINA RESULT:      -8.0      2.615      4.513
REMARK  Name = 
REMARK  9 active torsions:
REMARK  status: ('A' for Active; 'I' for Inactive)
REMARK    1  A    between atoms: C_2  and  C_3
REMARK    2  A    between atoms: N_5  and  C_6
REMARK    3  A    between atoms: C_6  and  C_7
REMARK    4  A    between atoms: C_11  and  O_12
REMARK    5  A    between atoms: C_18  and  C_19
REMARK    6  A    between atoms: C_19  and  C_20
REMARK    7  A    between atoms: N_22  and  C_24
REMARK    8  A    between atoms: C_24  and  C_25
REMARK    9  A    between atoms: C_25  and  C_26
REMARK                            x       y       z     vdW  Elec       q    Type
REMARK                         _______ _______ _______ _____ _____    ______ ____
ROOT
ATOM      3  C   UNL     1      -1.970   3.239  24.785  0.00  0.00    +0.017 C 
ATOM      4  C   UNL     1      -2.748   3.514  24.773  0.00  0.00    +0.072 C 
ATOM      5  N   UNL     1      -3.320   3.117  24.330  0.00  0.00    -0.269 NA
ATOM     16  C   UNL     1      -3.114   2.446  23.898  0.00  0.00    +0.072 C 
ATOM     17  C   UNL     1      -2.336   2.170  23.908  0.00  0.00    +0.018 C 
ATOM     18  C   UNL     1      -1.764   2.566  24.352  0.00  0.00    +0.012 C 
ENDROOT
BRANCH   3   2
ATOM      1  C   UNL     1      -1.491   4.438  25.396  0.00  0.00    +0.000 C 
ATOM      2  C   UNL     1      -1.399   3.635  25.228  0.00  0.00    +0.001 C 
ENDBRANCH   3   2
BRANCH   5   6
ATOM      6  C   UNL     1      -4.096   3.393  24.319  0.00  0.00    +0.102 C 
BRANCH   6   7
ATOM      7  C   UNL     1      -4.686   2.983  24.728  0.00  0.00    +0.033 A 
ATOM      8  C   UNL     1      -5.164   3.381  25.270  0.00  0.00    +0.196 A 
ATOM      9  O   UNL     1      -5.054   4.188  25.404  0.00  0.00    -0.287 OA
ATOM     10  C   UNL     1      -5.752   2.971  25.678  0.00  0.00    +0.079 A 
ATOM     11  C   UNL     1      -5.862   2.164  25.545  0.00  0.00    +0.142 A 
ATOM     14  C   UNL     1      -5.384   1.768  25.002  0.00  0.00    +0.037 A 
ATOM     15  C   UNL     1      -4.795   2.177  24.594  0.00  0.00    +0.003 A 
BRANCH  11  12
ATOM     12  O   UNL     1      -6.450   1.755  25.953  0.00  0.00    -0.471 OA
ATOM     13  C   UNL     1      -6.320   1.512  26.730  0.00  0.00    +0.252 C 
ENDBRANCH  11  12
ENDBRANCH   6   7
ENDBRANCH   5   6
BRANCH  18  19
ATOM     19  C   UNL     1      -0.987   2.292  24.363  0.00  0.00    +0.085 C 
BRANCH  19  20
ATOM     20  C   UNL     1      -0.766   1.659  23.881  0.00  0.00    +0.226 C 
ATOM     21  O   UNL     1      -1.289   1.373  23.311  0.00  0.00    -0.275 OA
ATOM     22  N   UNL     1      -0.023   1.312  23.971  0.00  0.00    -0.277 N 
ATOM     23  C   UNL     1       0.499   1.598  24.541  0.00  0.00    +0.115 C 
BRANCH  22  24
ATOM     24  C   UNL     1       0.198   0.679  23.489  0.00  0.00    +0.110 C 
BRANCH  24  25
ATOM     25  C   UNL     1       0.980   0.417  23.486  0.00  0.00    +0.127 C 
BRANCH  25  26
ATOM     26  C   UNL     1       1.272  -0.000  22.836  0.00  0.00    +0.075 C 
ATOM     27  N   UNL     1       1.565  -0.417  22.187  0.00  0.00    -0.196 NA
ENDBRANCH  25  26
ENDBRANCH  24  25
ENDBRANCH  22  24
ENDBRANCH  19  20
ENDBRANCH  18  19
TORSDOF 9
ENDMDL
