MODEL 1
REMARK VINA RESULT:      -9.9      0.000      0.000
REMARK  Name = 
REMARK  2 active torsions:
REMARK  status: ('A' for Active; 'I' for Inactive)
REMARK    1  A    between atoms: N_11  and  C_12
REMARK    2  A    between atoms: C_12  and  C_13
REMARK                            x       y       z     vdW  Elec       q    Type
REMARK                         _______ _______ _______ _____ _____    ______ ____
ROOT
ATOM      1  C   UNL     1      -3.967   3.066  23.928  0.00  0.00    +0.095 C 
ATOM      2  C   UNL     1      -4.197   2.336  24.239  0.00  0.00    +0.226 C 
ATOM      3  O   UNL     1      -4.998   2.166  24.338  0.00  0.00    -0.275 OA
ATOM      4  N   UNL     1      -3.627   1.779  24.451  0.00  0.00    -0.275 N 
ATOM      5  C   UNL     1      -2.809   1.873  24.384  0.00  0.00    +0.125 C 
ATOM      6  C   UNL     1      -2.451   1.182  24.658  0.00  0.00    +0.155 C 
ATOM      7  O   UNL     1      -1.660   0.959  24.724  0.00  0.00    -0.343 OA
ATOM      8  C   UNL     1      -1.463   0.217  25.025  0.00  0.00    +0.227 C 
ATOM      9  C   UNL     1      -2.059  -0.303  25.261  0.00  0.00    +0.256 C 
ATOM     10  O   UNL     1      -1.863  -1.046  25.563  0.00  0.00    -0.272 OA
ATOM     11  N   UNL     1      -2.851  -0.081  25.196  0.00  0.00    -0.271 N 
ATOM     19  C   UNL     1      -3.047   0.663  24.894  0.00  0.00    +0.124 C 
ATOM     20  C   UNL     1      -3.773   1.031  24.766  0.00  0.00    +0.116 C 
ENDROOT
BRANCH  11  12
ATOM     12  C   UNL     1      -3.446  -0.600  25.432  0.00  0.00    +0.120 C 
BRANCH  12  13
ATOM     13  C   UNL     1      -3.631  -1.255  24.965  0.00  0.00    +0.001 A 
ATOM     14  C   UNL     1      -3.374  -2.006  25.188  0.00  0.00    +0.018 A 
ATOM     15  C   UNL     1      -3.558  -2.661  24.722  0.00  0.00    +0.099 A 
ATOM     16  N   UNL     1      -4.000  -2.564  24.031  0.00  0.00    -0.242 NA
ATOM     17  C   UNL     1      -4.258  -1.812  23.808  0.00  0.00    +0.099 A 
ATOM     18  C   UNL     1      -4.072  -1.158  24.275  0.00  0.00    +0.018 A 
ENDBRANCH  12  13
ENDBRANCH  11  12
TORSDOF 2
ENDMDL
MODEL 2
REMARK VINA RESULT:      -9.7      1.758      3.026
REMARK  Name = 
REMARK  2 active torsions:
REMARK  status: ('A' for Active; 'I' for Inactive)
REMARK    1  A    between atoms: N_11  and  C_12
REMARK    2  A    between atoms: C_12  and  C_13
REMARK                            x       y       z     vdW  Elec       q    Type
REMARK                         _______ _______ _______ _____ _____    ______ ____
ROOT
ATOM      1  C   UNL     1      -1.756   4.538  25.428  0.00  0.00    +0.095 C 
ATOM      2  C   UNL     1      -1.972   3.857  25.013  0.00  0.00    +0.226 C 
ATOM      3  O   UNL     1      -1.424   3.485  24.520  0.00  0.00    -0.275 OA
ATOM      4  N   UNL     1      -2.733   3.550  25.090  0.00  0.00    -0.275 N 
ATOM      5  C   UNL     1      -3.336   3.861  25.560  0.00  0.00    +0.125 C 
ATOM      6  C   UNL     1      -4.001   3.381  25.472  0.00  0.00    +0.155 C 
ATOM      7  O   UNL     1      -4.757   3.418  25.801  0.00  0.00    -0.343 OA
ATOM      8  C   UNL     1      -5.320   2.849  25.607  0.00  0.00    +0.227 C 
ATOM      9  C   UNL     1      -5.128   2.241  25.083  0.00  0.00    +0.256 C 
ATOM     10  O   UNL     1      -5.692   1.671  24.888  0.00  0.00    -0.272 OA
ATOM     11  N   UNL     1      -4.373   2.203  24.753  0.00  0.00    -0.271 N 
ATOM     19  C   UNL     1      -3.809   2.774  24.948  0.00  0.00    +0.124 C 
ATOM     20  C   UNL     1      -3.026   2.878  24.712  0.00  0.00    +0.116 C 
ENDROOT
BRANCH  11  12
ATOM     12  C   UNL     1      -4.181   1.595  24.229  0.00  0.00    +0.120 C 
BRANCH  12  13
ATOM     13  C   UNL     1      -3.904   0.874  24.518  0.00  0.00    +0.001 A 
ATOM     14  C   UNL     1      -3.155   0.604  24.301  0.00  0.00    +0.018 A 
ATOM     15  C   UNL     1      -2.876  -0.117  24.590  0.00  0.00    +0.099 A 
ATOM     16  N   UNL     1      -3.347  -0.568  25.096  0.00  0.00    -0.242 NA
ATOM     17  C   UNL     1      -4.096  -0.298  25.313  0.00  0.00    +0.099 A 
ATOM     18  C   UNL     1      -4.374   0.423  25.024  0.00  0.00    +0.018 A 
ENDBRANCH  12  13
ENDBRANCH  11  12
TORSDOF 2
ENDMDL
MODEL 3
REMARK VINA RESULT:      -9.7      1.693      4.407
REMARK  Name = 
REMARK  2 active torsions:
REMARK  status: ('A' for Active; 'I' for Inactive)
REMARK    1  A    between atoms: N_11  and  C_12
REMARK    2  A    between atoms: C_12  and  C_13
REMARK                            x       y       z     vdW  Elec       q    Type
REMARK                         _______ _______ _______ _____ _____    ______ ____
ROOT
ATOM      1  C   UNL     1      -4.064  -0.718  24.378  0.00  0.00    +0.095 C 
ATOM      2  C   UNL     1      -3.791   0.045  24.217  0.00  0.00    +0.226 C 
ATOM      3  O   UNL     1      -3.132   0.154  23.733  0.00  0.00    -0.275 OA
ATOM      4  N   UNL     1      -4.178   0.698  24.541  0.00  0.00    -0.275 N 
ATOM      5  C   UNL     1      -4.841   0.674  25.033  0.00  0.00    +0.125 C 
ATOM      6  C   UNL     1      -5.042   1.450  25.226  0.00  0.00    +0.155 C 
ATOM      7  O   UNL     1      -5.646   1.765  25.692  0.00  0.00    -0.343 OA
ATOM      8  C   UNL     1      -5.712   2.581  25.787  0.00  0.00    +0.227 C 
ATOM      9  C   UNL     1      -5.174   3.084  25.415  0.00  0.00    +0.256 C 
ATOM     10  O   UNL     1      -5.240   3.902  25.509  0.00  0.00    -0.272 OA
ATOM     11  N   UNL     1      -4.570   2.771  24.948  0.00  0.00    -0.271 N 
ATOM     19  C   UNL     1      -4.504   1.953  24.854  0.00  0.00    +0.124 C 
ATOM     20  C   UNL     1      -3.970   1.489  24.431  0.00  0.00    +0.116 C 
ENDROOT
BRANCH  11  12
ATOM     12  C   UNL     1      -4.032   3.274  24.576  0.00  0.00    +0.120 C 
BRANCH  12  13
ATOM     13  C   UNL     1      -3.350   3.514  24.973  0.00  0.00    +0.001 A 
ATOM     14  C   UNL     1      -2.609   3.383  24.635  0.00  0.00    +0.018 A 
ATOM     15  C   UNL     1      -1.926   3.622  25.031  0.00  0.00    +0.099 A 
ATOM     16  N   UNL     1      -1.985   3.993  25.766  0.00  0.00    -0.242 NA
ATOM     17  C   UNL     1      -2.726   4.124  26.105  0.00  0.00    +0.099 A 
ATOM     18  C   UNL     1      -3.408   3.885  25.707  0.00  0.00    +0.018 A 
ENDBRANCH  12  13
ENDBRANCH  11  12
TORSDOF 2
ENDMDL
MODEL 4
REMARK VINA RESULT:      -9.7      1.345      3.466
REMARK  Name = 
REMARK  2 active torsions:
REMARK  status: ('A' for Active; 'I' for Inactive)
REMARK    1  A    between atoms: N_11  and  C_12
REMARK    2  A    between atoms: C_12  and  C_13
REMARK                            x       y       z     vdW  Elec       q    Type
REMARK                         _______ _______ _______ _____ _____    ______ ____
ROOT
ATOM      1  C   UNL     1      -3.457  -2.238  24.504  0.00  0.00    +0.095 C 
ATOM      2  C   UNL     1      -3.847  -1.538  24.304  0.00  0.00    +0.226 C 
ATOM      3  O   UNL     1      -4.598  -1.569  23.964  0.00  0.00    -0.275 OA
ATOM      4  N   UNL     1      -3.486  -0.810  24.442  0.00  0.00    -0.275 N 
ATOM      5  C   UNL     1      -2.741  -0.694  24.777  0.00  0.00    +0.125 C 
ATOM      6  C   UNL     1      -2.601   0.118  24.812  0.00  0.00    +0.155 C 
ATOM      7  O   UNL     1      -1.959   0.557  25.089  0.00  0.00    -0.343 OA
ATOM      8  C   UNL     1      -1.976   1.380  25.053  0.00  0.00    +0.227 C 
ATOM      9  C   UNL     1      -2.635   1.766  24.741  0.00  0.00    +0.256 C 
ATOM     10  O   UNL     1      -2.652   2.591  24.705  0.00  0.00    -0.272 OA
ATOM     11  N   UNL     1      -3.277   1.329  24.464  0.00  0.00    -0.271 N 
ATOM     19  C   UNL     1      -3.260   0.504  24.500  0.00  0.00    +0.124 C 
ATOM     20  C   UNL     1      -3.807  -0.069  24.272  0.00  0.00    +0.116 C 
ENDROOT
BRANCH  11  12
ATOM     12  C   UNL     1      -3.936   1.715  24.152  0.00  0.00    +0.120 C 
BRANCH  12  13
ATOM     13  C   UNL     1      -4.491   2.058  24.658  0.00  0.00    +0.001 A 
ATOM     14  C   UNL     1      -4.379   2.828  24.931  0.00  0.00    +0.018 A 
ATOM     15  C   UNL     1      -4.932   3.172  25.436  0.00  0.00    +0.099 A 
ATOM     16  N   UNL     1      -5.599   2.744  25.670  0.00  0.00    -0.242 NA
ATOM     17  C   UNL     1      -5.711   1.973  25.397  0.00  0.00    +0.099 A 
ATOM     18  C   UNL     1      -5.156   1.631  24.891  0.00  0.00    +0.018 A 
ENDBRANCH  12  13
ENDBRANCH  11  12
TORSDOF 2
ENDMDL
MODEL 5
REMARK VINA RESULT:      -9.6      1.036      2.326
REMARK  Name = 
REMARK  2 active torsions:
REMARK  status: ('A' for Active; 'I' for Inactive)
REMARK    1  A    between atoms: N_11  and  C_12
REMARK    2  A    between atoms: C_12  and  C_13
REMARK                            x       y       z     vdW  Elec       q    Type
REMARK                         _______ _______ _______ _____ _____    ______ ____
ROOT
ATOM      1  C   UNL     1      -0.036   0.914  23.926  0.00  0.00    +0.095 C 
ATOM      2  C   UNL     1      -0.542   0.387  24.311  0.00  0.00    +0.226 C 
ATOM      3  O   UNL     1      -0.237  -0.297  24.657  0.00  0.00    -0.275 OA
ATOM      4  N   UNL     1      -1.350   0.545  24.350  0.00  0.00    -0.275 N 
ATOM      5  C   UNL     1      -1.732   1.204  24.032  0.00  0.00    +0.125 C 
ATOM      6  C   UNL     1      -2.536   1.138  24.199  0.00  0.00    +0.155 C 
ATOM      7  O   UNL     1      -3.179   1.624  24.022  0.00  0.00    -0.343 OA
ATOM      8  C   UNL     1      -3.937   1.411  24.267  0.00  0.00    +0.227 C 
ATOM      9  C   UNL     1      -4.054   0.712  24.689  0.00  0.00    +0.256 C 
ATOM     10  O   UNL     1      -4.813   0.499  24.934  0.00  0.00    -0.272 OA
ATOM     11  N   UNL     1      -3.412   0.225  24.866  0.00  0.00    -0.271 N 
ATOM     19  C   UNL     1      -2.653   0.439  24.621  0.00  0.00    +0.124 C 
ATOM     20  C   UNL     1      -1.920   0.073  24.715  0.00  0.00    +0.116 C 
ENDROOT
BRANCH  11  12
ATOM     12  C   UNL     1      -3.528  -0.474  25.288  0.00  0.00    +0.120 C 
BRANCH  12  13
ATOM     13  C   UNL     1      -3.676  -1.179  24.885  0.00  0.00    +0.001 A 
ATOM     14  C   UNL     1      -3.312  -1.877  25.131  0.00  0.00    +0.018 A 
ATOM     15  C   UNL     1      -3.459  -2.583  24.729  0.00  0.00    +0.099 A 
ATOM     16  N   UNL     1      -3.971  -2.588  24.080  0.00  0.00    -0.242 NA
ATOM     17  C   UNL     1      -4.334  -1.890  23.835  0.00  0.00    +0.099 A 
ATOM     18  C   UNL     1      -4.186  -1.185  24.238  0.00  0.00    +0.018 A 
ENDBRANCH  12  13
ENDBRANCH  11  12
TORSDOF 2
ENDMDL
MODEL 6
REMARK VINA RESULT:      -9.2      1.738      3.396
REMARK  Name = 
REMARK  2 active torsions:
REMARK  status: ('A' for Active; 'I' for Inactive)
REMARK    1  A    between atoms: N_11  and  C_12
REMARK    2  A    between atoms: C_12  and  C_13
REMARK                            x       y       z     vdW  Elec       q    Type
REMARK                         _______ _______ _______ _____ _____    ______ ____
ROOT
ATOM      1  C   UNL     1      -0.172   2.674  26.018  0.00  0.00    +0.095 C 
ATOM      2  C   UNL     1      -0.889   2.883  25.665  0.00  0.00    +0.226 C 
ATOM      3  O   UNL     1      -1.103   3.677  25.605  0.00  0.00    -0.275 OA
ATOM      4  N   UNL     1      -1.391   2.297  25.372  0.00  0.00    -0.275 N 
ATOM      5  C   UNL     1      -1.251   1.483  25.393  0.00  0.00    +0.125 C 
ATOM      6  C   UNL     1      -1.893   1.105  25.042  0.00  0.00    +0.155 C 
ATOM      7  O   UNL     1      -2.060   0.308  24.907  0.00  0.00    -0.343 OA
ATOM      8  C   UNL     1      -2.762   0.090  24.535  0.00  0.00    +0.227 C 
ATOM      9  C   UNL     1      -3.299   0.669  24.296  0.00  0.00    +0.256 C 
ATOM     10  O   UNL     1      -4.003   0.451  23.923  0.00  0.00    -0.272 OA
ATOM     11  N   UNL     1      -3.134   1.466  24.430  0.00  0.00    -0.271 N 
ATOM     19  C   UNL     1      -2.430   1.684  24.803  0.00  0.00    +0.124 C 
ATOM     20  C   UNL     1      -2.120   2.420  25.007  0.00  0.00    +0.116 C 
ENDROOT
BRANCH  11  12
ATOM     12  C   UNL     1      -3.671   2.045  24.192  0.00  0.00    +0.120 C 
BRANCH  12  13
ATOM     13  C   UNL     1      -4.300   2.253  24.685  0.00  0.00    +0.001 A 
ATOM     14  C   UNL     1      -4.363   3.025  24.968  0.00  0.00    +0.018 A 
ATOM     15  C   UNL     1      -4.991   3.233  25.461  0.00  0.00    +0.099 A 
ATOM     16  N   UNL     1      -5.556   2.668  25.671  0.00  0.00    -0.242 NA
ATOM     17  C   UNL     1      -5.492   1.896  25.388  0.00  0.00    +0.099 A 
ATOM     18  C   UNL     1      -4.863   1.689  24.894  0.00  0.00    +0.018 A 
ENDBRANCH  12  13
ENDBRANCH  11  12
TORSDOF 2
ENDMDL
