MODEL 1
REMARK VINA RESULT:     -10.0      0.000      0.000
REMARK  Name = 
REMARK  6 active torsions:
REMARK  status: ('A' for Active; 'I' for Inactive)
REMARK    1  A    between atoms: C_2  and  C_5
REMARK    2  A    between atoms: C_8  and  N_9
REMARK    3  A    between atoms: N_12  and  C_13
REMARK    4  A    between atoms: C_17  and  O_21
REMARK    5  A    between atoms: O_21  and  C_22
REMARK    6  A    between atoms: N_24  and  C_25
REMARK                            x       y       z     vdW  Elec       q    Type
REMARK                         _______ _______ _______ _____ _____    ______ ____
ROOT
ATOM     13  C   UNL     1       0.248  -0.018  23.357  0.00  0.00    +0.156 C 
ATOM     14  C   UNL     1       0.182  -0.630  23.906  0.00  0.00    +0.166 C 
ATOM     15  O   UNL     1      -0.494  -0.494  24.358  0.00  0.00    -0.348 OA
ATOM     16  C   UNL     1      -0.846   0.201  24.089  0.00  0.00    +0.186 C 
ATOM     17  C   UNL     1      -1.481   0.716  24.201  0.00  0.00    +0.229 C 
ATOM     18  C   UNL     1      -1.415   1.328  23.653  0.00  0.00    +0.188 C 
ATOM     19  O   UNL     1      -0.738   1.192  23.201  0.00  0.00    -0.348 OA
ATOM     20  C   UNL     1      -0.387   0.496  23.470  0.00  0.00    +0.168 C 
ENDROOT
BRANCH  13  12
ATOM      9  N   UNL     1       2.233   0.171  22.468  0.00  0.00    -0.161 NA
ATOM     10  C   UNL     1       1.636   0.087  23.030  0.00  0.00    +0.344 C 
ATOM     11  O   UNL     1       1.829   0.025  23.831  0.00  0.00    -0.249 OA
ATOM     12  N   UNL     1       0.846   0.066  22.794  0.00  0.00    -0.184 NA
BRANCH   9   8
ATOM      5  C   UNL     1       4.604   0.235  23.176  0.00  0.00    +0.072 A 
ATOM      6  C   UNL     1       4.237   0.921  22.901  0.00  0.00    +0.005 A 
ATOM      7  C   UNL     1       3.447   0.899  22.665  0.00  0.00    +0.017 A 
ATOM      8  C   UNL     1       3.023   0.192  22.704  0.00  0.00    +0.075 A 
ATOM     31  C   UNL     1       3.390  -0.493  22.980  0.00  0.00    +0.017 A 
ATOM     32  C   UNL     1       4.181  -0.472  23.216  0.00  0.00    +0.005 A 
BRANCH   5   2
ATOM      1  F   UNL     1       6.184   0.279  23.649  0.00  0.00    -0.166 F 
ATOM      2  C   UNL     1       5.394   0.257  23.412  0.00  0.00    +0.419 C 
ATOM      3  F   UNL     1       5.164   0.524  24.158  0.00  0.00    -0.166 F 
ATOM      4  F   UNL     1       5.625  -0.010  22.667  0.00  0.00    -0.166 F 
ENDBRANCH   5   2
ENDBRANCH   9   8
ENDBRANCH  13  12
BRANCH  17  21
ATOM     21  O   UNL     1      -2.078   0.632  24.765  0.00  0.00    -0.432 OA
BRANCH  21  22
ATOM     22  C   UNL     1      -2.836   0.921  24.609  0.00  0.00    +0.421 C 
ATOM     23  O   UNL     1      -3.181   0.794  23.871  0.00  0.00    -0.225 OA
ATOM     24  N   UNL     1      -3.247   1.335  25.191  0.00  0.00    -0.170 NA
BRANCH  24  25
ATOM     25  C   UNL     1      -4.004   1.624  25.036  0.00  0.00    +0.099 C 
ATOM     26  C   UNL     1      -4.108   2.410  24.810  0.00  0.00    +0.022 C 
ATOM     27  C   UNL     1      -4.865   2.698  24.654  0.00  0.00    +0.002 C 
ATOM     28  C   UNL     1      -5.519   2.199  24.725  0.00  0.00    +0.000 C 
ATOM     29  C   UNL     1      -5.415   1.413  24.952  0.00  0.00    +0.002 C 
ATOM     30  C   UNL     1      -4.658   1.125  25.107  0.00  0.00    +0.022 C 
ENDBRANCH  24  25
ENDBRANCH  21  22
ENDBRANCH  17  21
TORSDOF 6
ENDMDL
MODEL 2
REMARK VINA RESULT:      -9.4      4.368      5.802
REMARK  Name = 
REMARK  6 active torsions:
REMARK  status: ('A' for Active; 'I' for Inactive)
REMARK    1  A    between atoms: C_2  and  C_5
REMARK    2  A    between atoms: C_8  and  N_9
REMARK    3  A    between atoms: N_12  and  C_13
REMARK    4  A    between atoms: C_17  and  O_21
REMARK    5  A    between atoms: O_21  and  C_22
REMARK    6  A    between atoms: N_24  and  C_25
REMARK                            x       y       z     vdW  Elec       q    Type
REMARK                         _______ _______ _______ _____ _____    ______ ____
ROOT
ATOM     13  C   UNL     1      -0.358   0.022  24.744  0.00  0.00    +0.156 C 
ATOM     14  C   UNL     1      -0.085   0.221  23.992  0.00  0.00    +0.166 C 
ATOM     15  O   UNL     1       0.094   1.027  23.992  0.00  0.00    -0.348 OA
ATOM     16  C   UNL     1      -0.068   1.324  24.743  0.00  0.00    +0.186 C 
ATOM     17  C   UNL     1      -0.059   2.005  25.208  0.00  0.00    +0.229 C 
ATOM     18  C   UNL     1      -0.331   1.806  25.960  0.00  0.00    +0.188 C 
ATOM     19  O   UNL     1      -0.510   1.000  25.960  0.00  0.00    -0.348 OA
ATOM     20  C   UNL     1      -0.348   0.703  25.208  0.00  0.00    +0.168 C 
ENDROOT
BRANCH  13  12
ATOM      9  N   UNL     1      -1.557  -1.789  24.967  0.00  0.00    -0.161 NA
ATOM     10  C   UNL     1      -1.316  -1.040  24.723  0.00  0.00    +0.344 C 
ATOM     11  O   UNL     1      -1.791  -0.599  24.212  0.00  0.00    -0.249 OA
ATOM     12  N   UNL     1      -0.599  -0.729  24.989  0.00  0.00    -0.184 NA
BRANCH   9   8
ATOM      5  C   UNL     1      -3.707  -2.720  24.171  0.00  0.00    +0.072 A 
ATOM      6  C   UNL     1      -3.698  -2.171  24.787  0.00  0.00    +0.005 A 
ATOM      7  C   UNL     1      -2.981  -1.861  25.052  0.00  0.00    +0.017 A 
ATOM      8  C   UNL     1      -2.273  -2.100  24.702  0.00  0.00    +0.075 A 
ATOM     31  C   UNL     1      -2.283  -2.648  24.087  0.00  0.00    +0.017 A 
ATOM     32  C   UNL     1      -3.000  -2.959  23.821  0.00  0.00    +0.005 A 
BRANCH   5   2
ATOM      1  F   UNL     1      -5.141  -3.341  23.642  0.00  0.00    -0.166 F 
ATOM      2  C   UNL     1      -4.424  -3.030  23.906  0.00  0.00    +0.419 C 
ATOM      3  F   UNL     1      -4.260  -3.740  24.292  0.00  0.00    -0.166 F 
ATOM      4  F   UNL     1      -4.590  -2.320  23.520  0.00  0.00    -0.166 F 
ENDBRANCH   5   2
ENDBRANCH   9   8
ENDBRANCH  13  12
BRANCH  17  21
ATOM     21  O   UNL     1       0.182   2.756  24.964  0.00  0.00    -0.432 OA
BRANCH  21  22
ATOM     22  C   UNL     1      -0.261   3.420  25.171  0.00  0.00    +0.421 C 
ATOM     23  O   UNL     1      -0.224   3.717  25.940  0.00  0.00    -0.225 OA
ATOM     24  N   UNL     1      -0.741   3.788  24.611  0.00  0.00    -0.170 NA
BRANCH  24  25
ATOM     25  C   UNL     1      -1.184   4.452  24.818  0.00  0.00    +0.099 C 
ATOM     26  C   UNL     1      -0.859   5.206  24.743  0.00  0.00    +0.022 C 
ATOM     27  C   UNL     1      -1.301   5.869  24.951  0.00  0.00    +0.002 C 
ATOM     28  C   UNL     1      -2.072   5.780  25.233  0.00  0.00    +0.000 C 
ATOM     29  C   UNL     1      -2.398   5.025  25.308  0.00  0.00    +0.002 C 
ATOM     30  C   UNL     1      -1.954   4.362  25.101  0.00  0.00    +0.022 C 
ENDBRANCH  24  25
ENDBRANCH  21  22
ENDBRANCH  17  21
TORSDOF 6
ENDMDL
MODEL 3
REMARK VINA RESULT:      -9.3      3.422      7.395
REMARK  Name = 
REMARK  6 active torsions:
REMARK  status: ('A' for Active; 'I' for Inactive)
REMARK    1  A    between atoms: C_2  and  C_5
REMARK    2  A    between atoms: C_8  and  N_9
REMARK    3  A    between atoms: N_12  and  C_13
REMARK    4  A    between atoms: C_17  and  O_21
REMARK    5  A    between atoms: O_21  and  C_22
REMARK    6  A    between atoms: N_24  and  C_25
REMARK                            x       y       z     vdW  Elec       q    Type
REMARK                         _______ _______ _______ _____ _____    ______ ____
ROOT
ATOM     13  C   UNL     1      -0.197   0.519  24.027  0.00  0.00    +0.156 C 
ATOM     14  C   UNL     1       0.029   1.294  24.196  0.00  0.00    +0.166 C 
ATOM     15  O   UNL     1       0.758   1.430  23.837  0.00  0.00    -0.348 OA
ATOM     16  C   UNL     1       0.984   0.740  23.446  0.00  0.00    +0.186 C 
ATOM     17  C   UNL     1       1.573   0.397  22.982  0.00  0.00    +0.229 C 
ATOM     18  C   UNL     1       1.347  -0.378  22.812  0.00  0.00    +0.188 C 
ATOM     19  O   UNL     1       0.617  -0.514  23.172  0.00  0.00    -0.348 OA
ATOM     20  C   UNL     1       0.392   0.177  23.563  0.00  0.00    +0.168 C 
ENDROOT
BRANCH  13  12
ATOM      9  N   UNL     1      -2.294   0.207  24.550  0.00  0.00    -0.161 NA
ATOM     10  C   UNL     1      -1.600   0.575  24.299  0.00  0.00    +0.344 C 
ATOM     11  O   UNL     1      -1.612   1.368  24.070  0.00  0.00    -0.249 OA
ATOM     12  N   UNL     1      -0.892   0.151  24.277  0.00  0.00    -0.184 NA
BRANCH   9   8
ATOM      5  C   UNL     1      -4.416   1.479  24.614  0.00  0.00    +0.072 A 
ATOM      6  C   UNL     1      -4.222   1.034  23.946  0.00  0.00    +0.005 A 
ATOM      7  C   UNL     1      -3.514   0.611  23.925  0.00  0.00    +0.017 A 
ATOM      8  C   UNL     1      -3.001   0.631  24.571  0.00  0.00    +0.075 A 
ATOM     31  C   UNL     1      -3.196   1.076  25.238  0.00  0.00    +0.017 A 
ATOM     32  C   UNL     1      -3.903   1.500  25.260  0.00  0.00    +0.005 A 
BRANCH   5   2
ATOM      1  F   UNL     1      -5.831   2.327  24.655  0.00  0.00    -0.166 F 
ATOM      2  C   UNL     1      -5.124   1.903  24.635  0.00  0.00    +0.419 C 
ATOM      3  F   UNL     1      -4.758   2.532  24.246  0.00  0.00    -0.166 F 
ATOM      4  F   UNL     1      -5.490   1.274  25.023  0.00  0.00    -0.166 F 
ENDBRANCH   5   2
ENDBRANCH   9   8
ENDBRANCH  13  12
BRANCH  17  21
ATOM     21  O   UNL     1       2.268   0.765  22.731  0.00  0.00    -0.432 OA
BRANCH  21  22
ATOM     22  C   UNL     1       2.999   0.416  22.886  0.00  0.00    +0.421 C 
ATOM     23  O   UNL     1       3.080  -0.404  22.855  0.00  0.00    -0.225 OA
ATOM     24  N   UNL     1       3.650   0.887  23.073  0.00  0.00    -0.170 NA
BRANCH  24  25
ATOM     25  C   UNL     1       4.381   0.538  23.228  0.00  0.00    +0.099 C 
ATOM     26  C   UNL     1       4.859   0.286  22.605  0.00  0.00    +0.022 C 
ATOM     27  C   UNL     1       5.589  -0.063  22.760  0.00  0.00    +0.002 C 
ATOM     28  C   UNL     1       5.844  -0.160  23.539  0.00  0.00    +0.000 C 
ATOM     29  C   UNL     1       5.366   0.093  24.163  0.00  0.00    +0.002 C 
ATOM     30  C   UNL     1       4.635   0.442  24.007  0.00  0.00    +0.022 C 
ENDBRANCH  24  25
ENDBRANCH  21  22
ENDBRANCH  17  21
TORSDOF 6
ENDMDL
MODEL 4
REMARK VINA RESULT:      -9.2      4.127      5.348
REMARK  Name = 
REMARK  6 active torsions:
REMARK  status: ('A' for Active; 'I' for Inactive)
REMARK    1  A    between atoms: C_2  and  C_5
REMARK    2  A    between atoms: C_8  and  N_9
REMARK    3  A    between atoms: N_12  and  C_13
REMARK    4  A    between atoms: C_17  and  O_21
REMARK    5  A    between atoms: O_21  and  C_22
REMARK    6  A    between atoms: N_24  and  C_25
REMARK                            x       y       z     vdW  Elec       q    Type
REMARK                         _______ _______ _______ _____ _____    ______ ____
ROOT
ATOM     13  C   UNL     1      -0.244   0.809  24.988  0.00  0.00    +0.156 C 
ATOM     14  C   UNL     1      -0.168   0.653  24.182  0.00  0.00    +0.166 C 
ATOM     15  O   UNL     1      -0.441  -0.113  24.044  0.00  0.00    -0.348 OA
ATOM     16  C   UNL     1      -0.686  -0.431  24.763  0.00  0.00    +0.186 C 
ATOM     17  C   UNL     1      -1.006  -1.100  25.124  0.00  0.00    +0.229 C 
ATOM     18  C   UNL     1      -1.083  -0.944  25.931  0.00  0.00    +0.188 C 
ATOM     19  O   UNL     1      -0.810  -0.178  26.069  0.00  0.00    -0.348 OA
ATOM     20  C   UNL     1      -0.565   0.139  25.347  0.00  0.00    +0.168 C 
ENDROOT
BRANCH  13  12
ATOM      9  N   UNL     1      -0.241   2.909  25.582  0.00  0.00    -0.161 NA
ATOM     10  C   UNL     1      -0.448   2.207  25.202  0.00  0.00    +0.344 C 
ATOM     11  O   UNL     1      -1.067   2.200  24.656  0.00  0.00    -0.249 OA
ATOM     12  N   UNL     1      -0.037   1.511  25.368  0.00  0.00    -0.184 NA
BRANCH   9   8
ATOM      5  C   UNL     1      -1.474   4.997  25.084  0.00  0.00    +0.072 A 
ATOM      6  C   UNL     1      -0.735   4.863  24.743  0.00  0.00    +0.005 A 
ATOM      7  C   UNL     1      -0.325   4.167  24.909  0.00  0.00    +0.017 A 
ATOM      8  C   UNL     1      -0.653   3.605  25.416  0.00  0.00    +0.075 A 
ATOM     31  C   UNL     1      -1.391   3.739  25.757  0.00  0.00    +0.017 A 
ATOM     32  C   UNL     1      -1.802   4.435  25.591  0.00  0.00    +0.005 A 
BRANCH   5   2
ATOM      1  F   UNL     1      -2.295   6.390  24.752  0.00  0.00    -0.166 F 
ATOM      2  C   UNL     1      -1.885   5.693  24.918  0.00  0.00    +0.419 C 
ATOM      3  F   UNL     1      -1.233   6.136  25.163  0.00  0.00    -0.166 F 
ATOM      4  F   UNL     1      -2.537   5.251  24.673  0.00  0.00    -0.166 F 
ENDBRANCH   5   2
ENDBRANCH   9   8
ENDBRANCH  13  12
BRANCH  17  21
ATOM     21  O   UNL     1      -1.214  -1.803  24.744  0.00  0.00    -0.432 OA
BRANCH  21  22
ATOM     22  C   UNL     1      -2.005  -2.030  24.700  0.00  0.00    +0.421 C 
ATOM     23  O   UNL     1      -2.377  -2.359  25.359  0.00  0.00    -0.225 OA
ATOM     24  N   UNL     1      -2.426  -1.929  23.998  0.00  0.00    -0.170 NA
BRANCH  24  25
ATOM     25  C   UNL     1      -3.218  -2.156  23.954  0.00  0.00    +0.099 C 
ATOM     26  C   UNL     1      -3.420  -2.955  23.987  0.00  0.00    +0.022 C 
ATOM     27  C   UNL     1      -4.211  -3.182  23.943  0.00  0.00    +0.002 C 
ATOM     28  C   UNL     1      -4.801  -2.610  23.866  0.00  0.00    +0.000 C 
ATOM     29  C   UNL     1      -4.599  -1.811  23.833  0.00  0.00    +0.002 C 
ATOM     30  C   UNL     1      -3.807  -1.584  23.877  0.00  0.00    +0.022 C 
ENDBRANCH  24  25
ENDBRANCH  21  22
ENDBRANCH  17  21
TORSDOF 6
ENDMDL
MODEL 5
REMARK VINA RESULT:      -9.1      4.907      6.307
REMARK  Name = 
REMARK  6 active torsions:
REMARK  status: ('A' for Active; 'I' for Inactive)
REMARK    1  A    between atoms: C_2  and  C_5
REMARK    2  A    between atoms: C_8  and  N_9
REMARK    3  A    between atoms: N_12  and  C_13
REMARK    4  A    between atoms: C_17  and  O_21
REMARK    5  A    between atoms: O_21  and  C_22
REMARK    6  A    between atoms: N_24  and  C_25
REMARK                            x       y       z     vdW  Elec       q    Type
REMARK                         _______ _______ _______ _____ _____    ______ ____
ROOT
ATOM     13  C   UNL     1      -4.778   1.604  24.617  0.00  0.00    +0.156 C 
ATOM     14  C   UNL     1      -4.575   1.927  23.886  0.00  0.00    +0.166 C 
ATOM     15  O   UNL     1      -4.345   2.709  24.008  0.00  0.00    -0.348 OA
ATOM     16  C   UNL     1      -4.406   2.871  24.813  0.00  0.00    +0.186 C 
ATOM     17  C   UNL     1      -4.302   3.454  25.388  0.00  0.00    +0.229 C 
ATOM     18  C   UNL     1      -4.505   3.132  26.119  0.00  0.00    +0.188 C 
ATOM     19  O   UNL     1      -4.735   2.349  25.997  0.00  0.00    -0.348 OA
ATOM     20  C   UNL     1      -4.674   2.188  25.190  0.00  0.00    +0.168 C 
ENDROOT
BRANCH  13  12
ATOM      9  N   UNL     1      -4.793  -0.574  24.758  0.00  0.00    -0.161 NA
ATOM     10  C   UNL     1      -4.532   0.196  24.624  0.00  0.00    +0.344 C 
ATOM     11  O   UNL     1      -3.761   0.331  24.361  0.00  0.00    -0.249 OA
ATOM     12  N   UNL     1      -5.040   0.833  24.751  0.00  0.00    -0.184 NA
BRANCH   9   8
ATOM      5  C   UNL     1      -3.267  -2.485  24.375  0.00  0.00    +0.072 A 
ATOM      6  C   UNL     1      -3.207  -2.042  25.068  0.00  0.00    +0.005 A 
ATOM      7  C   UNL     1      -3.716  -1.405  25.195  0.00  0.00    +0.017 A 
ATOM      8  C   UNL     1      -4.285  -1.211  24.630  0.00  0.00    +0.075 A 
ATOM     31  C   UNL     1      -4.344  -1.654  23.937  0.00  0.00    +0.017 A 
ATOM     32  C   UNL     1      -3.836  -2.291  23.809  0.00  0.00    +0.005 A 
BRANCH   5   2
ATOM      1  F   UNL     1      -2.249  -3.758  24.121  0.00  0.00    -0.166 F 
ATOM      2  C   UNL     1      -2.759  -3.122  24.248  0.00  0.00    +0.419 C 
ATOM      3  F   UNL     1      -2.120  -2.602  24.197  0.00  0.00    -0.166 F 
ATOM      4  F   UNL     1      -3.397  -3.643  24.298  0.00  0.00    -0.166 F 
ENDBRANCH   5   2
ENDBRANCH   9   8
ENDBRANCH  13  12
BRANCH  17  21
ATOM     21  O   UNL     1      -4.039   4.225  25.254  0.00  0.00    -0.432 OA
BRANCH  21  22
ATOM     22  C   UNL     1      -3.245   4.416  25.366  0.00  0.00    +0.421 C 
ATOM     23  O   UNL     1      -2.948   4.510  26.130  0.00  0.00    -0.225 OA
ATOM     24  N   UNL     1      -2.748   4.514  24.716  0.00  0.00    -0.170 NA
BRANCH  24  25
ATOM     25  C   UNL     1      -1.953   4.706  24.829  0.00  0.00    +0.099 C 
ATOM     26  C   UNL     1      -1.723   5.496  24.886  0.00  0.00    +0.022 C 
ATOM     27  C   UNL     1      -0.929   5.687  24.998  0.00  0.00    +0.002 C 
ATOM     28  C   UNL     1      -0.364   5.088  25.055  0.00  0.00    +0.000 C 
ATOM     29  C   UNL     1      -0.594   4.298  24.998  0.00  0.00    +0.002 C 
ATOM     30  C   UNL     1      -1.389   4.107  24.885  0.00  0.00    +0.022 C 
ENDBRANCH  24  25
ENDBRANCH  21  22
ENDBRANCH  17  21
TORSDOF 6
ENDMDL
