MODEL 1
REMARK VINA RESULT:      -9.2      0.000      0.000
REMARK  Name = 
REMARK  8 active torsions:
REMARK  status: ('A' for Active; 'I' for Inactive)
REMARK    1  A    between atoms: O_2  and  C_3
REMARK    2  A    between atoms: C_3  and  C_4
REMARK    3  A    between atoms: C_4  and  O_5
REMARK    4  A    between atoms: O_5  and  C_6
REMARK    5  A    between atoms: C_8  and  C_12
REMARK    6  A    between atoms: C_15  and  C_17
REMARK    7  A    between atoms: N_21  and  C_22
REMARK    8  A    between atoms: C_22  and  C_23
REMARK                            x       y       z     vdW  Elec       q    Type
REMARK                         _______ _______ _______ _____ _____    ______ ____
ROOT
ATOM     12  C   UNL     1      -3.963   1.129  24.415  0.00  0.00    +0.204 A 
ATOM     13  N   UNL     1      -3.745   1.020  23.627  0.00  0.00    -0.056 NA
ATOM     14  O   UNL     1      -3.546   0.226  23.525  0.00  0.00    -0.336 OA
ATOM     15  C   UNL     1      -3.641  -0.155  24.250  0.00  0.00    +0.251 A 
ATOM     16  N   UNL     1      -3.899   0.403  24.801  0.00  0.00    -0.190 NA
ENDROOT
BRANCH  12   8
ATOM      6  C   UNL     1      -3.881   3.065  25.421  0.00  0.00    +0.225 A 
ATOM      7  C   UNL     1      -3.641   2.353  25.078  0.00  0.00    +0.061 A 
ATOM      8  C   UNL     1      -4.202   1.841  24.758  0.00  0.00    +0.045 A 
ATOM      9  C   UNL     1      -5.002   2.039  24.780  0.00  0.00    +0.024 A 
ATOM     10  C   UNL     1      -5.242   2.750  25.122  0.00  0.00    +0.102 A 
ATOM     11  N   UNL     1      -4.680   3.263  25.443  0.00  0.00    -0.210 NA
BRANCH   6   5
ATOM      5  O   UNL     1      -3.319   3.577  25.742  0.00  0.00    -0.457 OA
BRANCH   5   4
ATOM      4  C   UNL     1      -2.841   4.030  25.243  0.00  0.00    +0.239 C 
BRANCH   4   3
ATOM      3  C   UNL     1      -2.167   4.398  25.542  0.00  0.00    +0.189 C 
BRANCH   3   2
ATOM      1  C   UNL     1      -0.993   5.022  25.016  0.00  0.00    +0.174 C 
ATOM      2  O   UNL     1      -1.813   5.012  25.120  0.00  0.00    -0.347 OA
ENDBRANCH   3   2
ENDBRANCH   4   3
ENDBRANCH   5   4
ENDBRANCH   6   5
ENDBRANCH  12   8
BRANCH  15  17
ATOM     17  C   UNL     1      -3.503  -0.955  24.400  0.00  0.00    +0.138 C 
ATOM     18  C   UNL     1      -4.067  -1.557  24.373  0.00  0.00    +0.027 C 
ATOM     19  C   UNL     1      -3.691  -2.268  24.559  0.00  0.00    +0.019 C 
ATOM     20  C   UNL     1      -2.894  -2.104  24.701  0.00  0.00    +0.073 C 
ATOM     21  N   UNL     1      -2.779  -1.294  24.603  0.00  0.00    -0.266 NA
BRANCH  21  22
ATOM     22  C   UNL     1      -2.064  -0.891  24.692  0.00  0.00    +0.072 C 
BRANCH  22  23
ATOM     23  C   UNL     1      -1.392  -1.296  24.945  0.00  0.00    +0.016 C 
ATOM     24  C   UNL     1      -1.169  -1.269  25.738  0.00  0.00    +0.001 C 
ATOM     25  C   UNL     1      -0.943  -1.729  24.404  0.00  0.00    +0.001 C 
ENDBRANCH  22  23
ENDBRANCH  21  22
ENDBRANCH  15  17
TORSDOF 8
ENDMDL
MODEL 2
REMARK VINA RESULT:      -9.1      1.617      4.577
REMARK  Name = 
REMARK  8 active torsions:
REMARK  status: ('A' for Active; 'I' for Inactive)
REMARK    1  A    between atoms: O_2  and  C_3
REMARK    2  A    between atoms: C_3  and  C_4
REMARK    3  A    between atoms: C_4  and  O_5
REMARK    4  A    between atoms: O_5  and  C_6
REMARK    5  A    between atoms: C_8  and  C_12
REMARK    6  A    between atoms: C_15  and  C_17
REMARK    7  A    between atoms: N_21  and  C_22
REMARK    8  A    between atoms: C_22  and  C_23
REMARK                            x       y       z     vdW  Elec       q    Type
REMARK                         _______ _______ _______ _____ _____    ______ ____
ROOT
ATOM     12  C   UNL     1      -3.784   3.208  25.546  0.00  0.00    +0.204 A 
ATOM     13  N   UNL     1      -3.767   3.668  26.230  0.00  0.00    -0.056 NA
ATOM     14  O   UNL     1      -3.056   4.086  26.239  0.00  0.00    -0.336 OA
ATOM     15  C   UNL     1      -2.634   3.885  25.560  0.00  0.00    +0.251 A 
ATOM     16  N   UNL     1      -3.084   3.341  25.131  0.00  0.00    -0.190 NA
ENDROOT
BRANCH  12   8
ATOM      6  C   UNL     1      -4.830   1.479  24.720  0.00  0.00    +0.225 A 
ATOM      7  C   UNL     1      -4.219   1.984  24.950  0.00  0.00    +0.061 A 
ATOM      8  C   UNL     1      -4.395   2.702  25.316  0.00  0.00    +0.045 A 
ATOM      9  C   UNL     1      -5.179   2.915  25.453  0.00  0.00    +0.024 A 
ATOM     10  C   UNL     1      -5.790   2.410  25.223  0.00  0.00    +0.102 A 
ATOM     11  N   UNL     1      -5.614   1.691  24.857  0.00  0.00    -0.210 NA
BRANCH   6   5
ATOM      5  O   UNL     1      -4.654   0.761  24.354  0.00  0.00    -0.457 OA
BRANCH   5   4
ATOM      4  C   UNL     1      -4.433   0.109  24.810  0.00  0.00    +0.239 C 
BRANCH   4   3
ATOM      3  C   UNL     1      -4.202  -0.592  24.441  0.00  0.00    +0.189 C 
BRANCH   3   2
ATOM      1  C   UNL     1      -3.701  -1.926  24.542  0.00  0.00    +0.174 C 
ATOM      2  O   UNL     1      -4.041  -1.262  24.895  0.00  0.00    -0.347 OA
ENDBRANCH   3   2
ENDBRANCH   4   3
ENDBRANCH   5   4
ENDBRANCH   6   5
ENDBRANCH  12   8
BRANCH  15  17
ATOM     17  C   UNL     1      -1.891   4.175  25.346  0.00  0.00    +0.138 C 
ATOM     18  C   UNL     1      -1.734   4.925  25.042  0.00  0.00    +0.027 C 
ATOM     19  C   UNL     1      -0.922   4.981  24.906  0.00  0.00    +0.019 C 
ATOM     20  C   UNL     1      -0.578   4.263  25.126  0.00  0.00    +0.073 C 
ATOM     21  N   UNL     1      -1.177   3.766  25.398  0.00  0.00    -0.266 NA
BRANCH  21  22
ATOM     22  C   UNL     1      -1.079   2.994  25.673  0.00  0.00    +0.072 C 
BRANCH  22  23
ATOM     23  C   UNL     1      -0.327   2.656  25.691  0.00  0.00    +0.016 C 
ATOM     24  C   UNL     1       0.120   2.681  26.383  0.00  0.00    +0.001 C 
ATOM     25  C   UNL     1      -0.023   2.291  25.016  0.00  0.00    +0.001 C 
ENDBRANCH  22  23
ENDBRANCH  21  22
ENDBRANCH  15  17
TORSDOF 8
ENDMDL
MODEL 3
REMARK VINA RESULT:      -8.9      2.072      5.590
REMARK  Name = 
REMARK  8 active torsions:
REMARK  status: ('A' for Active; 'I' for Inactive)
REMARK    1  A    between atoms: O_2  and  C_3
REMARK    2  A    between atoms: C_3  and  C_4
REMARK    3  A    between atoms: C_4  and  O_5
REMARK    4  A    between atoms: O_5  and  C_6
REMARK    5  A    between atoms: C_8  and  C_12
REMARK    6  A    between atoms: C_15  and  C_17
REMARK    7  A    between atoms: N_21  and  C_22
REMARK    8  A    between atoms: C_22  and  C_23
REMARK                            x       y       z     vdW  Elec       q    Type
REMARK                         _______ _______ _______ _____ _____    ______ ____
ROOT
ATOM     12  C   UNL     1      -0.638   1.569  25.127  0.00  0.00    +0.204 A 
ATOM     13  N   UNL     1      -0.512   1.721  25.927  0.00  0.00    -0.056 NA
ATOM     14  O   UNL     1      -0.749   2.497  26.080  0.00  0.00    -0.336 OA
ATOM     15  C   UNL     1      -1.020   2.823  25.373  0.00  0.00    +0.251 A 
ATOM     16  N   UNL     1      -0.952   2.250  24.783  0.00  0.00    -0.190 NA
ENDROOT
BRANCH  12   8
ATOM      6  C   UNL     1      -0.682  -0.548  24.593  0.00  0.00    +0.225 A 
ATOM      7  C   UNL     1      -0.843   0.162  24.983  0.00  0.00    +0.061 A 
ATOM      8  C   UNL     1      -0.478   0.859  24.736  0.00  0.00    +0.045 A 
ATOM      9  C   UNL     1       0.047   0.848  24.101  0.00  0.00    +0.024 A 
ATOM     10  C   UNL     1       0.207   0.139  23.711  0.00  0.00    +0.102 A 
ATOM     11  N   UNL     1      -0.158  -0.559  23.957  0.00  0.00    -0.210 NA
BRANCH   6   5
ATOM      5  O   UNL     1      -1.048  -1.245  24.840  0.00  0.00    -0.457 OA
BRANCH   5   4
ATOM      4  C   UNL     1      -1.734  -1.506  24.463  0.00  0.00    +0.239 C 
BRANCH   4   3
ATOM      3  C   UNL     1      -2.141  -2.161  24.756  0.00  0.00    +0.189 C 
BRANCH   3   2
ATOM      1  C   UNL     1      -3.436  -2.756  24.656  0.00  0.00    +0.174 C 
ATOM      2  O   UNL     1      -2.730  -2.517  24.302  0.00  0.00    -0.347 OA
ENDBRANCH   3   2
ENDBRANCH   4   3
ENDBRANCH   5   4
ENDBRANCH   6   5
ENDBRANCH  12   8
BRANCH  15  17
ATOM     17  C   UNL     1      -1.310   3.590  25.272  0.00  0.00    +0.138 C 
ATOM     18  C   UNL     1      -0.854   4.270  25.172  0.00  0.00    +0.027 C 
ATOM     19  C   UNL     1      -1.367   4.912  25.092  0.00  0.00    +0.019 C 
ATOM     20  C   UNL     1      -2.140   4.626  25.143  0.00  0.00    +0.073 C 
ATOM     21  N   UNL     1      -2.104   3.811  25.254  0.00  0.00    -0.266 NA
BRANCH  21  22
ATOM     22  C   UNL     1      -2.750   3.303  25.334  0.00  0.00    +0.072 C 
BRANCH  22  23
ATOM     23  C   UNL     1      -3.517   3.600  25.277  0.00  0.00    +0.016 C 
ATOM     24  C   UNL     1      -3.907   3.867  25.953  0.00  0.00    +0.001 C 
ATOM     25  C   UNL     1      -3.895   3.631  24.544  0.00  0.00    +0.001 C 
ENDBRANCH  22  23
ENDBRANCH  21  22
ENDBRANCH  15  17
TORSDOF 8
ENDMDL
MODEL 4
REMARK VINA RESULT:      -8.8      1.582      4.490
REMARK  Name = 
REMARK  8 active torsions:
REMARK  status: ('A' for Active; 'I' for Inactive)
REMARK    1  A    between atoms: O_2  and  C_3
REMARK    2  A    between atoms: C_3  and  C_4
REMARK    3  A    between atoms: C_4  and  O_5
REMARK    4  A    between atoms: O_5  and  C_6
REMARK    5  A    between atoms: C_8  and  C_12
REMARK    6  A    between atoms: C_15  and  C_17
REMARK    7  A    between atoms: N_21  and  C_22
REMARK    8  A    between atoms: C_22  and  C_23
REMARK                            x       y       z     vdW  Elec       q    Type
REMARK                         _______ _______ _______ _____ _____    ______ ____
ROOT
ATOM     12  C   UNL     1      -3.958  -0.031  24.781  0.00  0.00    +0.204 A 
ATOM     13  N   UNL     1      -4.371   0.117  24.083  0.00  0.00    -0.056 NA
ATOM     14  O   UNL     1      -4.813   0.805  24.189  0.00  0.00    -0.336 OA
ATOM     15  C   UNL     1      -4.672   1.083  24.953  0.00  0.00    +0.251 A 
ATOM     16  N   UNL     1      -4.144   0.565  25.320  0.00  0.00    -0.190 NA
ENDROOT
BRANCH  12   8
ATOM      6  C   UNL     1      -2.121  -1.182  25.043  0.00  0.00    +0.225 A 
ATOM      7  C   UNL     1      -2.632  -0.548  24.906  0.00  0.00    +0.061 A 
ATOM      8  C   UNL     1      -3.448  -0.666  24.918  0.00  0.00    +0.045 A 
ATOM      9  C   UNL     1      -3.754  -1.416  25.066  0.00  0.00    +0.024 A 
ATOM     10  C   UNL     1      -3.244  -2.051  25.203  0.00  0.00    +0.102 A 
ATOM     11  N   UNL     1      -2.427  -1.933  25.191  0.00  0.00    -0.210 NA
BRANCH   6   5
ATOM      5  O   UNL     1      -1.305  -1.064  25.031  0.00  0.00    -0.457 OA
BRANCH   5   4
ATOM      4  C   UNL     1      -0.903  -1.032  24.311  0.00  0.00    +0.239 C 
BRANCH   4   3
ATOM      3  C   UNL     1      -0.161  -0.676  24.268  0.00  0.00    +0.189 C 
BRANCH   3   2
ATOM      1  C   UNL     1       0.748  -0.071  23.347  0.00  0.00    +0.174 C 
ATOM      2  O   UNL     1       0.272  -0.708  23.567  0.00  0.00    -0.347 OA
ENDBRANCH   3   2
ENDBRANCH   4   3
ENDBRANCH   5   4
ENDBRANCH   6   5
ENDBRANCH  12   8
BRANCH  15  17
ATOM     17  C   UNL     1      -5.002   1.759  25.292  0.00  0.00    +0.138 C 
ATOM     18  C   UNL     1      -5.731   1.802  25.676  0.00  0.00    +0.027 C 
ATOM     19  C   UNL     1      -5.841   2.580  25.929  0.00  0.00    +0.019 C 
ATOM     20  C   UNL     1      -5.179   3.017  25.701  0.00  0.00    +0.073 C 
ATOM     21  N   UNL     1      -4.661   2.510  25.309  0.00  0.00    -0.266 NA
BRANCH  21  22
ATOM     22  C   UNL     1      -3.930   2.717  24.987  0.00  0.00    +0.072 C 
BRANCH  22  23
ATOM     23  C   UNL     1      -3.670   3.499  25.025  0.00  0.00    +0.016 C 
ATOM     24  C   UNL     1      -3.833   4.018  24.406  0.00  0.00    +0.001 C 
ATOM     25  C   UNL     1      -3.246   3.761  25.683  0.00  0.00    +0.001 C 
ENDBRANCH  22  23
ENDBRANCH  21  22
ENDBRANCH  15  17
TORSDOF 8
ENDMDL
MODEL 5
REMARK VINA RESULT:      -8.6      1.484      2.698
REMARK  Name = 
REMARK  8 active torsions:
REMARK  status: ('A' for Active; 'I' for Inactive)
REMARK    1  A    between atoms: O_2  and  C_3
REMARK    2  A    between atoms: C_3  and  C_4
REMARK    3  A    between atoms: C_4  and  O_5
REMARK    4  A    between atoms: O_5  and  C_6
REMARK    5  A    between atoms: C_8  and  C_12
REMARK    6  A    between atoms: C_15  and  C_17
REMARK    7  A    between atoms: N_21  and  C_22
REMARK    8  A    between atoms: C_22  and  C_23
REMARK                            x       y       z     vdW  Elec       q    Type
REMARK                         _______ _______ _______ _____ _____    ______ ____
ROOT
ATOM     12  C   UNL     1      -1.570   1.687  24.626  0.00  0.00    +0.204 A 
ATOM     13  N   UNL     1      -1.407   1.498  23.840  0.00  0.00    -0.056 NA
ATOM     14  O   UNL     1      -1.268   0.686  23.796  0.00  0.00    -0.336 OA
ATOM     15  C   UNL     1      -1.346   0.373  24.555  0.00  0.00    +0.251 A 
ATOM     16  N   UNL     1      -1.532   0.992  25.069  0.00  0.00    -0.190 NA
ENDROOT
BRANCH  12   8
ATOM      6  C   UNL     1      -2.680   3.487  25.167  0.00  0.00    +0.225 A 
ATOM      7  C   UNL     1      -2.510   2.734  24.875  0.00  0.00    +0.061 A 
ATOM      8  C   UNL     1      -1.740   2.440  24.919  0.00  0.00    +0.045 A 
ATOM      9  C   UNL     1      -1.143   2.896  25.255  0.00  0.00    +0.024 A 
ATOM     10  C   UNL     1      -1.313   3.649  25.548  0.00  0.00    +0.102 A 
ATOM     11  N   UNL     1      -2.083   3.944  25.504  0.00  0.00    -0.210 NA
BRANCH   6   5
ATOM      5  O   UNL     1      -3.450   3.781  25.123  0.00  0.00    -0.457 OA
BRANCH   5   4
ATOM      4  C   UNL     1      -4.042   3.460  25.600  0.00  0.00    +0.239 C 
BRANCH   4   3
ATOM      3  C   UNL     1      -4.834   3.630  25.444  0.00  0.00    +0.189 C 
BRANCH   3   2
ATOM      1  C   UNL     1      -5.987   2.852  25.774  0.00  0.00    +0.174 C 
ATOM      2  O   UNL     1      -5.416   3.411  25.986  0.00  0.00    -0.347 OA
ENDBRANCH   3   2
ENDBRANCH   4   3
ENDBRANCH   5   4
ENDBRANCH   6   5
ENDBRANCH  12   8
BRANCH  15  17
ATOM     17  C   UNL     1      -1.253  -0.420  24.766  0.00  0.00    +0.138 C 
ATOM     18  C   UNL     1      -0.542  -0.790  24.956  0.00  0.00    +0.027 C 
ATOM     19  C   UNL     1      -0.703  -1.580  25.131  0.00  0.00    +0.019 C 
ATOM     20  C   UNL     1      -1.517  -1.697  25.049  0.00  0.00    +0.073 C 
ATOM     21  N   UNL     1      -1.856  -0.980  24.824  0.00  0.00    -0.266 NA
BRANCH  21  22
ATOM     22  C   UNL     1      -2.657  -0.847  24.681  0.00  0.00    +0.072 C 
BRANCH  22  23
ATOM     23  C   UNL     1      -3.208  -1.440  24.837  0.00  0.00    +0.016 C 
ATOM     24  C   UNL     1      -3.527  -1.518  25.593  0.00  0.00    +0.001 C 
ATOM     25  C   UNL     1      -3.440  -1.956  24.236  0.00  0.00    +0.001 C 
ENDBRANCH  22  23
ENDBRANCH  21  22
ENDBRANCH  15  17
TORSDOF 8
ENDMDL
MODEL 6
REMARK VINA RESULT:      -8.5      1.409      4.557
REMARK  Name = 
REMARK  8 active torsions:
REMARK  status: ('A' for Active; 'I' for Inactive)
REMARK    1  A    between atoms: O_2  and  C_3
REMARK    2  A    between atoms: C_3  and  C_4
REMARK    3  A    between atoms: C_4  and  O_5
REMARK    4  A    between atoms: O_5  and  C_6
REMARK    5  A    between atoms: C_8  and  C_12
REMARK    6  A    between atoms: C_15  and  C_17
REMARK    7  A    between atoms: N_21  and  C_22
REMARK    8  A    between atoms: C_22  and  C_23
REMARK                            x       y       z     vdW  Elec       q    Type
REMARK                         _______ _______ _______ _____ _____    ______ ____
ROOT
ATOM     12  C   UNL     1      -4.106   0.495  24.750  0.00  0.00    +0.204 A 
ATOM     13  N   UNL     1      -4.697   0.754  25.262  0.00  0.00    -0.056 NA
ATOM     14  O   UNL     1      -4.755   1.574  25.191  0.00  0.00    -0.336 OA
ATOM     15  C   UNL     1      -4.199   1.821  24.635  0.00  0.00    +0.251 A 
ATOM     16  N   UNL     1      -3.797   1.153  24.362  0.00  0.00    -0.190 NA
ENDROOT
BRANCH  12   8
ATOM      6  C   UNL     1      -2.882  -1.313  24.808  0.00  0.00    +0.225 A 
ATOM      7  C   UNL     1      -3.124  -0.530  24.914  0.00  0.00    +0.061 A 
ATOM      8  C   UNL     1      -3.864  -0.288  24.644  0.00  0.00    +0.045 A 
ATOM      9  C   UNL     1      -4.363  -0.826  24.269  0.00  0.00    +0.024 A 
ATOM     10  C   UNL     1      -4.123  -1.607  24.163  0.00  0.00    +0.102 A 
ATOM     11  N   UNL     1      -3.381  -1.851  24.433  0.00  0.00    -0.210 NA
BRANCH   6   5
ATOM      5  O   UNL     1      -2.142  -1.555  25.078  0.00  0.00    -0.457 OA
BRANCH   5   4
ATOM      4  C   UNL     1      -1.481  -1.483  24.589  0.00  0.00    +0.239 C 
BRANCH   4   3
ATOM      3  C   UNL     1      -0.734  -1.371  24.920  0.00  0.00    +0.189 C 
BRANCH   3   2
ATOM      1  C   UNL     1       0.236  -0.679  24.131  0.00  0.00    +0.174 C 
ATOM      2  O   UNL     1      -0.064  -1.384  24.438  0.00  0.00    -0.347 OA
ENDBRANCH   3   2
ENDBRANCH   4   3
ENDBRANCH   5   4
ENDBRANCH   6   5
ENDBRANCH  12   8
BRANCH  15  17
ATOM     17  C   UNL     1      -4.066   2.599  24.393  0.00  0.00    +0.138 C 
ATOM     18  C   UNL     1      -4.394   2.962  23.729  0.00  0.00    +0.027 C 
ATOM     19  C   UNL     1      -4.114   3.737  23.697  0.00  0.00    +0.019 C 
ATOM     20  C   UNL     1      -3.611   3.852  24.342  0.00  0.00    +0.073 C 
ATOM     21  N   UNL     1      -3.582   3.150  24.771  0.00  0.00    -0.266 NA
BRANCH  21  22
ATOM     22  C   UNL     1      -3.145   3.019  25.459  0.00  0.00    +0.072 C 
BRANCH  22  23
ATOM     23  C   UNL     1      -2.662   3.616  25.759  0.00  0.00    +0.016 C 
ATOM     24  C   UNL     1      -2.975   4.182  26.271  0.00  0.00    +0.001 C 
ATOM     25  C   UNL     1      -1.865   3.647  25.548  0.00  0.00    +0.001 C 
ENDBRANCH  22  23
ENDBRANCH  21  22
ENDBRANCH  15  17
TORSDOF 8
ENDMDL
MODEL 7
REMARK VINA RESULT:      -8.4      2.818      5.499
REMARK  Name = 
REMARK  8 active torsions:
REMARK  status: ('A' for Active; 'I' for Inactive)
REMARK    1  A    between atoms: O_2  and  C_3
REMARK    2  A    between atoms: C_3  and  C_4
REMARK    3  A    between atoms: C_4  and  O_5
REMARK    4  A    between atoms: O_5  and  C_6
REMARK    5  A    between atoms: C_8  and  C_12
REMARK    6  A    between atoms: C_15  and  C_17
REMARK    7  A    between atoms: N_21  and  C_22
REMARK    8  A    between atoms: C_22  and  C_23
REMARK                            x       y       z     vdW  Elec       q    Type
REMARK                         _______ _______ _______ _____ _____    ______ ____
ROOT
ATOM     12  C   UNL     1      -0.679   1.476  25.112  0.00  0.00    +0.204 A 
ATOM     13  N   UNL     1      -0.601   1.611  25.922  0.00  0.00    -0.056 NA
ATOM     14  O   UNL     1      -0.849   2.382  26.078  0.00  0.00    -0.336 OA
ATOM     15  C   UNL     1      -1.080   2.724  25.364  0.00  0.00    +0.251 A 
ATOM     16  N   UNL     1      -0.975   2.164  24.767  0.00  0.00    -0.190 NA
ENDROOT
BRANCH  12   8
ATOM      6  C   UNL     1       0.198   0.092  23.669  0.00  0.00    +0.225 A 
ATOM      7  C   UNL     1       0.012   0.793  24.065  0.00  0.00    +0.061 A 
ATOM      8  C   UNL     1      -0.493   0.776  24.716  0.00  0.00    +0.045 A 
ATOM      9  C   UNL     1      -0.813   0.061  24.972  0.00  0.00    +0.024 A 
ATOM     10  C   UNL     1      -0.628  -0.639  24.577  0.00  0.00    +0.102 A 
ATOM     11  N   UNL     1      -0.122  -0.623  23.925  0.00  0.00    -0.210 NA
BRANCH   6   5
ATOM      5  O   UNL     1       0.703   0.109  23.017  0.00  0.00    -0.457 OA
BRANCH   5   4
ATOM      4  C   UNL     1       1.514  -0.009  23.121  0.00  0.00    +0.239 C 
BRANCH   4   3
ATOM      3  C   UNL     1       2.032   0.116  22.492  0.00  0.00    +0.189 C 
BRANCH   3   2
ATOM      1  C   UNL     1       3.395   0.545  22.461  0.00  0.00    +0.174 C 
ATOM      2  O   UNL     1       2.835  -0.050  22.582  0.00  0.00    -0.347 OA
ENDBRANCH   3   2
ENDBRANCH   4   3
ENDBRANCH   5   4
ENDBRANCH   6   5
ENDBRANCH  12   8
BRANCH  15  17
ATOM     17  C   UNL     1      -1.367   3.491  25.263  0.00  0.00    +0.138 C 
ATOM     18  C   UNL     1      -0.909   4.175  25.203  0.00  0.00    +0.027 C 
ATOM     19  C   UNL     1      -1.420   4.816  25.108  0.00  0.00    +0.019 C 
ATOM     20  C   UNL     1      -2.193   4.528  25.110  0.00  0.00    +0.073 C 
ATOM     21  N   UNL     1      -2.160   3.710  25.206  0.00  0.00    -0.266 NA
BRANCH  21  22
ATOM     22  C   UNL     1      -2.807   3.199  25.239  0.00  0.00    +0.072 C 
BRANCH  22  23
ATOM     23  C   UNL     1      -3.571   3.495  25.146  0.00  0.00    +0.016 C 
ATOM     24  C   UNL     1      -4.000   3.746  25.805  0.00  0.00    +0.001 C 
ATOM     25  C   UNL     1      -3.907   3.541  24.394  0.00  0.00    +0.001 C 
ENDBRANCH  22  23
ENDBRANCH  21  22
ENDBRANCH  15  17
TORSDOF 8
ENDMDL
MODEL 8
REMARK VINA RESULT:      -8.2      2.085      4.724
REMARK  Name = 
REMARK  8 active torsions:
REMARK  status: ('A' for Active; 'I' for Inactive)
REMARK    1  A    between atoms: O_2  and  C_3
REMARK    2  A    between atoms: C_3  and  C_4
REMARK    3  A    between atoms: C_4  and  O_5
REMARK    4  A    between atoms: O_5  and  C_6
REMARK    5  A    between atoms: C_8  and  C_12
REMARK    6  A    between atoms: C_15  and  C_17
REMARK    7  A    between atoms: N_21  and  C_22
REMARK    8  A    between atoms: C_22  and  C_23
REMARK                            x       y       z     vdW  Elec       q    Type
REMARK                         _______ _______ _______ _____ _____    ______ ____
ROOT
ATOM     12  C   UNL     1      -2.561   1.025  24.186  0.00  0.00    +0.204 A 
ATOM     13  N   UNL     1      -2.970   1.122  23.477  0.00  0.00    -0.056 NA
ATOM     14  O   UNL     1      -3.517   1.731  23.579  0.00  0.00    -0.336 OA
ATOM     15  C   UNL     1      -3.445   2.010  24.351  0.00  0.00    +0.251 A 
ATOM     16  N   UNL     1      -2.854   1.573  24.727  0.00  0.00    -0.190 NA
ENDROOT
BRANCH  12   8
ATOM      6  C   UNL     1      -0.584   0.102  24.270  0.00  0.00    +0.225 A 
ATOM      7  C   UNL     1      -1.183   0.652  24.127  0.00  0.00    +0.061 A 
ATOM      8  C   UNL     1      -1.962   0.474  24.329  0.00  0.00    +0.045 A 
ATOM      9  C   UNL     1      -2.144  -0.252  24.674  0.00  0.00    +0.024 A 
ATOM     10  C   UNL     1      -1.546  -0.802  24.817  0.00  0.00    +0.102 A 
ATOM     11  N   UNL     1      -0.766  -0.624  24.615  0.00  0.00    -0.210 NA
BRANCH   6   5
ATOM      5  O   UNL     1       0.195   0.279  24.068  0.00  0.00    -0.457 OA
BRANCH   5   4
ATOM      4  C   UNL     1       0.516  -0.013  23.365  0.00  0.00    +0.239 C 
BRANCH   4   3
ATOM      3  C   UNL     1       1.251   0.255  23.105  0.00  0.00    +0.189 C 
BRANCH   3   2
ATOM      1  C   UNL     1       2.446   0.048  22.349  0.00  0.00    +0.174 C 
ATOM      2  O   UNL     1       1.697  -0.205  22.585  0.00  0.00    -0.347 OA
ENDBRANCH   3   2
ENDBRANCH   4   3
ENDBRANCH   5   4
ENDBRANCH   6   5
ENDBRANCH  12   8
BRANCH  15  17
ATOM     17  C   UNL     1      -3.887   2.619  24.691  0.00  0.00    +0.138 C 
ATOM     18  C   UNL     1      -3.651   3.407  24.762  0.00  0.00    +0.027 C 
ATOM     19  C   UNL     1      -4.259   3.823  25.134  0.00  0.00    +0.019 C 
ATOM     20  C   UNL     1      -4.871   3.291  25.292  0.00  0.00    +0.073 C 
ATOM     21  N   UNL     1      -4.641   2.549  25.018  0.00  0.00    -0.266 NA
BRANCH  21  22
ATOM     22  C   UNL     1      -5.086   1.856  25.064  0.00  0.00    +0.072 C 
BRANCH  22  23
ATOM     23  C   UNL     1      -5.859   1.881  25.351  0.00  0.00    +0.016 C 
ATOM     24  C   UNL     1      -6.494   1.896  24.827  0.00  0.00    +0.001 C 
ATOM     25  C   UNL     1      -5.995   1.890  26.166  0.00  0.00    +0.001 C 
ENDBRANCH  22  23
ENDBRANCH  21  22
ENDBRANCH  15  17
TORSDOF 8
ENDMDL
