MODEL 1
REMARK VINA RESULT:     -16.1      0.000      0.000
REMARK  Name = 
REMARK  4 active torsions:
REMARK  status: ('A' for Active; 'I' for Inactive)
REMARK    1  A    between atoms: C_2  and  O_5
REMARK    2  A    between atoms: O_5  and  C_6
REMARK    3  A    between atoms: C_9  and  C_12
REMARK    4  A    between atoms: C_20  and  C_22
REMARK                            x       y       z     vdW  Elec       q    Type
REMARK                         _______ _______ _______ _____ _____    ______ ____
ROOT
ATOM     12  C   UNL     1      -3.279   2.103  25.020  0.00  0.00    +0.012 A 
ATOM     13  C   UNL     1      -2.802   1.445  24.879  0.00  0.00    +0.041 A 
ATOM     14  C   UNL     1      -1.919   1.214  24.774  0.00  0.00    +0.058 C 
ATOM     15  C   UNL     1      -1.274   1.491  24.769  0.00  0.00    +0.011 C 
ATOM     16  C   UNL     1      -1.614   0.757  24.678  0.00  0.00    +0.043 C 
ATOM     17  C   UNL     1      -1.833  -0.197  24.541  0.00  0.00    +0.095 C 
ATOM     18  N   UNL     1      -2.664  -0.162  24.610  0.00  0.00    -0.279 N 
ATOM     19  C   UNL     1      -2.113   0.289  24.641  0.00  0.00    +0.099 C 
ATOM     20  C   UNL     1      -3.447  -0.423  24.628  0.00  0.00    +0.225 C 
ATOM     21  O   UNL     1      -4.059   0.115  24.761  0.00  0.00    -0.275 OA
ATOM     28  C   UNL     1      -2.539   0.989  24.785  0.00  0.00    +0.110 C 
ATOM     29  N   UNL     1      -3.143   0.700  24.785  0.00  0.00    -0.299 N 
ATOM     30  C   UNL     1      -3.962   0.612  24.833  0.00  0.00    +0.261 A 
ATOM     31  O   UNL     1      -4.518   0.005  24.778  0.00  0.00    -0.267 OA
ATOM     32  C   UNL     1      -4.439   1.270  24.975  0.00  0.00    +0.061 A 
ATOM     33  C   UNL     1      -4.098   2.015  25.069  0.00  0.00    +0.006 A 
ENDROOT
BRANCH  12   9
ATOM      6  C   UNL     1      -2.254   4.339  25.301  0.00  0.00    +0.147 A 
ATOM      7  C   UNL     1      -2.354   3.846  25.954  0.00  0.00    +0.037 A 
ATOM      8  C   UNL     1      -2.695   3.101  25.861  0.00  0.00    +0.003 A 
ATOM      9  C   UNL     1      -2.937   2.848  25.114  0.00  0.00    +0.001 A 
ATOM     10  C   UNL     1      -2.838   3.341  24.460  0.00  0.00    +0.003 A 
ATOM     11  C   UNL     1      -2.496   4.086  24.553  0.00  0.00    +0.037 A 
BRANCH   6   5
ATOM      5  O   UNL     1      -1.913   5.083  25.394  0.00  0.00    -0.404 OA
BRANCH   5   2
ATOM      1  F   UNL     1      -0.475   5.431  24.663  0.00  0.00    -0.133 F 
ATOM      2  C   UNL     1      -1.194   5.257  25.029  0.00  0.00    +0.575 C 
ATOM      3  F   UNL     1      -1.584   5.760  24.503  0.00  0.00    -0.133 F 
ATOM      4  F   UNL     1      -0.805   4.754  25.555  0.00  0.00    -0.133 F 
ENDBRANCH   5   2
ENDBRANCH   6   5
ENDBRANCH  12   9
BRANCH  20  22
ATOM     22  C   UNL     1      -3.618  -1.222  24.513  0.00  0.00    +0.077 C 
ATOM     23  C   UNL     1      -3.444  -1.770  25.104  0.00  0.00    +0.009 C 
ATOM     24  C   UNL     1      -3.615  -2.570  24.989  0.00  0.00    +0.000 C 
ATOM     25  C   UNL     1      -3.960  -2.819  24.282  0.00  0.00    +0.000 C 
ATOM     26  C   UNL     1      -4.134  -2.271  23.692  0.00  0.00    +0.000 C 
ATOM     27  C   UNL     1      -3.963  -1.472  23.807  0.00  0.00    +0.009 C 
ENDBRANCH  20  22
TORSDOF 4
ENDMDL
MODEL 2
REMARK VINA RESULT:     -15.6      2.789      5.146
REMARK  Name = 
REMARK  4 active torsions:
REMARK  status: ('A' for Active; 'I' for Inactive)
REMARK    1  A    between atoms: C_2  and  O_5
REMARK    2  A    between atoms: O_5  and  C_6
REMARK    3  A    between atoms: C_9  and  C_12
REMARK    4  A    between atoms: C_20  and  C_22
REMARK                            x       y       z     vdW  Elec       q    Type
REMARK                         _______ _______ _______ _____ _____    ______ ____
ROOT
ATOM     12  C   UNL     1      -3.437   0.926  24.483  0.00  0.00    +0.012 A 
ATOM     13  C   UNL     1      -2.699   1.178  24.753  0.00  0.00    +0.041 A 
ATOM     14  C   UNL     1      -1.914   0.848  25.097  0.00  0.00    +0.058 C 
ATOM     15  C   UNL     1      -1.602   0.246  25.278  0.00  0.00    +0.011 C 
ATOM     16  C   UNL     1      -1.421   1.040  25.275  0.00  0.00    +0.043 C 
ATOM     17  C   UNL     1      -1.022   1.941  25.349  0.00  0.00    +0.095 C 
ATOM     18  N   UNL     1      -1.654   2.400  25.053  0.00  0.00    -0.279 N 
ATOM     19  C   UNL     1      -1.514   1.712  25.174  0.00  0.00    +0.099 C 
ATOM     20  C   UNL     1      -2.077   3.070  24.822  0.00  0.00    +0.225 C 
ATOM     21  O   UNL     1      -2.843   2.993  24.524  0.00  0.00    -0.275 OA
ATOM     28  C   UNL     1      -2.238   1.394  24.916  0.00  0.00    +0.110 C 
ATOM     29  N   UNL     1      -2.513   1.982  24.751  0.00  0.00    -0.299 N 
ATOM     30  C   UNL     1      -3.064   2.533  24.480  0.00  0.00    +0.261 A 
ATOM     31  O   UNL     1      -3.116   3.350  24.382  0.00  0.00    -0.267 OA
ATOM     32  C   UNL     1      -3.801   2.280  24.210  0.00  0.00    +0.061 A 
ATOM     33  C   UNL     1      -3.987   1.477  24.212  0.00  0.00    +0.006 A 
ENDROOT
BRANCH  12   9
ATOM      6  C   UNL     1      -3.996  -1.486  24.488  0.00  0.00    +0.147 A 
ATOM      7  C   UNL     1      -3.701  -1.132  23.804  0.00  0.00    +0.037 A 
ATOM      8  C   UNL     1      -3.514  -0.329  23.802  0.00  0.00    +0.003 A 
ATOM      9  C   UNL     1      -3.623   0.122  24.484  0.00  0.00    +0.001 A 
ATOM     10  C   UNL     1      -3.919  -0.232  25.169  0.00  0.00    +0.003 A 
ATOM     11  C   UNL     1      -4.105  -1.035  25.170  0.00  0.00    +0.037 A 
BRANCH   6   5
ATOM      5  O   UNL     1      -4.183  -2.289  24.489  0.00  0.00    -0.404 OA
BRANCH   5   2
ATOM      1  F   UNL     1      -3.002  -3.410  24.758  0.00  0.00    -0.133 F 
ATOM      2  C   UNL     1      -3.592  -2.850  24.624  0.00  0.00    +0.575 C 
ATOM      3  F   UNL     1      -3.491  -2.937  23.809  0.00  0.00    -0.133 F 
ATOM      4  F   UNL     1      -3.693  -2.762  25.438  0.00  0.00    -0.133 F 
ENDBRANCH   5   2
ENDBRANCH   6   5
ENDBRANCH  12   9
BRANCH  20  22
ATOM     22  C   UNL     1      -1.733   3.817  24.888  0.00  0.00    +0.077 C 
ATOM     23  C   UNL     1      -2.037   4.364  25.425  0.00  0.00    +0.009 C 
ATOM     24  C   UNL     1      -1.693   5.112  25.491  0.00  0.00    +0.000 C 
ATOM     25  C   UNL     1      -1.046   5.311  25.020  0.00  0.00    +0.000 C 
ATOM     26  C   UNL     1      -0.742   4.764  24.483  0.00  0.00    +0.000 C 
ATOM     27  C   UNL     1      -1.086   4.016  24.417  0.00  0.00    +0.009 C 
ENDBRANCH  20  22
TORSDOF 4
ENDMDL
