MODEL 1
REMARK VINA RESULT:     -16.1      0.000      0.000
REMARK  Name = 
REMARK  4 active torsions:
REMARK  status: ('A' for Active; 'I' for Inactive)
REMARK    1  A    between atoms: O_2  and  C_3
REMARK    2  A    between atoms: C_8  and  N_9
REMARK    3  A    between atoms: C_21  and  C_22
REMARK    4  A    between atoms: C_23  and  C_24
REMARK                            x       y       z     vdW  Elec       q    Type
REMARK                         _______ _______ _______ _____ _____    ______ ____
ROOT
ATOM      9  N   UNL     1      -3.428   2.524  24.674  0.00  0.00    -0.159 NA
ATOM     10  C   UNL     1      -3.269   3.399  24.752  0.00  0.00    +0.328 C 
ATOM     11  O   UNL     1      -2.694   4.040  24.633  0.00  0.00    -0.250 OA
ATOM     12  N   UNL     1      -4.059   3.540  25.079  0.00  0.00    -0.262 N 
ATOM     13  C   UNL     1      -4.520   4.178  25.358  0.00  0.00    +0.097 C 
ATOM     14  C   UNL     1      -5.347   3.693  25.598  0.00  0.00    +0.043 C 
ATOM     15  C   UNL     1      -6.084   3.446  25.843  0.00  0.00    +0.011 C 
ATOM     16  C   UNL     1      -5.503   3.158  25.573  0.00  0.00    +0.058 C 
ATOM     17  C   UNL     1      -4.711   3.642  25.346  0.00  0.00    +0.101 C 
ATOM     18  C   UNL     1      -5.155   2.349  25.310  0.00  0.00    +0.041 A 
ATOM     19  C   UNL     1      -5.357   1.551  25.260  0.00  0.00    +0.013 A 
ATOM     20  C   UNL     1      -4.813   1.006  24.964  0.00  0.00    +0.006 A 
ATOM     21  C   UNL     1      -4.068   1.259  24.718  0.00  0.00    +0.056 A 
ATOM     31  C   UNL     1      -3.866   2.057  24.767  0.00  0.00    +0.261 A 
ATOM     32  O   UNL     1      -3.250   1.606  24.459  0.00  0.00    -0.267 OA
ATOM     33  N   UNL     1      -4.410   2.602  25.064  0.00  0.00    -0.299 N 
ATOM     34  C   UNL     1      -4.975   2.852  25.321  0.00  0.00    +0.110 C 
ENDROOT
BRANCH   9   8
ATOM      3  C   UNL     1      -2.177   1.521  24.704  0.00  0.00    +0.154 A 
ATOM      4  C   UNL     1      -1.694   1.015  24.267  0.00  0.00    +0.038 A 
ATOM      5  C   UNL     1      -1.829   0.911  23.460  0.00  0.00    +0.003 A 
ATOM      6  C   UNL     1      -2.448   1.313  23.090  0.00  0.00    +0.002 A 
ATOM      7  C   UNL     1      -2.930   1.819  23.528  0.00  0.00    +0.020 A 
ATOM      8  C   UNL     1      -2.796   1.923  24.334  0.00  0.00    +0.109 A 
BRANCH   3   2
ATOM      1  C   UNL     1      -0.998   1.518  25.241  0.00  0.00    +0.253 C 
ATOM      2  O   UNL     1      -1.735   1.394  25.576  0.00  0.00    -0.470 OA
ENDBRANCH   3   2
ENDBRANCH   9   8
BRANCH  21  22
ATOM     22  C   UNL     1      -3.845   0.505  24.511  0.00  0.00    +0.005 C 
ATOM     23  C   UNL     1      -3.566  -0.166  23.957  0.00  0.00    +0.000 C 
BRANCH  23  24
ATOM     24  C   UNL     1      -3.522  -0.841  24.481  0.00  0.00    +0.000 A 
ATOM     25  C   UNL     1      -3.416  -1.097  25.258  0.00  0.00    +0.001 A 
ATOM     26  C   UNL     1      -3.432  -1.905  25.432  0.00  0.00    +0.011 A 
ATOM     27  C   UNL     1      -3.553  -2.454  24.828  0.00  0.00    +0.058 A 
ATOM     28 CL   UNL     1      -3.576  -3.301  24.971  0.00  0.00    -0.082 Cl
ATOM     29  C   UNL     1      -3.658  -2.197  24.052  0.00  0.00    +0.011 A 
ATOM     30  C   UNL     1      -3.642  -1.391  23.878  0.00  0.00    +0.001 A 
ENDBRANCH  23  24
ENDBRANCH  21  22
TORSDOF 4
ENDMDL
MODEL 2
REMARK VINA RESULT:     -15.8      0.511      1.056
REMARK  Name = 
REMARK  4 active torsions:
REMARK  status: ('A' for Active; 'I' for Inactive)
REMARK    1  A    between atoms: O_2  and  C_3
REMARK    2  A    between atoms: C_8  and  N_9
REMARK    3  A    between atoms: C_21  and  C_22
REMARK    4  A    between atoms: C_23  and  C_24
REMARK                            x       y       z     vdW  Elec       q    Type
REMARK                         _______ _______ _______ _____ _____    ______ ____
ROOT
ATOM      9  N   UNL     1      -3.376   2.444  24.805  0.00  0.00    -0.159 NA
ATOM     10  C   UNL     1      -3.268   3.330  24.780  0.00  0.00    +0.328 C 
ATOM     11  O   UNL     1      -2.725   3.984  24.603  0.00  0.00    -0.250 OA
ATOM     12  N   UNL     1      -4.078   3.462  25.060  0.00  0.00    -0.262 N 
ATOM     13  C   UNL     1      -4.584   4.101  25.242  0.00  0.00    +0.097 C 
ATOM     14  C   UNL     1      -5.392   3.600  25.513  0.00  0.00    +0.043 C 
ATOM     15  C   UNL     1      -6.124   3.342  25.760  0.00  0.00    +0.011 C 
ATOM     16  C   UNL     1      -5.518   3.058  25.548  0.00  0.00    +0.058 C 
ATOM     17  C   UNL     1      -4.745   3.556  25.290  0.00  0.00    +0.101 C 
ATOM     18  C   UNL     1      -5.116   2.245  25.399  0.00  0.00    +0.041 A 
ATOM     19  C   UNL     1      -5.271   1.436  25.442  0.00  0.00    +0.013 A 
ATOM     20  C   UNL     1      -4.687   0.893  25.234  0.00  0.00    +0.006 A 
ATOM     21  C   UNL     1      -3.946   1.158  24.983  0.00  0.00    +0.056 A 
ATOM     31  C   UNL     1      -3.791   1.967  24.941  0.00  0.00    +0.261 A 
ATOM     32  O   UNL     1      -3.139   1.519  24.711  0.00  0.00    -0.267 OA
ATOM     33  N   UNL     1      -4.375   2.510  25.149  0.00  0.00    -0.299 N 
ATOM     34  C   UNL     1      -4.963   2.756  25.354  0.00  0.00    +0.110 C 
ENDROOT
BRANCH   9   8
ATOM      3  C   UNL     1      -2.486   1.533  23.830  0.00  0.00    +0.154 A 
ATOM      4  C   UNL     1      -1.853   1.006  23.773  0.00  0.00    +0.038 A 
ATOM      5  C   UNL     1      -1.434   0.791  24.449  0.00  0.00    +0.003 A 
ATOM      6  C   UNL     1      -1.646   1.103  25.183  0.00  0.00    +0.002 A 
ATOM      7  C   UNL     1      -2.278   1.629  25.240  0.00  0.00    +0.020 A 
ATOM      8  C   UNL     1      -2.698   1.845  24.564  0.00  0.00    +0.109 A 
BRANCH   3   2
ATOM      1  C   UNL     1      -1.956   1.737  22.666  0.00  0.00    +0.253 C 
ATOM      2  O   UNL     1      -2.725   1.547  22.874  0.00  0.00    -0.470 OA
ENDBRANCH   3   2
ENDBRANCH   9   8
BRANCH  21  22
ATOM     22  C   UNL     1      -3.675   0.399  24.879  0.00  0.00    +0.005 C 
ATOM     23  C   UNL     1      -3.098  -0.305  24.963  0.00  0.00    +0.000 C 
BRANCH  23  24
ATOM     24  C   UNL     1      -3.494  -0.930  24.534  0.00  0.00    +0.000 A 
ATOM     25  C   UNL     1      -4.026  -1.114  23.930  0.00  0.00    +0.001 A 
ATOM     26  C   UNL     1      -4.202  -1.903  23.762  0.00  0.00    +0.011 A 
ATOM     27  C   UNL     1      -3.846  -2.507  24.198  0.00  0.00    +0.058 A 
ATOM     28 CL   UNL     1      -4.006  -3.339  24.052  0.00  0.00    -0.082 Cl
ATOM     29  C   UNL     1      -3.316  -2.322  24.801  0.00  0.00    +0.011 A 
ATOM     30  C   UNL     1      -3.139  -1.534  24.969  0.00  0.00    +0.001 A 
ENDBRANCH  23  24
ENDBRANCH  21  22
TORSDOF 4
ENDMDL
MODEL 3
REMARK VINA RESULT:     -15.4      1.987      4.212
REMARK  Name = 
REMARK  4 active torsions:
REMARK  status: ('A' for Active; 'I' for Inactive)
REMARK    1  A    between atoms: O_2  and  C_3
REMARK    2  A    between atoms: C_8  and  N_9
REMARK    3  A    between atoms: C_21  and  C_22
REMARK    4  A    between atoms: C_23  and  C_24
REMARK                            x       y       z     vdW  Elec       q    Type
REMARK                         _______ _______ _______ _____ _____    ______ ____
ROOT
ATOM      9  N   UNL     1      -1.910  -0.278  24.436  0.00  0.00    -0.159 NA
ATOM     10  C   UNL     1      -1.264  -0.895  24.415  0.00  0.00    +0.328 C 
ATOM     11  O   UNL     1      -0.409  -1.040  24.354  0.00  0.00    -0.250 OA
ATOM     12  N   UNL     1      -1.839  -1.538  24.493  0.00  0.00    -0.262 N 
ATOM     13  C   UNL     1      -1.850  -2.372  24.536  0.00  0.00    +0.097 C 
ATOM     14  C   UNL     1      -2.823  -2.522  24.621  0.00  0.00    +0.043 C 
ATOM     15  C   UNL     1      -3.581  -2.809  24.696  0.00  0.00    +0.011 C 
ATOM     16  C   UNL     1      -3.266  -2.184  24.640  0.00  0.00    +0.058 C 
ATOM     17  C   UNL     1      -2.324  -2.056  24.558  0.00  0.00    +0.101 C 
ATOM     18  C   UNL     1      -3.451  -1.285  24.610  0.00  0.00    +0.041 A 
ATOM     19  C   UNL     1      -4.087  -0.760  24.634  0.00  0.00    +0.013 A 
ATOM     20  C   UNL     1      -3.953   0.053  24.583  0.00  0.00    +0.006 A 
ATOM     21  C   UNL     1      -3.183   0.340  24.507  0.00  0.00    +0.056 A 
ATOM     31  C   UNL     1      -2.548  -0.184  24.483  0.00  0.00    +0.261 A 
ATOM     32  O   UNL     1      -2.299   0.598  24.424  0.00  0.00    -0.267 OA
ATOM     33  N   UNL     1      -2.681  -0.997  24.534  0.00  0.00    -0.299 N 
ATOM     34  C   UNL     1      -3.006  -1.580  24.589  0.00  0.00    +0.110 C 
ENDROOT
BRANCH   9   8
ATOM      3  C   UNL     1      -1.526   1.190  24.955  0.00  0.00    +0.154 A 
ATOM      4  C   UNL     1      -1.402   1.980  24.747  0.00  0.00    +0.038 A 
ATOM      5  C   UNL     1      -1.487   2.218  23.962  0.00  0.00    +0.003 A 
ATOM      6  C   UNL     1      -1.696   1.667  23.384  0.00  0.00    +0.002 A 
ATOM      7  C   UNL     1      -1.820   0.879  23.592  0.00  0.00    +0.020 A 
ATOM      8  C   UNL     1      -1.735   0.640  24.376  0.00  0.00    +0.109 A 
BRANCH   3   2
ATOM      1  C   UNL     1      -0.665   1.718  25.767  0.00  0.00    +0.253 C 
ATOM      2  O   UNL     1      -1.343   1.284  25.918  0.00  0.00    -0.470 OA
ENDBRANCH   3   2
ENDBRANCH   9   8
BRANCH  21  22
ATOM     22  C   UNL     1      -3.440   1.111  24.489  0.00  0.00    +0.005 C 
ATOM     23  C   UNL     1      -3.527   1.960  24.160  0.00  0.00    +0.000 C 
BRANCH  23  24
ATOM     24  C   UNL     1      -4.026   2.340  24.742  0.00  0.00    +0.000 A 
ATOM     25  C   UNL     1      -4.320   2.314  25.513  0.00  0.00    +0.001 A 
ATOM     26  C   UNL     1      -4.834   2.903  25.778  0.00  0.00    +0.011 A 
ATOM     27  C   UNL     1      -5.053   3.518  25.273  0.00  0.00    +0.058 A 
ATOM     28 CL   UNL     1      -5.586   4.148  25.515  0.00  0.00    -0.082 Cl
ATOM     29  C   UNL     1      -4.759   3.543  24.503  0.00  0.00    +0.011 A 
ATOM     30  C   UNL     1      -4.245   2.955  24.238  0.00  0.00    +0.001 A 
ENDBRANCH  23  24
ENDBRANCH  21  22
TORSDOF 4
ENDMDL
MODEL 4
REMARK VINA RESULT:     -14.9      1.169      2.824
REMARK  Name = 
REMARK  4 active torsions:
REMARK  status: ('A' for Active; 'I' for Inactive)
REMARK    1  A    between atoms: O_2  and  C_3
REMARK    2  A    between atoms: C_8  and  N_9
REMARK    3  A    between atoms: C_21  and  C_22
REMARK    4  A    between atoms: C_23  and  C_24
REMARK                            x       y       z     vdW  Elec       q    Type
REMARK                         _______ _______ _______ _____ _____    ______ ____
ROOT
ATOM      9  N   UNL     1      -2.537   2.880  24.993  0.00  0.00    -0.159 NA
ATOM     10  C   UNL     1      -2.331   3.730  25.172  0.00  0.00    +0.328 C 
ATOM     11  O   UNL     1      -2.607   4.554  25.167  0.00  0.00    -0.250 OA
ATOM     12  N   UNL     1      -1.538   3.508  25.441  0.00  0.00    -0.262 N 
ATOM     13  C   UNL     1      -0.850   3.874  25.742  0.00  0.00    +0.097 C 
ATOM     14  C   UNL     1      -0.277   3.078  25.860  0.00  0.00    +0.043 C 
ATOM     15  C   UNL     1       0.310   2.534  26.014  0.00  0.00    +0.011 C 
ATOM     16  C   UNL     1      -0.348   2.532  25.768  0.00  0.00    +0.058 C 
ATOM     17  C   UNL     1      -0.889   3.312  25.659  0.00  0.00    +0.101 C 
ATOM     18  C   UNL     1      -1.000   1.964  25.457  0.00  0.00    +0.041 A 
ATOM     19  C   UNL     1      -1.135   1.164  25.310  0.00  0.00    +0.013 A 
ATOM     20  C   UNL     1      -1.863   0.918  25.009  0.00  0.00    +0.006 A 
ATOM     21  C   UNL     1      -2.455   1.471  24.855  0.00  0.00    +0.056 A 
ATOM     31  C   UNL     1      -2.319   2.272  25.001  0.00  0.00    +0.261 A 
ATOM     32  O   UNL     1      -3.075   2.141  24.703  0.00  0.00    -0.267 OA
ATOM     33  N   UNL     1      -1.592   2.518  25.302  0.00  0.00    -0.299 N 
ATOM     34  C   UNL     1      -0.964   2.492  25.533  0.00  0.00    +0.110 C 
ENDROOT
BRANCH   9   8
ATOM      3  C   UNL     1      -4.082   2.450  25.032  0.00  0.00    +0.154 A 
ATOM      4  C   UNL     1      -4.744   2.234  24.589  0.00  0.00    +0.038 A 
ATOM      5  C   UNL     1      -4.695   2.190  23.767  0.00  0.00    +0.003 A 
ATOM      6  C   UNL     1      -3.983   2.363  23.387  0.00  0.00    +0.002 A 
ATOM      7  C   UNL     1      -3.321   2.579  23.829  0.00  0.00    +0.020 A 
ATOM      8  C   UNL     1      -3.370   2.623  24.651  0.00  0.00    +0.109 A 
BRANCH   3   2
ATOM      1  C   UNL     1      -5.152   2.821  25.662  0.00  0.00    +0.253 C 
ATOM      2  O   UNL     1      -4.502   2.395  25.921  0.00  0.00    -0.470 OA
ENDBRANCH   3   2
ENDBRANCH   9   8
BRANCH  21  22
ATOM     22  C   UNL     1      -2.968   0.897  24.595  0.00  0.00    +0.005 C 
ATOM     23  C   UNL     1      -3.606   0.522  24.059  0.00  0.00    +0.000 C 
BRANCH  23  24
ATOM     24  C   UNL     1      -3.718  -0.252  24.407  0.00  0.00    +0.000 A 
ATOM     25  C   UNL     1      -3.760  -0.687  25.107  0.00  0.00    +0.001 A 
ATOM     26  C   UNL     1      -3.893  -1.502  25.078  0.00  0.00    +0.011 A 
ATOM     27  C   UNL     1      -3.983  -1.879  24.349  0.00  0.00    +0.058 A 
ATOM     28 CL   UNL     1      -4.122  -2.725  24.281  0.00  0.00    -0.082 Cl
ATOM     29  C   UNL     1      -3.940  -1.444  23.651  0.00  0.00    +0.011 A 
ATOM     30  C   UNL     1      -3.807  -0.630  23.679  0.00  0.00    +0.001 A 
ENDBRANCH  23  24
ENDBRANCH  21  22
TORSDOF 4
ENDMDL
MODEL 5
REMARK VINA RESULT:     -14.5      2.291      4.708
REMARK  Name = 
REMARK  4 active torsions:
REMARK  status: ('A' for Active; 'I' for Inactive)
REMARK    1  A    between atoms: O_2  and  C_3
REMARK    2  A    between atoms: C_8  and  N_9
REMARK    3  A    between atoms: C_21  and  C_22
REMARK    4  A    between atoms: C_23  and  C_24
REMARK                            x       y       z     vdW  Elec       q    Type
REMARK                         _______ _______ _______ _____ _____    ______ ____
ROOT
ATOM      9  N   UNL     1      -3.144   0.168  24.384  0.00  0.00    -0.159 NA
ATOM     10  C   UNL     1      -3.520  -0.598  24.120  0.00  0.00    +0.328 C 
ATOM     11  O   UNL     1      -4.202  -0.966  23.727  0.00  0.00    -0.250 OA
ATOM     12  N   UNL     1      -2.858  -1.061  24.431  0.00  0.00    -0.262 N 
ATOM     13  C   UNL     1      -2.621  -1.860  24.489  0.00  0.00    +0.097 C 
ATOM     14  C   UNL     1      -1.758  -1.744  24.956  0.00  0.00    +0.043 C 
ATOM     15  C   UNL     1      -1.039  -1.817  25.331  0.00  0.00    +0.011 C 
ATOM     16  C   UNL     1      -1.476  -1.301  25.144  0.00  0.00    +0.058 C 
ATOM     17  C   UNL     1      -2.307  -1.430  24.692  0.00  0.00    +0.101 C 
ATOM     18  C   UNL     1      -1.566  -0.387  25.173  0.00  0.00    +0.041 A 
ATOM     19  C   UNL     1      -1.173   0.288  25.439  0.00  0.00    +0.013 A 
ATOM     20  C   UNL     1      -1.508   1.032  25.324  0.00  0.00    +0.006 A 
ATOM     21  C   UNL     1      -2.237   1.103  24.944  0.00  0.00    +0.056 A 
ATOM     31  C   UNL     1      -2.631   0.429  24.678  0.00  0.00    +0.261 A 
ATOM     32  O   UNL     1      -3.055   1.114  24.511  0.00  0.00    -0.267 OA
ATOM     33  N   UNL     1      -2.295  -0.316  24.793  0.00  0.00    -0.299 N 
ATOM     34  C   UNL     1      -1.862  -0.790  24.982  0.00  0.00    +0.110 C 
ENDROOT
BRANCH   9   8
ATOM      3  C   UNL     1      -4.092   1.424  24.694  0.00  0.00    +0.154 A 
ATOM      4  C   UNL     1      -4.356   2.163  24.436  0.00  0.00    +0.038 A 
ATOM      5  C   UNL     1      -4.072   2.479  23.730  0.00  0.00    +0.003 A 
ATOM      6  C   UNL     1      -3.523   2.058  23.280  0.00  0.00    +0.002 A 
ATOM      7  C   UNL     1      -3.259   1.320  23.537  0.00  0.00    +0.020 A 
ATOM      8  C   UNL     1      -3.543   1.003  24.243  0.00  0.00    +0.109 A 
BRANCH   3   2
ATOM      1  C   UNL     1      -5.298   1.613  25.125  0.00  0.00    +0.253 C 
ATOM      2  O   UNL     1      -4.620   1.383  25.524  0.00  0.00    -0.470 OA
ENDBRANCH   3   2
ENDBRANCH   9   8
BRANCH  21  22
ATOM     22  C   UNL     1      -2.232   1.913  25.015  0.00  0.00    +0.005 C 
ATOM     23  C   UNL     1      -2.556   2.738  25.235  0.00  0.00    +0.000 C 
BRANCH  23  24
ATOM     24  C   UNL     1      -1.921   3.263  25.001  0.00  0.00    +0.000 A 
ATOM     25  C   UNL     1      -1.227   3.341  24.562  0.00  0.00    +0.001 A 
ATOM     26  C   UNL     1      -0.823   4.062  24.555  0.00  0.00    +0.011 A 
ATOM     27  C   UNL     1      -1.116   4.702  24.987  0.00  0.00    +0.058 A 
ATOM     28 CL   UNL     1      -0.723   5.467  25.003  0.00  0.00    -0.082 Cl
ATOM     29  C   UNL     1      -1.810   4.622  25.424  0.00  0.00    +0.011 A 
ATOM     30  C   UNL     1      -2.213   3.903  25.431  0.00  0.00    +0.001 A 
ENDBRANCH  23  24
ENDBRANCH  21  22
TORSDOF 4
ENDMDL
MODEL 6
REMARK VINA RESULT:     -14.5      1.380      1.674
REMARK  Name = 
REMARK  4 active torsions:
REMARK  status: ('A' for Active; 'I' for Inactive)
REMARK    1  A    between atoms: O_2  and  C_3
REMARK    2  A    between atoms: C_8  and  N_9
REMARK    3  A    between atoms: C_21  and  C_22
REMARK    4  A    between atoms: C_23  and  C_24
REMARK                            x       y       z     vdW  Elec       q    Type
REMARK                         _______ _______ _______ _____ _____    ______ ____
ROOT
ATOM      9  N   UNL     1      -3.513   2.592  24.732  0.00  0.00    -0.159 NA
ATOM     10  C   UNL     1      -3.935   3.379  24.756  0.00  0.00    +0.328 C 
ATOM     11  O   UNL     1      -3.860   4.239  24.657  0.00  0.00    -0.250 OA
ATOM     12  N   UNL     1      -4.685   3.000  24.967  0.00  0.00    -0.262 N 
ATOM     13  C   UNL     1      -5.475   3.216  25.130  0.00  0.00    +0.097 C 
ATOM     14  C   UNL     1      -5.858   2.321  25.304  0.00  0.00    +0.043 C 
ATOM     15  C   UNL     1      -6.318   1.671  25.473  0.00  0.00    +0.011 C 
ATOM     16  C   UNL     1      -5.650   1.804  25.304  0.00  0.00    +0.058 C 
ATOM     17  C   UNL     1      -5.295   2.675  25.139  0.00  0.00    +0.101 C 
ATOM     18  C   UNL     1      -4.846   1.384  25.157  0.00  0.00    +0.041 A 
ATOM     19  C   UNL     1      -4.509   0.631  25.149  0.00  0.00    +0.013 A 
ATOM     20  C   UNL     1      -3.708   0.540  24.972  0.00  0.00    +0.006 A 
ATOM     21  C   UNL     1      -3.245   1.202  24.801  0.00  0.00    +0.056 A 
ATOM     31  C   UNL     1      -3.583   1.954  24.809  0.00  0.00    +0.261 A 
ATOM     32  O   UNL     1      -2.782   1.982  24.620  0.00  0.00    -0.267 OA
ATOM     33  N   UNL     1      -4.383   2.045  24.986  0.00  0.00    -0.299 N 
ATOM     34  C   UNL     1      -5.014   1.891  25.148  0.00  0.00    +0.110 C 
ENDROOT
BRANCH   9   8
ATOM      3  C   UNL     1      -1.932   2.578  25.005  0.00  0.00    +0.154 A 
ATOM      4  C   UNL     1      -1.181   2.481  24.677  0.00  0.00    +0.038 A 
ATOM      5  C   UNL     1      -1.101   2.317  23.872  0.00  0.00    +0.003 A 
ATOM      6  C   UNL     1      -1.771   2.251  23.395  0.00  0.00    +0.002 A 
ATOM      7  C   UNL     1      -2.521   2.349  23.724  0.00  0.00    +0.020 A 
ATOM      8  C   UNL     1      -2.603   2.512  24.528  0.00  0.00    +0.109 A 
BRANCH   3   2
ATOM      1  C   UNL     1      -1.084   3.291  25.676  0.00  0.00    +0.253 C 
ATOM      2  O   UNL     1      -1.643   2.750  25.931  0.00  0.00    -0.470 OA
ENDBRANCH   3   2
ENDBRANCH   9   8
BRANCH  21  22
ATOM     22  C   UNL     1      -2.581   0.747  24.689  0.00  0.00    +0.005 C 
ATOM     23  C   UNL     1      -1.855   0.416  24.243  0.00  0.00    +0.000 C 
BRANCH  23  24
ATOM     24  C   UNL     1      -1.517  -0.132  24.806  0.00  0.00    +0.000 A 
ATOM     25  C   UNL     1      -1.449  -0.339  25.602  0.00  0.00    +0.001 A 
ATOM     26  C   UNL     1      -0.997  -0.995  25.820  0.00  0.00    +0.011 A 
ATOM     27  C   UNL     1      -0.615  -1.443  25.241  0.00  0.00    +0.058 A 
ATOM     28 CL   UNL     1      -0.136  -2.132  25.431  0.00  0.00    -0.082 Cl
ATOM     29  C   UNL     1      -0.683  -1.235  24.447  0.00  0.00    +0.011 A 
ATOM     30  C   UNL     1      -1.134  -0.580  24.229  0.00  0.00    +0.001 A 
ENDBRANCH  23  24
ENDBRANCH  21  22
TORSDOF 4
ENDMDL
