MODEL 1
REMARK VINA RESULT:      -9.7      0.000      0.000
REMARK  Name = 
REMARK  5 active torsions:
REMARK  status: ('A' for Active; 'I' for Inactive)
REMARK    1  A    between atoms: C_2  and  N_3
REMARK    2  A    between atoms: N_3  and  C_4
REMARK    3  A    between atoms: C_6  and  C_8
REMARK    4  A    between atoms: C_8  and  C_9
REMARK    5  A    between atoms: C_27  and  N_30
REMARK                            x       y       z     vdW  Elec       q    Type
REMARK                         _______ _______ _______ _____ _____    ______ ____
ROOT
ATOM      9  C   UNL     1       0.458   0.062  23.772  0.00  0.00    +0.012 C 
ATOM     10  C   UNL     1       0.432  -0.748  23.922  0.00  0.00    +0.022 C 
ATOM     11  C   UNL     1      -0.264  -1.094  24.200  0.00  0.00    +0.093 C 
ATOM     12  N   UNL     1      -0.935  -0.705  24.342  0.00  0.00    -0.278 N 
ATOM     13  C   UNL     1      -0.907   0.182  24.177  0.00  0.00    +0.093 C 
ATOM     14  C   UNL     1      -0.384   0.764  23.911  0.00  0.00    +0.021 C 
ATOM     15  C   UNL     1      -0.786   1.485  23.910  0.00  0.00    +0.006 C 
ATOM     16  C   UNL     1      -1.555   1.348  24.175  0.00  0.00    +0.047 C 
ATOM     17  C   UNL     1      -2.324   1.793  24.337  0.00  0.00    +0.205 C 
ATOM     18  O   UNL     1      -2.770   1.650  24.501  0.00  0.00    -0.476 OA
ATOM     19  C   UNL     1      -2.995   0.603  24.755  0.00  0.00    +0.136 A 
ATOM     20  C   UNL     1      -3.675   0.226  25.034  0.00  0.00    +0.030 A 
ATOM     21  C   UNL     1      -3.667  -0.587  25.174  0.00  0.00    +0.119 C 
ATOM     22  N   UNL     1      -2.980  -1.023  25.036  0.00  0.00    -0.204 NA
ATOM     23  C   UNL     1      -2.301  -0.646  24.758  0.00  0.00    +0.174 C 
ATOM     24  C   UNL     1      -1.614  -1.082  24.620  0.00  0.00    +0.243 C 
ATOM     25  O   UNL     1      -1.607  -1.894  24.760  0.00  0.00    -0.273 OA
ATOM     26  C   UNL     1      -4.361   0.661  25.172  0.00  0.00    +0.015 A 
ATOM     27  C   UNL     1      -4.369   1.474  25.032  0.00  0.00    +0.048 A 
ATOM     28  C   UNL     1      -3.690   1.852  24.753  0.00  0.00    +0.018 A 
ATOM     29  C   UNL     1      -3.003   1.416  24.615  0.00  0.00    +0.038 A 
ENDROOT
BRANCH  27  30
ATOM     30  N   UNL     1      -5.056   1.910  25.170  0.00  0.00    -0.303 N 
ATOM     31  C   UNL     1      -5.029   2.583  25.646  0.00  0.00    +0.123 C 
ATOM     32  C   UNL     1      -5.715   3.019  25.784  0.00  0.00    +0.164 C 
ATOM     33  O   UNL     1      -6.429   2.783  25.445  0.00  0.00    -0.350 OA
ATOM     34  C   UNL     1      -6.456   2.110  24.969  0.00  0.00    +0.164 C 
ATOM     35  C   UNL     1      -5.770   1.674  24.831  0.00  0.00    +0.123 C 
ENDBRANCH  27  30
BRANCH   9   8
ATOM      8  C   UNL     1       1.170   0.375  23.494  0.00  0.00    +0.085 C 
BRANCH   8   6
ATOM      3  N   UNL     1       2.275   0.278  22.594  0.00  0.00    -0.280 N 
ATOM      6  C   UNL     1       1.495   0.097  22.788  0.00  0.00    +0.226 C 
ATOM      7  O   UNL     1       1.038  -0.362  22.276  0.00  0.00    -0.275 OA
BRANCH   3   2
ATOM      1  C   UNL     1       3.418   0.017  21.776  0.00  0.00    +0.023 C 
ATOM      2  C   UNL     1       2.601   0.000  21.888  0.00  0.00    +0.093 C 
ENDBRANCH   3   2
BRANCH   3   4
ATOM      4  C   UNL     1       2.732   0.737  23.106  0.00  0.00    +0.093 C 
ATOM      5  C   UNL     1       3.399   1.130  22.822  0.00  0.00    +0.023 C 
ENDBRANCH   3   4
ENDBRANCH   8   6
ENDBRANCH   9   8
TORSDOF 5
ENDMDL
MODEL 2
REMARK VINA RESULT:      -9.7      0.880      6.049
REMARK  Name = 
REMARK  5 active torsions:
REMARK  status: ('A' for Active; 'I' for Inactive)
REMARK    1  A    between atoms: C_2  and  N_3
REMARK    2  A    between atoms: N_3  and  C_4
REMARK    3  A    between atoms: C_6  and  C_8
REMARK    4  A    between atoms: C_8  and  C_9
REMARK    5  A    between atoms: C_27  and  N_30
REMARK                            x       y       z     vdW  Elec       q    Type
REMARK                         _______ _______ _______ _____ _____    ______ ____
ROOT
ATOM      9  C   UNL     1      -4.043   0.626  24.806  0.00  0.00    +0.012 C 
ATOM     10  C   UNL     1      -4.149  -0.056  25.258  0.00  0.00    +0.022 C 
ATOM     11  C   UNL     1      -3.526  -0.588  25.351  0.00  0.00    +0.093 C 
ATOM     12  N   UNL     1      -2.808  -0.503  25.036  0.00  0.00    -0.278 N 
ATOM     13  C   UNL     1      -2.692   0.244  24.542  0.00  0.00    +0.093 C 
ATOM     14  C   UNL     1      -3.109   0.911  24.290  0.00  0.00    +0.021 C 
ATOM     15  C   UNL     1      -2.601   1.368  23.827  0.00  0.00    +0.006 C 
ATOM     16  C   UNL     1      -1.872   0.983  23.793  0.00  0.00    +0.047 C 
ATOM     17  C   UNL     1      -1.050   1.080  23.432  0.00  0.00    +0.205 C 
ATOM     18  O   UNL     1      -0.639   0.804  23.448  0.00  0.00    -0.476 OA
ATOM     19  C   UNL     1      -0.587  -0.145  24.003  0.00  0.00    +0.136 A 
ATOM     20  C   UNL     1       0.015  -0.698  24.117  0.00  0.00    +0.030 A 
ATOM     21  C   UNL     1      -0.123  -1.370  24.575  0.00  0.00    +0.119 C 
ATOM     22  N   UNL     1      -0.864  -1.490  24.920  0.00  0.00    -0.204 NA
ATOM     23  C   UNL     1      -1.466  -0.936  24.805  0.00  0.00    +0.174 C 
ATOM     24  C   UNL     1      -2.206  -1.055  25.150  0.00  0.00    +0.243 C 
ATOM     25  O   UNL     1      -2.344  -1.727  25.607  0.00  0.00    -0.273 OA
ATOM     26  C   UNL     1       0.755  -0.579  23.773  0.00  0.00    +0.015 A 
ATOM     27  C   UNL     1       0.894   0.093  23.315  0.00  0.00    +0.048 A 
ATOM     28  C   UNL     1       0.292   0.647  23.201  0.00  0.00    +0.018 A 
ATOM     29  C   UNL     1      -0.448   0.527  23.545  0.00  0.00    +0.038 A 
ENDROOT
BRANCH  27  30
ATOM     30  N   UNL     1       1.634   0.212  22.971  0.00  0.00    -0.303 N 
ATOM     31  C   UNL     1       2.179   0.718  23.329  0.00  0.00    +0.123 C 
ATOM     32  C   UNL     1       2.919   0.838  22.985  0.00  0.00    +0.164 C 
ATOM     33  O   UNL     1       3.115   0.451  22.283  0.00  0.00    -0.350 OA
ATOM     34  C   UNL     1       2.570  -0.055  21.925  0.00  0.00    +0.164 C 
ATOM     35  C   UNL     1       1.830  -0.174  22.269  0.00  0.00    +0.123 C 
ENDBRANCH  27  30
BRANCH   9   8
ATOM      8  C   UNL     1      -4.688   1.137  24.733  0.00  0.00    +0.085 C 
BRANCH   8   6
ATOM      3  N   UNL     1      -5.498   2.185  25.270  0.00  0.00    -0.280 N 
ATOM      6  C   UNL     1      -4.817   1.722  25.302  0.00  0.00    +0.226 C 
ATOM      7  O   UNL     1      -4.264   1.842  25.903  0.00  0.00    -0.275 OA
BRANCH   3   2
ATOM      1  C   UNL     1      -5.501   3.562  25.651  0.00  0.00    +0.023 C 
ATOM      2  C   UNL     1      -5.628   2.769  25.838  0.00  0.00    +0.093 C 
ENDBRANCH   3   2
BRANCH   3   4
ATOM      4  C   UNL     1      -6.051   2.065  24.669  0.00  0.00    +0.093 C 
ATOM      5  C   UNL     1      -6.851   1.996  24.854  0.00  0.00    +0.023 C 
ENDBRANCH   3   4
ENDBRANCH   8   6
ENDBRANCH   9   8
TORSDOF 5
ENDMDL
MODEL 3
REMARK VINA RESULT:      -9.1     14.375     15.471
REMARK  Name = 
REMARK  5 active torsions:
REMARK  status: ('A' for Active; 'I' for Inactive)
REMARK    1  A    between atoms: C_2  and  N_3
REMARK    2  A    between atoms: N_3  and  C_4
REMARK    3  A    between atoms: C_6  and  C_8
REMARK    4  A    between atoms: C_8  and  C_9
REMARK    5  A    between atoms: C_27  and  N_30
REMARK                            x       y       z     vdW  Elec       q    Type
REMARK                         _______ _______ _______ _____ _____    ______ ____
ROOT
ATOM      9  C   UNL     1      -3.633 -10.630  12.072  0.00  0.00    +0.012 C 
ATOM     10  C   UNL     1      -2.816 -10.695  12.163  0.00  0.00    +0.022 C 
ATOM     11  C   UNL     1      -2.486 -10.719  12.918  0.00  0.00    +0.093 C 
ATOM     12  N   UNL     1      -2.896 -10.683  13.591  0.00  0.00    -0.278 N 
ATOM     13  C   UNL     1      -3.790 -10.613  13.492  0.00  0.00    +0.093 C 
ATOM     14  C   UNL     1      -4.363 -10.569  12.899  0.00  0.00    +0.021 C 
ATOM     15  C   UNL     1      -5.102 -10.509  13.263  0.00  0.00    +0.006 C 
ATOM     16  C   UNL     1      -4.984 -10.516  14.080  0.00  0.00    +0.047 C 
ATOM     17  C   UNL     1      -5.453 -10.476  14.851  0.00  0.00    +0.205 C 
ATOM     18  O   UNL     1      -5.320 -10.484  15.328  0.00  0.00    -0.476 OA
ATOM     19  C   UNL     1      -4.270 -10.567  15.647  0.00  0.00    +0.136 A 
ATOM     20  C   UNL     1      -3.907 -10.593  16.388  0.00  0.00    +0.030 A 
ATOM     21  C   UNL     1      -3.086 -10.658  16.444  0.00  0.00    +0.119 C 
ATOM     22  N   UNL     1      -2.628 -10.697  15.758  0.00  0.00    -0.204 NA
ATOM     23  C   UNL     1      -2.991 -10.671  15.017  0.00  0.00    +0.174 C 
ATOM     24  C   UNL     1      -2.533 -10.710  14.332  0.00  0.00    +0.243 C 
ATOM     25  O   UNL     1      -1.713 -10.775  14.388  0.00  0.00    -0.273 OA
ATOM     26  C   UNL     1      -4.365 -10.554  17.072  0.00  0.00    +0.015 A 
ATOM     27  C   UNL     1      -5.185 -10.489  17.017  0.00  0.00    +0.048 A 
ATOM     28  C   UNL     1      -5.548 -10.463  16.276  0.00  0.00    +0.018 A 
ATOM     29  C   UNL     1      -5.091 -10.502  15.592  0.00  0.00    +0.038 A 
ENDROOT
BRANCH  27  30
ATOM     30  N   UNL     1      -5.643 -10.450  17.702  0.00  0.00    -0.303 N 
ATOM     31  C   UNL     1      -5.312 -10.647  18.432  0.00  0.00    +0.123 C 
ATOM     32  C   UNL     1      -5.770 -10.608  19.117  0.00  0.00    +0.164 C 
ATOM     33  O   UNL     1      -6.560 -10.372  19.073  0.00  0.00    -0.350 OA
ATOM     34  C   UNL     1      -6.890 -10.176  18.343  0.00  0.00    +0.164 C 
ATOM     35  C   UNL     1      -6.433 -10.215  17.658  0.00  0.00    +0.123 C 
ENDBRANCH  27  30
BRANCH   9   8
ATOM      8  C   UNL     1      -3.930 -10.610  11.302  0.00  0.00    +0.085 C 
BRANCH   8   6
ATOM      3  N   UNL     1      -3.949 -10.016  10.003  0.00  0.00    -0.280 N 
ATOM      6  C   UNL     1      -3.706 -10.001  10.790  0.00  0.00    +0.226 C 
ATOM      7  O   UNL     1      -3.240  -9.379  11.068  0.00  0.00    -0.275 OA
BRANCH   3   2
ATOM      1  C   UNL     1      -4.288  -8.873   9.215  0.00  0.00    +0.023 C 
ATOM      2  C   UNL     1      -3.725  -9.408   9.490  0.00  0.00    +0.093 C 
ENDBRANCH   3   2
BRANCH   3   4
ATOM      4  C   UNL     1      -4.415 -10.638   9.725  0.00  0.00    +0.093 C 
ATOM      5  C   UNL     1      -4.471 -10.781   8.915  0.00  0.00    +0.023 C 
ENDBRANCH   3   4
ENDBRANCH   8   6
ENDBRANCH   9   8
TORSDOF 5
ENDMDL
MODEL 4
REMARK VINA RESULT:      -8.4     13.966     14.812
REMARK  Name = 
REMARK  5 active torsions:
REMARK  status: ('A' for Active; 'I' for Inactive)
REMARK    1  A    between atoms: C_2  and  N_3
REMARK    2  A    between atoms: N_3  and  C_4
REMARK    3  A    between atoms: C_6  and  C_8
REMARK    4  A    between atoms: C_8  and  C_9
REMARK    5  A    between atoms: C_27  and  N_30
REMARK                            x       y       z     vdW  Elec       q    Type
REMARK                         _______ _______ _______ _____ _____    ______ ____
ROOT
ATOM      9  C   UNL     1      -4.026 -10.611  13.422  0.00  0.00    +0.012 C 
ATOM     10  C   UNL     1      -3.395 -10.781  13.925  0.00  0.00    +0.022 C 
ATOM     11  C   UNL     1      -3.503 -10.759  14.743  0.00  0.00    +0.093 C 
ATOM     12  N   UNL     1      -4.183 -10.583  15.104  0.00  0.00    -0.278 N 
ATOM     13  C   UNL     1      -4.873 -10.397  14.552  0.00  0.00    +0.093 C 
ATOM     14  C   UNL     1      -5.048 -10.345  13.747  0.00  0.00    +0.021 C 
ATOM     15  C   UNL     1      -5.843 -10.135  13.672  0.00  0.00    +0.006 C 
ATOM     16  C   UNL     1      -6.157 -10.057  14.431  0.00  0.00    +0.047 C 
ATOM     17  C   UNL     1      -6.935  -9.856  14.844  0.00  0.00    +0.205 C 
ATOM     18  O   UNL     1      -7.066  -9.825  15.321  0.00  0.00    -0.476 OA
ATOM     19  C   UNL     1      -6.357 -10.017  16.141  0.00  0.00    +0.136 A 
ATOM     20  C   UNL     1      -6.431 -10.004  16.963  0.00  0.00    +0.030 A 
ATOM     21  C   UNL     1      -5.781 -10.179  17.439  0.00  0.00    +0.119 C 
ATOM     22  N   UNL     1      -5.055 -10.367  17.093  0.00  0.00    -0.204 NA
ATOM     23  C   UNL     1      -4.981 -10.381  16.271  0.00  0.00    +0.174 C 
ATOM     24  C   UNL     1      -4.257 -10.569  15.925  0.00  0.00    +0.243 C 
ATOM     25  O   UNL     1      -3.606 -10.744  16.401  0.00  0.00    -0.273 OA
ATOM     26  C   UNL     1      -7.156  -9.816  17.309  0.00  0.00    +0.015 A 
ATOM     27  C   UNL     1      -7.807  -9.641  16.834  0.00  0.00    +0.048 A 
ATOM     28  C   UNL     1      -7.733  -9.654  16.012  0.00  0.00    +0.018 A 
ATOM     29  C   UNL     1      -7.009  -9.842  15.666  0.00  0.00    +0.038 A 
ENDROOT
BRANCH  27  30
ATOM     30  N   UNL     1      -8.532  -9.452  17.180  0.00  0.00    -0.303 N 
ATOM     31  C   UNL     1      -8.756  -8.663  17.266  0.00  0.00    +0.123 C 
ATOM     32  C   UNL     1      -9.480  -8.474  17.611  0.00  0.00    +0.164 C 
ATOM     33  O   UNL     1      -9.982  -9.075  17.871  0.00  0.00    -0.350 OA
ATOM     34  C   UNL     1      -9.758  -9.865  17.785  0.00  0.00    +0.164 C 
ATOM     35  C   UNL     1      -9.033 -10.053  17.440  0.00  0.00    +0.123 C 
ENDBRANCH  27  30
BRANCH   9   8
ATOM      8  C   UNL     1      -3.883 -10.643  12.609  0.00  0.00    +0.085 C 
BRANCH   8   6
ATOM      3  N   UNL     1      -3.065 -10.289  11.492  0.00  0.00    -0.280 N 
ATOM      6  C   UNL     1      -3.164 -10.371  12.306  0.00  0.00    +0.226 C 
ATOM      7  O   UNL     1      -2.546 -10.181  12.819  0.00  0.00    -0.275 OA
BRANCH   3   2
ATOM      1  C   UNL     1      -2.331  -9.349  10.704  0.00  0.00    +0.023 C 
ATOM      2  C   UNL     1      -2.347 -10.016  11.189  0.00  0.00    +0.093 C 
ENDBRANCH   3   2
BRANCH   3   4
ATOM      4  C   UNL     1      -3.684 -10.478  10.980  0.00  0.00    +0.093 C 
ATOM      5  C   UNL     1      -3.531 -10.600  10.178  0.00  0.00    +0.023 C 
ENDBRANCH   3   4
ENDBRANCH   8   6
ENDBRANCH   9   8
TORSDOF 5
ENDMDL
MODEL 5
REMARK VINA RESULT:      -8.3      1.621      6.487
REMARK  Name = 
REMARK  5 active torsions:
REMARK  status: ('A' for Active; 'I' for Inactive)
REMARK    1  A    between atoms: C_2  and  N_3
REMARK    2  A    between atoms: N_3  and  C_4
REMARK    3  A    between atoms: C_6  and  C_8
REMARK    4  A    between atoms: C_8  and  C_9
REMARK    5  A    between atoms: C_27  and  N_30
REMARK                            x       y       z     vdW  Elec       q    Type
REMARK                         _______ _______ _______ _____ _____    ______ ____
ROOT
ATOM      9  C   UNL     1      -4.088   3.007  25.088  0.00  0.00    +0.012 C 
ATOM     10  C   UNL     1      -3.858   3.651  25.549  0.00  0.00    +0.022 C 
ATOM     11  C   UNL     1      -3.056   3.817  25.653  0.00  0.00    +0.093 C 
ATOM     12  N   UNL     1      -2.465   3.399  25.341  0.00  0.00    -0.278 N 
ATOM     13  C   UNL     1      -2.717   2.694  24.836  0.00  0.00    +0.093 C 
ATOM     14  C   UNL     1      -3.401   2.312  24.573  0.00  0.00    +0.021 C 
ATOM     15  C   UNL     1      -3.170   1.671  24.106  0.00  0.00    +0.006 C 
ATOM     16  C   UNL     1      -2.345   1.659  24.082  0.00  0.00    +0.047 C 
ATOM     17  C   UNL     1      -1.668   1.181  23.724  0.00  0.00    +0.205 C 
ATOM     18  O   UNL     1      -1.174   1.225  23.746  0.00  0.00    -0.476 OA
ATOM     19  C   UNL     1      -0.679   2.026  24.315  0.00  0.00    +0.136 A 
ATOM     20  C   UNL     1       0.114   2.220  24.441  0.00  0.00    +0.030 A 
ATOM     21  C   UNL     1       0.311   2.871  24.907  0.00  0.00    +0.119 C 
ATOM     22  N   UNL     1      -0.285   3.329  25.249  0.00  0.00    -0.204 NA
ATOM     23  C   UNL     1      -1.078   3.135  25.124  0.00  0.00    +0.174 C 
ATOM     24  C   UNL     1      -1.673   3.592  25.465  0.00  0.00    +0.243 C 
ATOM     25  O   UNL     1      -1.475   4.243  25.932  0.00  0.00    -0.273 OA
ATOM     26  C   UNL     1       0.709   1.762  24.099  0.00  0.00    +0.015 A 
ATOM     27  C   UNL     1       0.513   1.111  23.632  0.00  0.00    +0.048 A 
ATOM     28  C   UNL     1      -0.280   0.917  23.507  0.00  0.00    +0.018 A 
ATOM     29  C   UNL     1      -0.875   1.374  23.849  0.00  0.00    +0.038 A 
ENDROOT
BRANCH  27  30
ATOM     30  N   UNL     1       1.108   0.653  23.291  0.00  0.00    -0.303 N 
ATOM     31  C   UNL     1       1.883   0.934  23.268  0.00  0.00    +0.123 C 
ATOM     32  C   UNL     1       2.478   0.477  22.926  0.00  0.00    +0.164 C 
ATOM     33  O   UNL     1       2.298  -0.263  22.607  0.00  0.00    -0.350 OA
ATOM     34  C   UNL     1       1.523  -0.544  22.630  0.00  0.00    +0.164 C 
ATOM     35  C   UNL     1       0.928  -0.086  22.972  0.00  0.00    +0.123 C 
ENDBRANCH  27  30
BRANCH   9   8
ATOM      8  C   UNL     1      -4.898   2.870  25.004  0.00  0.00    +0.085 C 
BRANCH   8   6
ATOM      3  N   UNL     1      -5.988   2.218  25.659  0.00  0.00    -0.280 N 
ATOM      6  C   UNL     1      -5.370   2.763  25.674  0.00  0.00    +0.226 C 
ATOM      7  O   UNL     1      -5.222   3.201  26.357  0.00  0.00    -0.275 OA
BRANCH   3   2
ATOM      1  C   UNL     1      -6.470   1.381  26.712  0.00  0.00    +0.023 C 
ATOM      2  C   UNL     1      -6.460   2.110  26.328  0.00  0.00    +0.093 C 
ENDBRANCH   3   2
BRANCH   3   4
ATOM      4  C   UNL     1      -6.136   1.779  24.976  0.00  0.00    +0.093 C 
ATOM      5  C   UNL     1      -6.899   1.746  24.666  0.00  0.00    +0.023 C 
ENDBRANCH   3   4
ENDBRANCH   8   6
ENDBRANCH   9   8
TORSDOF 5
ENDMDL
MODEL 6
REMARK VINA RESULT:      -8.2      1.435      2.350
REMARK  Name = 
REMARK  5 active torsions:
REMARK  status: ('A' for Active; 'I' for Inactive)
REMARK    1  A    between atoms: C_2  and  N_3
REMARK    2  A    between atoms: N_3  and  C_4
REMARK    3  A    between atoms: C_6  and  C_8
REMARK    4  A    between atoms: C_8  and  C_9
REMARK    5  A    between atoms: C_27  and  N_30
REMARK                            x       y       z     vdW  Elec       q    Type
REMARK                         _______ _______ _______ _____ _____    ______ ____
ROOT
ATOM      9  C   UNL     1       0.416   1.227  23.878  0.00  0.00    +0.012 C 
ATOM     10  C   UNL     1       0.758   1.962  24.025  0.00  0.00    +0.022 C 
ATOM     11  C   UNL     1       0.293   2.585  24.302  0.00  0.00    +0.093 C 
ATOM     12  N   UNL     1      -0.482   2.541  24.445  0.00  0.00    -0.278 N 
ATOM     13  C   UNL     1      -0.856   1.735  24.284  0.00  0.00    +0.093 C 
ATOM     14  C   UNL     1      -0.651   0.979  24.021  0.00  0.00    +0.021 C 
ATOM     15  C   UNL     1      -1.335   0.516  24.023  0.00  0.00    +0.006 C 
ATOM     16  C   UNL     1      -1.959   0.985  24.287  0.00  0.00    +0.047 C 
ATOM     17  C   UNL     1      -2.846   0.935  24.451  0.00  0.00    +0.205 C 
ATOM     18  O   UNL     1      -3.179   1.264  24.615  0.00  0.00    -0.476 OA
ATOM     19  C   UNL     1      -2.909   2.301  24.865  0.00  0.00    +0.136 A 
ATOM     20  C   UNL     1      -3.345   2.945  25.142  0.00  0.00    +0.030 A 
ATOM     21  C   UNL     1      -2.973   3.668  25.279  0.00  0.00    +0.119 C 
ATOM     22  N   UNL     1      -2.163   3.748  25.139  0.00  0.00    -0.204 NA
ATOM     23  C   UNL     1      -1.727   3.104  24.862  0.00  0.00    +0.174 C 
ATOM     24  C   UNL     1      -0.918   3.184  24.722  0.00  0.00    +0.243 C 
ATOM     25  O   UNL     1      -0.546   3.907  24.859  0.00  0.00    -0.273 OA
ATOM     26  C   UNL     1      -4.154   2.865  25.282  0.00  0.00    +0.015 A 
ATOM     27  C   UNL     1      -4.528   2.142  25.145  0.00  0.00    +0.048 A 
ATOM     28  C   UNL     1      -4.091   1.498  24.868  0.00  0.00    +0.018 A 
ATOM     29  C   UNL     1      -3.283   1.578  24.728  0.00  0.00    +0.038 A 
ENDROOT
BRANCH  27  30
ATOM     30  N   UNL     1      -5.336   2.062  25.285  0.00  0.00    -0.303 N 
ATOM     31  C   UNL     1      -5.856   1.949  24.654  0.00  0.00    +0.123 C 
ATOM     32  C   UNL     1      -6.664   1.869  24.794  0.00  0.00    +0.164 C 
ATOM     33  O   UNL     1      -6.955   1.902  25.566  0.00  0.00    -0.350 OA
ATOM     34  C   UNL     1      -6.436   2.015  26.197  0.00  0.00    +0.164 C 
ATOM     35  C   UNL     1      -5.627   2.095  26.057  0.00  0.00    +0.123 C 
ENDBRANCH  27  30
BRANCH   9   8
ATOM      8  C   UNL     1       0.911   0.626  23.601  0.00  0.00    +0.085 C 
BRANCH   8   6
ATOM      3  N   UNL     1       2.046   0.328  22.788  0.00  0.00    -0.280 N 
ATOM      6  C   UNL     1       1.675   0.806  23.347  0.00  0.00    +0.226 C 
ATOM      7  O   UNL     1       2.068   1.465  23.653  0.00  0.00    -0.275 OA
BRANCH   3   2
ATOM      1  C   UNL     1       3.441   0.020  22.745  0.00  0.00    +0.023 C 
ATOM      2  C   UNL     1       2.811   0.507  22.533  0.00  0.00    +0.093 C 
ENDBRANCH   3   2
BRANCH   3   4
ATOM      4  C   UNL     1       1.654  -0.330  22.481  0.00  0.00    +0.093 C 
ATOM      5  C   UNL     1       1.665  -0.475  21.670  0.00  0.00    +0.023 C 
ENDBRANCH   3   4
ENDBRANCH   8   6
ENDBRANCH   9   8
TORSDOF 5
ENDMDL
MODEL 7
REMARK VINA RESULT:      -7.8      3.036      5.048
REMARK  Name = 
REMARK  5 active torsions:
REMARK  status: ('A' for Active; 'I' for Inactive)
REMARK    1  A    between atoms: C_2  and  N_3
REMARK    2  A    between atoms: N_3  and  C_4
REMARK    3  A    between atoms: C_6  and  C_8
REMARK    4  A    between atoms: C_8  and  C_9
REMARK    5  A    between atoms: C_27  and  N_30
REMARK                            x       y       z     vdW  Elec       q    Type
REMARK                         _______ _______ _______ _____ _____    ______ ____
ROOT
ATOM      9  C   UNL     1      -4.403  -0.466  24.465  0.00  0.00    +0.012 C 
ATOM     10  C   UNL     1      -5.138  -0.313  24.807  0.00  0.00    +0.022 C 
ATOM     11  C   UNL     1      -5.305   0.438  25.106  0.00  0.00    +0.093 C 
ATOM     12  N   UNL     1      -4.807   1.049  25.094  0.00  0.00    -0.278 N 
ATOM     13  C   UNL     1      -4.003   0.881  24.720  0.00  0.00    +0.093 C 
ATOM     14  C   UNL     1      -3.583   0.267  24.362  0.00  0.00    +0.021 C 
ATOM     15  C   UNL     1      -2.838   0.555  24.152  0.00  0.00    +0.006 C 
ATOM     16  C   UNL     1      -2.799   1.347  24.380  0.00  0.00    +0.047 C 
ATOM     17  C   UNL     1      -2.229   2.048  24.367  0.00  0.00    +0.205 C 
ATOM     18  O   UNL     1      -2.265   2.516  24.526  0.00  0.00    -0.476 OA
ATOM     19  C   UNL     1      -3.173   2.906  25.010  0.00  0.00    +0.136 A 
ATOM     20  C   UNL     1      -3.373   3.646  25.318  0.00  0.00    +0.030 A 
ATOM     21  C   UNL     1      -4.117   3.766  25.654  0.00  0.00    +0.119 C 
ATOM     22  N   UNL     1      -4.662   3.146  25.681  0.00  0.00    -0.204 NA
ATOM     23  C   UNL     1      -4.462   2.407  25.374  0.00  0.00    +0.174 C 
ATOM     24  C   UNL     1      -5.006   1.788  25.401  0.00  0.00    +0.243 C 
ATOM     25  O   UNL     1      -5.750   1.908  25.737  0.00  0.00    -0.273 OA
ATOM     26  C   UNL     1      -2.829   4.265  25.290  0.00  0.00    +0.015 A 
ATOM     27  C   UNL     1      -2.085   4.145  24.955  0.00  0.00    +0.048 A 
ATOM     28  C   UNL     1      -1.884   3.406  24.647  0.00  0.00    +0.018 A 
ATOM     29  C   UNL     1      -2.429   2.787  24.675  0.00  0.00    +0.038 A 
ENDROOT
BRANCH  27  30
ATOM     30  N   UNL     1      -1.540   4.764  24.927  0.00  0.00    -0.303 N 
ATOM     31  C   UNL     1      -0.733   4.602  24.874  0.00  0.00    +0.123 C 
ATOM     32  C   UNL     1      -0.189   5.221  24.846  0.00  0.00    +0.164 C 
ATOM     33  O   UNL     1      -0.451   6.003  24.871  0.00  0.00    -0.350 OA
ATOM     34  C   UNL     1      -1.258   6.165  24.924  0.00  0.00    +0.164 C 
ATOM     35  C   UNL     1      -1.802   5.546  24.952  0.00  0.00    +0.123 C 
ENDBRANCH  27  30
BRANCH   9   8
ATOM      8  C   UNL     1      -4.269  -1.228  24.177  0.00  0.00    +0.085 C 
BRANCH   8   6
ATOM      3  N   UNL     1      -3.753  -2.547  24.365  0.00  0.00    -0.280 N 
ATOM      6  C   UNL     1      -3.931  -1.801  24.667  0.00  0.00    +0.226 C 
ATOM      7  O   UNL     1      -3.770  -1.625  25.457  0.00  0.00    -0.275 OA
BRANCH   3   2
ATOM      1  C   UNL     1      -2.608  -3.286  24.798  0.00  0.00    +0.023 C 
ATOM      2  C   UNL     1      -3.414  -3.120  24.854  0.00  0.00    +0.093 C 
ENDBRANCH   3   2
BRANCH   3   4
ATOM      4  C   UNL     1      -3.913  -2.722  23.575  0.00  0.00    +0.093 C 
ATOM      5  C   UNL     1      -4.253  -3.447  23.375  0.00  0.00    +0.023 C 
ENDBRANCH   3   4
ENDBRANCH   8   6
ENDBRANCH   9   8
TORSDOF 5
ENDMDL
MODEL 8
REMARK VINA RESULT:      -7.2     14.370     15.400
REMARK  Name = 
REMARK  5 active torsions:
REMARK  status: ('A' for Active; 'I' for Inactive)
REMARK    1  A    between atoms: C_2  and  N_3
REMARK    2  A    between atoms: N_3  and  C_4
REMARK    3  A    between atoms: C_6  and  C_8
REMARK    4  A    between atoms: C_8  and  C_9
REMARK    5  A    between atoms: C_27  and  N_30
REMARK                            x       y       z     vdW  Elec       q    Type
REMARK                         _______ _______ _______ _____ _____    ______ ____
ROOT
ATOM      9  C   UNL     1      -5.845 -10.048  12.411  0.00  0.00    +0.012 C 
ATOM     10  C   UNL     1      -6.590  -9.806  12.153  0.00  0.00    +0.022 C 
ATOM     11  C   UNL     1      -7.199  -9.694  12.699  0.00  0.00    +0.093 C 
ATOM     12  N   UNL     1      -7.132  -9.800  13.478  0.00  0.00    -0.278 N 
ATOM     13  C   UNL     1      -6.316 -10.064  13.760  0.00  0.00    +0.093 C 
ATOM     14  C   UNL     1      -5.567 -10.245  13.463  0.00  0.00    +0.021 C 
ATOM     15  C   UNL     1      -5.085 -10.454  14.099  0.00  0.00    +0.006 C 
ATOM     16  C   UNL     1      -5.535 -10.402  14.788  0.00  0.00    +0.047 C 
ATOM     17  C   UNL     1      -5.460 -10.524  15.680  0.00  0.00    +0.205 C 
ATOM     18  O   UNL     1      -5.778 -10.475  16.056  0.00  0.00    -0.476 OA
ATOM     19  C   UNL     1      -6.822 -10.160  15.907  0.00  0.00    +0.136 A 
ATOM     20  C   UNL     1      -7.453 -10.038  16.425  0.00  0.00    +0.030 A 
ATOM     21  C   UNL     1      -8.186  -9.796  16.135  0.00  0.00    +0.119 C 
ATOM     22  N   UNL     1      -8.289  -9.676  15.324  0.00  0.00    -0.204 NA
ATOM     23  C   UNL     1      -7.658  -9.798  14.806  0.00  0.00    +0.174 C 
ATOM     24  C   UNL     1      -7.762  -9.678  13.996  0.00  0.00    +0.243 C 
ATOM     25  O   UNL     1      -8.495  -9.436  13.706  0.00  0.00    -0.273 OA
ATOM     26  C   UNL     1      -7.350 -10.158  17.235  0.00  0.00    +0.015 A 
ATOM     27  C   UNL     1      -6.617 -10.400  17.526  0.00  0.00    +0.048 A 
ATOM     28  C   UNL     1      -5.986 -10.522  17.008  0.00  0.00    +0.018 A 
ATOM     29  C   UNL     1      -6.089 -10.402  16.198  0.00  0.00    +0.038 A 
ENDROOT
BRANCH  27  30
ATOM     30  N   UNL     1      -6.514 -10.520  18.336  0.00  0.00    -0.303 N 
ATOM     31  C   UNL     1      -7.169 -10.643  18.822  0.00  0.00    +0.123 C 
ATOM     32  C   UNL     1      -7.066 -10.763  19.631  0.00  0.00    +0.164 C 
ATOM     33  O   UNL     1      -6.307 -10.760  19.956  0.00  0.00    -0.350 OA
ATOM     34  C   UNL     1      -5.652 -10.637  19.469  0.00  0.00    +0.164 C 
ATOM     35  C   UNL     1      -5.755 -10.517  18.660  0.00  0.00    +0.123 C 
ENDBRANCH  27  30
BRANCH   9   8
ATOM      8  C   UNL     1      -5.259 -10.151  11.839  0.00  0.00    +0.085 C 
BRANCH   8   6
ATOM      3  N   UNL     1      -4.449  -9.619  10.789  0.00  0.00    -0.280 N 
ATOM      6  C   UNL     1      -5.021  -9.512  11.373  0.00  0.00    +0.226 C 
ATOM      7  O   UNL     1      -5.354  -8.767  11.494  0.00  0.00    -0.275 OA
BRANCH   3   2
ATOM      1  C   UNL     1      -3.414  -8.887  10.130  0.00  0.00    +0.023 C 
ATOM      2  C   UNL     1      -4.210  -8.981  10.323  0.00  0.00    +0.093 C 
ENDBRANCH   3   2
BRANCH   3   4
ATOM      4  C   UNL     1      -4.116 -10.365  10.668  0.00  0.00    +0.093 C 
ATOM      5  C   UNL     1      -3.995 -10.642   9.901  0.00  0.00    +0.023 C 
ENDBRANCH   3   4
ENDBRANCH   8   6
ENDBRANCH   9   8
TORSDOF 5
ENDMDL
MODEL 9
REMARK VINA RESULT:      -7.2     16.805     18.143
REMARK  Name = 
REMARK  5 active torsions:
REMARK  status: ('A' for Active; 'I' for Inactive)
REMARK    1  A    between atoms: C_2  and  N_3
REMARK    2  A    between atoms: N_3  and  C_4
REMARK    3  A    between atoms: C_6  and  C_8
REMARK    4  A    between atoms: C_8  and  C_9
REMARK    5  A    between atoms: C_27  and  N_30
REMARK                            x       y       z     vdW  Elec       q    Type
REMARK                         _______ _______ _______ _____ _____    ______ ____
ROOT
ATOM      9  C   UNL     1      -7.154  -9.001   9.169  0.00  0.00    +0.012 C 
ATOM     10  C   UNL     1      -6.747  -9.100   8.458  0.00  0.00    +0.022 C 
ATOM     11  C   UNL     1      -5.960  -9.349   8.465  0.00  0.00    +0.093 C 
ATOM     12  N   UNL     1      -5.543  -9.508   9.115  0.00  0.00    -0.278 N 
ATOM     13  C   UNL     1      -5.988  -9.400   9.893  0.00  0.00    +0.093 C 
ATOM     14  C   UNL     1      -6.732  -9.177  10.174  0.00  0.00    +0.021 C 
ATOM     15  C   UNL     1      -6.714  -9.217  10.999  0.00  0.00    +0.006 C 
ATOM     16  C   UNL     1      -5.960  -9.465  11.225  0.00  0.00    +0.047 C 
ATOM     17  C   UNL     1      -5.482  -9.648  11.969  0.00  0.00    +0.205 C 
ATOM     18  O   UNL     1      -5.015  -9.798  12.043  0.00  0.00    -0.476 OA
ATOM     19  C   UNL     1      -4.317  -9.984  11.212  0.00  0.00    +0.136 A 
ATOM     20  C   UNL     1      -3.530 -10.231  11.183  0.00  0.00    +0.030 A 
ATOM     21  C   UNL     1      -3.152 -10.320  10.455  0.00  0.00    +0.119 C 
ATOM     22  N   UNL     1      -3.561 -10.161   9.755  0.00  0.00    -0.204 NA
ATOM     23  C   UNL     1      -4.348  -9.914   9.785  0.00  0.00    +0.174 C 
ATOM     24  C   UNL     1      -4.756  -9.755   9.086  0.00  0.00    +0.243 C 
ATOM     25  O   UNL     1      -4.378  -9.844   8.359  0.00  0.00    -0.273 OA
ATOM     26  C   UNL     1      -3.122 -10.390  11.881  0.00  0.00    +0.015 A 
ATOM     27  C   UNL     1      -3.500 -10.301  12.610  0.00  0.00    +0.048 A 
ATOM     28  C   UNL     1      -4.287 -10.054  12.639  0.00  0.00    +0.018 A 
ATOM     29  C   UNL     1      -4.695  -9.895  11.940  0.00  0.00    +0.038 A 
ENDROOT
BRANCH  27  30
ATOM     30  N   UNL     1      -3.091 -10.460  13.308  0.00  0.00    -0.303 N 
ATOM     31  C   UNL     1      -2.266 -10.458  13.314  0.00  0.00    +0.123 C 
ATOM     32  C   UNL     1      -1.858 -10.616  14.013  0.00  0.00    +0.164 C 
ATOM     33  O   UNL     1      -2.274 -10.777  14.707  0.00  0.00    -0.350 OA
ATOM     34  C   UNL     1      -3.099 -10.779  14.701  0.00  0.00    +0.164 C 
ATOM     35  C   UNL     1      -3.508 -10.621  14.002  0.00  0.00    +0.123 C 
ENDBRANCH  27  30
BRANCH   9   8
ATOM      8  C   UNL     1      -7.939  -8.751   9.125  0.00  0.00    +0.085 C 
BRANCH   8   6
ATOM      3  N   UNL     1      -8.874  -7.720   8.802  0.00  0.00    -0.280 N 
ATOM      6  C   UNL     1      -8.131  -8.063   8.710  0.00  0.00    +0.226 C 
ATOM      7  O   UNL     1      -7.577  -7.720   8.203  0.00  0.00    -0.275 OA
BRANCH   3   2
ATOM      1  C   UNL     1      -9.438  -6.407   8.776  0.00  0.00    +0.023 C 
ATOM      2  C   UNL     1      -9.067  -7.032   8.388  0.00  0.00    +0.093 C 
ENDBRANCH   3   2
BRANCH   3   4
ATOM      4  C   UNL     1      -9.428  -8.064   9.309  0.00  0.00    +0.093 C 
ATOM      5  C   UNL     1     -10.230  -8.038   9.121  0.00  0.00    +0.023 C 
ENDBRANCH   3   4
ENDBRANCH   8   6
ENDBRANCH   9   8
TORSDOF 5
ENDMDL
MODEL 10
REMARK VINA RESULT:      -7.2     15.416     16.558
REMARK  Name = 
REMARK  5 active torsions:
REMARK  status: ('A' for Active; 'I' for Inactive)
REMARK    1  A    between atoms: C_2  and  N_3
REMARK    2  A    between atoms: N_3  and  C_4
REMARK    3  A    between atoms: C_6  and  C_8
REMARK    4  A    between atoms: C_8  and  C_9
REMARK    5  A    between atoms: C_27  and  N_30
REMARK                            x       y       z     vdW  Elec       q    Type
REMARK                         _______ _______ _______ _____ _____    ______ ____
ROOT
ATOM      9  C   UNL     1      -6.320  -9.572  10.746  0.00  0.00    +0.012 C 
ATOM     10  C   UNL     1      -5.629  -9.769  10.342  0.00  0.00    +0.022 C 
ATOM     11  C   UNL     1      -4.967 -10.028  10.760  0.00  0.00    +0.093 C 
ATOM     12  N   UNL     1      -4.931 -10.108  11.544  0.00  0.00    -0.278 N 
ATOM     13  C   UNL     1      -5.687  -9.892  11.987  0.00  0.00    +0.093 C 
ATOM     14  C   UNL     1      -6.454  -9.621  11.842  0.00  0.00    +0.021 C 
ATOM     15  C   UNL     1      -6.841  -9.554  12.568  0.00  0.00    +0.006 C 
ATOM     16  C   UNL     1      -6.313  -9.782  13.160  0.00  0.00    +0.047 C 
ATOM     17  C   UNL     1      -6.271  -9.874  14.057  0.00  0.00    +0.205 C 
ATOM     18  O   UNL     1      -5.912 -10.021  14.366  0.00  0.00    -0.476 OA
ATOM     19  C   UNL     1      -4.916 -10.325  14.009  0.00  0.00    +0.136 A 
ATOM     20  C   UNL     1      -4.236 -10.587  14.396  0.00  0.00    +0.030 A 
ATOM     21  C   UNL     1      -3.561 -10.777  13.962  0.00  0.00    +0.119 C 
ATOM     22  N   UNL     1      -3.565 -10.704  13.139  0.00  0.00    -0.204 NA
ATOM     23  C   UNL     1      -4.246 -10.442  12.752  0.00  0.00    +0.174 C 
ATOM     24  C   UNL     1      -4.251 -10.370  11.931  0.00  0.00    +0.243 C 
ATOM     25  O   UNL     1      -3.576 -10.559  11.497  0.00  0.00    -0.273 OA
ATOM     26  C   UNL     1      -4.231 -10.660  15.218  0.00  0.00    +0.015 A 
ATOM     27  C   UNL     1      -4.906 -10.470  15.653  0.00  0.00    +0.048 A 
ATOM     28  C   UNL     1      -5.586 -10.208  15.266  0.00  0.00    +0.018 A 
ATOM     29  C   UNL     1      -5.591 -10.136  14.444  0.00  0.00    +0.038 A 
ENDROOT
BRANCH  27  30
ATOM     30  N   UNL     1      -4.901 -10.543  16.474  0.00  0.00    -0.303 N 
ATOM     31  C   UNL     1      -4.189 -10.655  16.875  0.00  0.00    +0.123 C 
ATOM     32  C   UNL     1      -4.184 -10.727  17.697  0.00  0.00    +0.164 C 
ATOM     33  O   UNL     1      -4.892 -10.688  18.118  0.00  0.00    -0.350 OA
ATOM     34  C   UNL     1      -5.604 -10.576  17.718  0.00  0.00    +0.164 C 
ATOM     35  C   UNL     1      -5.609 -10.503  16.896  0.00  0.00    +0.123 C 
ENDBRANCH  27  30
BRANCH   9   8
ATOM      8  C   UNL     1      -6.964  -9.317  10.297  0.00  0.00    +0.085 C 
BRANCH   8   6
ATOM      3  N   UNL     1      -7.554  -8.361   9.414  0.00  0.00    -0.280 N 
ATOM      6  C   UNL     1      -6.901  -8.634   9.836  0.00  0.00    +0.226 C 
ATOM      7  O   UNL     1      -6.184  -8.227   9.798  0.00  0.00    -0.275 OA
BRANCH   3   2
ATOM      1  C   UNL     1      -7.653  -7.710   8.145  0.00  0.00    +0.023 C 
ATOM      2  C   UNL     1      -7.491  -7.679   8.953  0.00  0.00    +0.093 C 
ENDBRANCH   3   2
BRANCH   3   4
ATOM      4  C   UNL     1      -8.270  -8.768   9.451  0.00  0.00    +0.093 C 
ATOM      5  C   UNL     1      -8.980  -8.349   9.492  0.00  0.00    +0.023 C 
ENDBRANCH   3   4
ENDBRANCH   8   6
ENDBRANCH   9   8
TORSDOF 5
ENDMDL
