MODEL 1
REMARK VINA RESULT:     -11.2      0.000      0.000
REMARK  Name = 
REMARK  6 active torsions:
REMARK  status: ('A' for Active; 'I' for Inactive)
REMARK    1  A    between atoms: N_4  and  C_5
REMARK    2  A    between atoms: C_8  and  C_11
REMARK    3  A    between atoms: N_17  and  C_18
REMARK    4  A    between atoms: C_18  and  C_19
REMARK    5  A    between atoms: C_19  and  C_20
REMARK    6  A    between atoms: C_20  and  C_21
REMARK                            x       y       z     vdW  Elec       q    Type
REMARK                         _______ _______ _______ _____ _____    ______ ____
ROOT
ATOM     11  C   UNL     1      -2.075  -0.246  25.153  0.00  0.00    +0.012 A 
ATOM     12  C   UNL     1      -2.380   0.424  24.781  0.00  0.00    +0.041 A 
ATOM     13  C   UNL     1      -3.052   0.678  24.209  0.00  0.00    +0.054 C 
ATOM     14  C   UNL     1      -3.592   0.418  23.843  0.00  0.00    +0.011 C 
ATOM     15  C   UNL     1      -3.243   1.143  23.967  0.00  0.00    +0.039 C 
ATOM     16  C   UNL     1      -2.967   2.092  23.990  0.00  0.00    +0.074 C 
ATOM     17  N   UNL     1      -2.314   2.035  24.508  0.00  0.00    -0.272 NA
ATOM     27  C   UNL     1      -2.798   1.599  24.221  0.00  0.00    +0.078 C 
ATOM     28  C   UNL     1      -2.538   0.887  24.566  0.00  0.00    +0.110 C 
ATOM     29  N   UNL     1      -2.029   1.161  24.905  0.00  0.00    -0.299 N 
ATOM     30  C   UNL     1      -1.373   1.227  25.401  0.00  0.00    +0.261 A 
ATOM     31  O   UNL     1      -1.023   1.964  25.524  0.00  0.00    -0.267 OA
ATOM     32  C   UNL     1      -1.068   0.558  25.773  0.00  0.00    +0.061 A 
ATOM     33  C   UNL     1      -1.419  -0.179  25.649  0.00  0.00    +0.006 A 
ENDROOT
BRANCH  11   8
ATOM      5  C   UNL     1      -3.127  -2.455  24.782  0.00  0.00    +0.073 A 
ATOM      6  C   UNL     1      -3.430  -1.945  25.355  0.00  0.00    +0.017 A 
ATOM      7  C   UNL     1      -3.079  -1.209  25.479  0.00  0.00    +0.001 A 
ATOM      8  C   UNL     1      -2.426  -0.982  25.030  0.00  0.00    +0.001 A 
ATOM      9  C   UNL     1      -2.123  -1.492  24.457  0.00  0.00    +0.001 A 
ATOM     10  C   UNL     1      -2.473  -2.229  24.333  0.00  0.00    +0.017 A 
BRANCH   5   4
ATOM      1  C   UNL     1      -4.407  -4.016  23.953  0.00  0.00    +0.097 C 
ATOM      2  C   UNL     1      -4.056  -3.281  24.077  0.00  0.00    +0.246 C 
ATOM      3  O   UNL     1      -4.283  -2.633  23.619  0.00  0.00    -0.273 OA
ATOM      4  N   UNL     1      -3.478  -3.191  24.659  0.00  0.00    -0.179 NA
ENDBRANCH   5   4
ENDBRANCH  11   8
BRANCH  17  18
ATOM     18  C   UNL     1      -1.667   2.276  24.961  0.00  0.00    +0.072 C 
BRANCH  18  19
ATOM     19  C   UNL     1      -1.317   3.010  24.822  0.00  0.00    +0.022 C 
BRANCH  19  20
ATOM     20  C   UNL     1      -1.316   3.585  25.413  0.00  0.00    +0.028 C 
BRANCH  20  21
ATOM     21  C   UNL     1      -1.265   4.383  25.212  0.00  0.00    -0.022 A 
ATOM     22  C   UNL     1      -0.594   4.668  24.824  0.00  0.00    -0.004 A 
ATOM     23  C   UNL     1      -0.543   5.466  24.622  0.00  0.00    -0.000 A 
ATOM     24  C   UNL     1      -1.161   5.980  24.807  0.00  0.00    -0.000 A 
ATOM     25  C   UNL     1      -1.832   5.695  25.195  0.00  0.00    -0.000 A 
ATOM     26  C   UNL     1      -1.883   4.897  25.397  0.00  0.00    -0.004 A 
ENDBRANCH  20  21
ENDBRANCH  19  20
ENDBRANCH  18  19
ENDBRANCH  17  18
TORSDOF 6
ENDMDL
MODEL 2
REMARK VINA RESULT:     -10.4      1.434      5.921
REMARK  Name = 
REMARK  6 active torsions:
REMARK  status: ('A' for Active; 'I' for Inactive)
REMARK    1  A    between atoms: N_4  and  C_5
REMARK    2  A    between atoms: C_8  and  C_11
REMARK    3  A    between atoms: N_17  and  C_18
REMARK    4  A    between atoms: C_18  and  C_19
REMARK    5  A    between atoms: C_19  and  C_20
REMARK    6  A    between atoms: C_20  and  C_21
REMARK                            x       y       z     vdW  Elec       q    Type
REMARK                         _______ _______ _______ _____ _____    ______ ____
ROOT
ATOM     11  C   UNL     1      -3.317   2.520  24.945  0.00  0.00    +0.012 A 
ATOM     12  C   UNL     1      -2.913   1.874  24.629  0.00  0.00    +0.041 A 
ATOM     13  C   UNL     1      -2.093   1.645  24.284  0.00  0.00    +0.054 C 
ATOM     14  C   UNL     1      -1.461   1.915  24.140  0.00  0.00    +0.011 C 
ATOM     15  C   UNL     1      -1.838   1.196  24.074  0.00  0.00    +0.039 C 
ATOM     16  C   UNL     1      -2.114   0.261  23.915  0.00  0.00    +0.074 C 
ATOM     17  N   UNL     1      -2.900   0.298  24.196  0.00  0.00    -0.272 NA
ATOM     27  C   UNL     1      -2.345   0.738  24.124  0.00  0.00    +0.078 C 
ATOM     28  C   UNL     1      -2.698   1.426  24.433  0.00  0.00    +0.110 C 
ATOM     29  N   UNL     1      -3.291   1.144  24.561  0.00  0.00    -0.299 N 
ATOM     30  C   UNL     1      -4.074   1.060  24.808  0.00  0.00    +0.261 A 
ATOM     31  O   UNL     1      -4.452   0.330  24.740  0.00  0.00    -0.267 OA
ATOM     32  C   UNL     1      -4.478   1.706  25.123  0.00  0.00    +0.061 A 
ATOM     33  C   UNL     1      -4.100   2.436  25.192  0.00  0.00    +0.006 A 
ENDROOT
BRANCH  11   8
ATOM      5  C   UNL     1      -2.182   4.711  25.150  0.00  0.00    +0.073 A 
ATOM      6  C   UNL     1      -2.624   4.537  24.475  0.00  0.00    +0.017 A 
ATOM      7  C   UNL     1      -3.002   3.806  24.407  0.00  0.00    +0.001 A 
ATOM      8  C   UNL     1      -2.939   3.250  25.013  0.00  0.00    +0.001 A 
ATOM      9  C   UNL     1      -2.498   3.425  25.688  0.00  0.00    +0.001 A 
ATOM     10  C   UNL     1      -2.119   4.155  25.756  0.00  0.00    +0.017 A 
BRANCH   5   4
ATOM      1  C   UNL     1      -0.658   6.264  25.003  0.00  0.00    +0.097 C 
ATOM      2  C   UNL     1      -1.035   5.535  24.934  0.00  0.00    +0.246 C 
ATOM      3  O   UNL     1      -0.645   4.899  24.583  0.00  0.00    -0.273 OA
ATOM      4  N   UNL     1      -1.805   5.440  25.218  0.00  0.00    -0.179 NA
ENDBRANCH   5   4
ENDBRANCH  11   8
BRANCH  17  18
ATOM     18  C   UNL     1      -3.661   0.043  24.389  0.00  0.00    +0.072 C 
BRANCH  18  19
ATOM     19  C   UNL     1      -3.926  -0.695  24.135  0.00  0.00    +0.022 C 
BRANCH  19  20
ATOM     20  C   UNL     1      -4.094  -1.285  24.686  0.00  0.00    +0.028 C 
BRANCH  20  21
ATOM     21  C   UNL     1      -3.961  -2.077  24.496  0.00  0.00    -0.022 A 
ATOM     22  C   UNL     1      -4.314  -2.404  23.825  0.00  0.00    -0.004 A 
ATOM     23  C   UNL     1      -4.181  -3.196  23.635  0.00  0.00    -0.000 A 
ATOM     24  C   UNL     1      -3.696  -3.660  24.114  0.00  0.00    -0.000 A 
ATOM     25  C   UNL     1      -3.344  -3.333  24.784  0.00  0.00    -0.000 A 
ATOM     26  C   UNL     1      -3.477  -2.541  24.974  0.00  0.00    -0.004 A 
ENDBRANCH  20  21
ENDBRANCH  19  20
ENDBRANCH  18  19
ENDBRANCH  17  18
TORSDOF 6
ENDMDL
MODEL 3
REMARK VINA RESULT:      -9.6      2.802      4.589
REMARK  Name = 
REMARK  6 active torsions:
REMARK  status: ('A' for Active; 'I' for Inactive)
REMARK    1  A    between atoms: N_4  and  C_5
REMARK    2  A    between atoms: C_8  and  C_11
REMARK    3  A    between atoms: N_17  and  C_18
REMARK    4  A    between atoms: C_18  and  C_19
REMARK    5  A    between atoms: C_19  and  C_20
REMARK    6  A    between atoms: C_20  and  C_21
REMARK                            x       y       z     vdW  Elec       q    Type
REMARK                         _______ _______ _______ _____ _____    ______ ____
ROOT
ATOM     11  C   UNL     1      -0.497   0.975  23.564  0.00  0.00    +0.012 A 
ATOM     12  C   UNL     1      -0.971   0.572  24.106  0.00  0.00    +0.041 A 
ATOM     13  C   UNL     1      -0.952  -0.155  24.667  0.00  0.00    +0.054 C 
ATOM     14  C   UNL     1      -0.534  -0.678  24.877  0.00  0.00    +0.011 C 
ATOM     15  C   UNL     1      -1.288  -0.413  25.030  0.00  0.00    +0.039 C 
ATOM     16  C   UNL     1      -2.211  -0.251  25.345  0.00  0.00    +0.074 C 
ATOM     17  N   UNL     1      -2.394   0.430  24.898  0.00  0.00    -0.272 NA
ATOM     27  C   UNL     1      -1.843  -0.013  24.981  0.00  0.00    +0.078 C 
ATOM     28  C   UNL     1      -1.317   0.349  24.446  0.00  0.00    +0.110 C 
ATOM     29  N   UNL     1      -1.736   0.838  24.263  0.00  0.00    -0.299 N 
ATOM     30  C   UNL     1      -2.028   1.507  23.878  0.00  0.00    +0.261 A 
ATOM     31  O   UNL     1      -2.793   1.773  24.036  0.00  0.00    -0.267 OA
ATOM     32  C   UNL     1      -1.554   1.910  23.336  0.00  0.00    +0.061 A 
ATOM     33  C   UNL     1      -0.789   1.644  23.179  0.00  0.00    +0.006 A 
ENDROOT
BRANCH  11   8
ATOM      5  C   UNL     1       1.798   0.177  23.092  0.00  0.00    +0.073 A 
ATOM      6  C   UNL     1       1.160  -0.127  22.667  0.00  0.00    +0.017 A 
ATOM      7  C   UNL     1       0.395   0.139  22.824  0.00  0.00    +0.001 A 
ATOM      8  C   UNL     1       0.268   0.709  23.407  0.00  0.00    +0.001 A 
ATOM      9  C   UNL     1       0.906   1.013  23.832  0.00  0.00    +0.001 A 
ATOM     10  C   UNL     1       1.671   0.748  23.674  0.00  0.00    +0.017 A 
BRANCH   5   4
ATOM      1  C   UNL     1       3.926   0.188  22.610  0.00  0.00    +0.097 C 
ATOM      2  C   UNL     1       3.162   0.453  22.767  0.00  0.00    +0.246 C 
ATOM      3  O   UNL     1       2.995   1.261  22.757  0.00  0.00    -0.273 OA
ATOM      4  N   UNL     1       2.562  -0.089  22.935  0.00  0.00    -0.179 NA
ENDBRANCH   5   4
ENDBRANCH  11   8
BRANCH  17  18
ATOM     18  C   UNL     1      -2.834   1.066  24.610  0.00  0.00    +0.072 C 
BRANCH  18  19
ATOM     19  C   UNL     1      -3.508   1.318  25.013  0.00  0.00    +0.022 C 
BRANCH  19  20
ATOM     20  C   UNL     1      -4.169   1.575  24.592  0.00  0.00    +0.028 C 
BRANCH  20  21
ATOM     21  C   UNL     1      -4.844   1.822  24.996  0.00  0.00    -0.022 A 
ATOM     22  C   UNL     1      -5.522   1.350  24.995  0.00  0.00    -0.004 A 
ATOM     23  C   UNL     1      -6.197   1.598  25.398  0.00  0.00    -0.000 A 
ATOM     24  C   UNL     1      -6.196   2.316  25.803  0.00  0.00    -0.000 A 
ATOM     25  C   UNL     1      -5.519   2.788  25.805  0.00  0.00    -0.000 A 
ATOM     26  C   UNL     1      -4.844   2.540  25.401  0.00  0.00    -0.004 A 
ENDBRANCH  20  21
ENDBRANCH  19  20
ENDBRANCH  18  19
ENDBRANCH  17  18
TORSDOF 6
ENDMDL
MODEL 4
REMARK VINA RESULT:      -9.5      2.981      4.345
REMARK  Name = 
REMARK  6 active torsions:
REMARK  status: ('A' for Active; 'I' for Inactive)
REMARK    1  A    between atoms: N_4  and  C_5
REMARK    2  A    between atoms: C_8  and  C_11
REMARK    3  A    between atoms: N_17  and  C_18
REMARK    4  A    between atoms: C_18  and  C_19
REMARK    5  A    between atoms: C_19  and  C_20
REMARK    6  A    between atoms: C_20  and  C_21
REMARK                            x       y       z     vdW  Elec       q    Type
REMARK                         _______ _______ _______ _____ _____    ______ ____
ROOT
ATOM     11  C   UNL     1      -1.993   1.048  24.008  0.00  0.00    +0.012 A 
ATOM     12  C   UNL     1      -1.492   0.424  24.205  0.00  0.00    +0.041 A 
ATOM     13  C   UNL     1      -1.480  -0.357  24.690  0.00  0.00    +0.054 C 
ATOM     14  C   UNL     1      -1.886  -0.756  25.099  0.00  0.00    +0.011 C 
ATOM     15  C   UNL     1      -1.125  -0.769  24.811  0.00  0.00    +0.039 C 
ATOM     16  C   UNL     1      -0.187  -0.961  24.566  0.00  0.00    +0.074 C 
ATOM     17  N   UNL     1      -0.028  -0.296  24.087  0.00  0.00    -0.272 NA
ATOM     27  C   UNL     1      -0.574  -0.556  24.463  0.00  0.00    +0.078 C 
ATOM     28  C   UNL     1      -1.127   0.044  24.301  0.00  0.00    +0.110 C 
ATOM     29  N   UNL     1      -0.719   0.407  23.914  0.00  0.00    -0.299 N 
ATOM     30  C   UNL     1      -0.449   1.016  23.427  0.00  0.00    +0.261 A 
ATOM     31  O   UNL     1       0.323   1.000  23.136  0.00  0.00    -0.267 OA
ATOM     32  C   UNL     1      -0.950   1.640  23.230  0.00  0.00    +0.061 A 
ATOM     33  C   UNL     1      -1.723   1.656  23.521  0.00  0.00    +0.006 A 
ENDROOT
BRANCH  11   8
ATOM      5  C   UNL     1      -4.310   1.097  24.879  0.00  0.00    +0.073 A 
ATOM      6  C   UNL     1      -3.708   1.488  25.286  0.00  0.00    +0.017 A 
ATOM      7  C   UNL     1      -2.936   1.471  24.996  0.00  0.00    +0.001 A 
ATOM      8  C   UNL     1      -2.765   1.064  24.298  0.00  0.00    +0.001 A 
ATOM      9  C   UNL     1      -3.367   0.674  23.892  0.00  0.00    +0.001 A 
ATOM     10  C   UNL     1      -4.139   0.690  24.182  0.00  0.00    +0.017 A 
BRANCH   5   4
ATOM      1  C   UNL     1      -6.340   1.776  25.301  0.00  0.00    +0.097 C 
ATOM      2  C   UNL     1      -5.569   1.760  25.011  0.00  0.00    +0.246 C 
ATOM      3  O   UNL     1      -5.283   2.390  24.561  0.00  0.00    -0.273 OA
ATOM      4  N   UNL     1      -5.081   1.113  25.170  0.00  0.00    -0.179 NA
ENDBRANCH   5   4
ENDBRANCH  11   8
BRANCH  17  18
ATOM     18  C   UNL     1       0.396   0.218  23.599  0.00  0.00    +0.072 C 
BRANCH  18  19
ATOM     19  C   UNL     1       1.220   0.198  23.596  0.00  0.00    +0.022 C 
BRANCH  19  20
ATOM     20  C   UNL     1       1.630   0.180  22.881  0.00  0.00    +0.028 C 
BRANCH  20  21
ATOM     21  C   UNL     1       2.454   0.209  22.877  0.00  0.00    -0.022 A 
ATOM     22  C   UNL     1       2.891  -0.481  23.003  0.00  0.00    -0.004 A 
ATOM     23  C   UNL     1       3.715  -0.452  22.999  0.00  0.00    -0.000 A 
ATOM     24  C   UNL     1       4.103   0.263  22.870  0.00  0.00    -0.000 A 
ATOM     25  C   UNL     1       3.667   0.953  22.745  0.00  0.00    -0.000 A 
ATOM     26  C   UNL     1       2.843   0.924  22.748  0.00  0.00    -0.004 A 
ENDBRANCH  20  21
ENDBRANCH  19  20
ENDBRANCH  18  19
ENDBRANCH  17  18
TORSDOF 6
ENDMDL
