MODEL 1
REMARK VINA RESULT:     -10.1      0.000      0.000
REMARK  Name = 
REMARK  8 active torsions:
REMARK  status: ('A' for Active; 'I' for Inactive)
REMARK    1  A    between atoms: O_2  and  C_3
REMARK    2  A    between atoms: C_3  and  C_4
REMARK    3  A    between atoms: N_6  and  C_7
REMARK    4  A    between atoms: C_14  and  C_15
REMARK    5  A    between atoms: C_15  and  C_17
REMARK    6  A    between atoms: N_19  and  C_21
REMARK    7  A    between atoms: C_21  and  C_22
REMARK    8  A    between atoms: C_22  and  C_23
REMARK                            x       y       z     vdW  Elec       q    Type
REMARK                         _______ _______ _______ _____ _____    ______ ____
ROOT
ATOM      7  C   UNL     1      -3.665   3.293  24.794  0.00  0.00    +0.095 C 
ATOM      8  C   UNL     1      -4.305   3.477  25.280  0.00  0.00    +0.022 C 
ATOM      9  C   UNL     1      -4.832   2.884  25.509  0.00  0.00    +0.002 C 
ATOM     10  C   UNL     1      -4.719   2.109  25.251  0.00  0.00    +0.002 C 
ATOM     11  C   UNL     1      -5.360   2.293  25.737  0.00  0.00    +0.000 C 
ATOM     12  C   UNL     1      -5.246   1.517  25.480  0.00  0.00    +0.000 C 
ATOM     13  C   UNL     1      -5.133   0.742  25.223  0.00  0.00    +0.003 C 
ATOM     14  C   UNL     1      -4.492   0.558  24.736  0.00  0.00    +0.039 C 
ATOM     25  C   UNL     1      -3.965   1.149  24.508  0.00  0.00    +0.152 C 
ATOM     26  O   UNL     1      -3.324   0.966  24.022  0.00  0.00    -0.223 OA
ATOM     27  C   UNL     1      -4.078   1.926  24.765  0.00  0.00    +0.032 C 
ATOM     28  C   UNL     1      -3.551   2.517  24.536  0.00  0.00    +0.022 C 
ATOM     29  C   UNL     1      -2.911   2.334  24.051  0.00  0.00    +0.002 C 
ENDROOT
BRANCH   7   6
ATOM      4  C   UNL     1      -2.720   4.309  25.138  0.00  0.00    +0.272 C 
ATOM      5  O   UNL     1      -2.831   4.141  25.938  0.00  0.00    -0.271 OA
ATOM      6  N   UNL     1      -3.137   3.884  24.565  0.00  0.00    -0.205 NA
BRANCH   4   3
ATOM      3  C   UNL     1      -2.193   4.900  24.909  0.00  0.00    +0.229 C 
BRANCH   3   2
ATOM      1  C   UNL     1      -0.829   5.328  24.927  0.00  0.00    +0.175 C 
ATOM      2  O   UNL     1      -1.478   4.993  25.312  0.00  0.00    -0.342 OA
ENDBRANCH   3   2
ENDBRANCH   4   3
ENDBRANCH   7   6
BRANCH  14  15
ATOM     15  C   UNL     1      -4.378  -0.217  24.479  0.00  0.00    +0.079 C 
ATOM     16  C   UNL     1      -4.727  -0.474  23.778  0.00  0.00    +0.010 C 
BRANCH  15  17
ATOM     17  C   UNL     1      -3.914  -0.735  24.924  0.00  0.00    +0.225 C 
ATOM     18  O   UNL     1      -3.698  -0.537  25.695  0.00  0.00    -0.275 OA
ATOM     19  N   UNL     1      -3.667  -1.452  24.597  0.00  0.00    -0.277 N 
ATOM     20  C   UNL     1      -3.883  -1.650  23.827  0.00  0.00    +0.115 C 
BRANCH  19  21
ATOM     21  C   UNL     1      -3.203  -1.969  25.042  0.00  0.00    +0.110 C 
BRANCH  21  22
ATOM     22  C   UNL     1      -2.723  -2.522  24.662  0.00  0.00    +0.127 C 
BRANCH  22  23
ATOM     23  C   UNL     1      -1.930  -2.596  24.877  0.00  0.00    +0.075 C 
ATOM     24  N   UNL     1      -1.137  -2.670  25.092  0.00  0.00    -0.196 NA
ENDBRANCH  22  23
ENDBRANCH  21  22
ENDBRANCH  19  21
ENDBRANCH  15  17
ENDBRANCH  14  15
TORSDOF 8
ENDMDL
MODEL 2
REMARK VINA RESULT:      -9.7      2.732      4.656
REMARK  Name = 
REMARK  8 active torsions:
REMARK  status: ('A' for Active; 'I' for Inactive)
REMARK    1  A    between atoms: O_2  and  C_3
REMARK    2  A    between atoms: C_3  and  C_4
REMARK    3  A    between atoms: N_6  and  C_7
REMARK    4  A    between atoms: C_14  and  C_15
REMARK    5  A    between atoms: C_15  and  C_17
REMARK    6  A    between atoms: N_19  and  C_21
REMARK    7  A    between atoms: C_21  and  C_22
REMARK    8  A    between atoms: C_22  and  C_23
REMARK                            x       y       z     vdW  Elec       q    Type
REMARK                         _______ _______ _______ _____ _____    ______ ____
ROOT
ATOM      7  C   UNL     1      -0.286   1.555  24.381  0.00  0.00    +0.095 C 
ATOM      8  C   UNL     1       0.143   1.957  24.960  0.00  0.00    +0.022 C 
ATOM      9  C   UNL     1      -0.209   2.575  25.378  0.00  0.00    +0.002 C 
ATOM     10  C   UNL     1      -0.988   2.791  25.218  0.00  0.00    +0.002 C 
ATOM     11  C   UNL     1      -0.559   3.193  25.797  0.00  0.00    +0.000 C 
ATOM     12  C   UNL     1      -1.339   3.410  25.637  0.00  0.00    +0.000 C 
ATOM     13  C   UNL     1      -2.118   3.626  25.477  0.00  0.00    +0.003 C 
ATOM     14  C   UNL     1      -2.547   3.225  24.897  0.00  0.00    +0.039 C 
ATOM     25  C   UNL     1      -2.197   2.606  24.479  0.00  0.00    +0.152 C 
ATOM     26  O   UNL     1      -2.625   2.205  23.900  0.00  0.00    -0.223 OA
ATOM     27  C   UNL     1      -1.417   2.390  24.639  0.00  0.00    +0.032 C 
ATOM     28  C   UNL     1      -1.066   1.771  24.220  0.00  0.00    +0.022 C 
ATOM     29  C   UNL     1      -1.495   1.370  23.642  0.00  0.00    +0.002 C 
ENDROOT
BRANCH   7   6
ATOM      4  C   UNL     1       0.852   0.995  23.723  0.00  0.00    +0.272 C 
ATOM      5  O   UNL     1       1.289   1.672  23.902  0.00  0.00    -0.271 OA
ATOM      6  N   UNL     1       0.064   0.937  23.962  0.00  0.00    -0.205 NA
BRANCH   4   3
ATOM      3  C   UNL     1       1.203   0.377  23.304  0.00  0.00    +0.229 C 
BRANCH   3   2
ATOM      1  C   UNL     1       2.230  -0.101  22.434  0.00  0.00    +0.175 C 
ATOM      2  O   UNL     1       1.883   0.516  22.857  0.00  0.00    -0.342 OA
ENDBRANCH   3   2
ENDBRANCH   4   3
ENDBRANCH   7   6
BRANCH  14  15
ATOM     15  C   UNL     1      -3.327   3.441  24.737  0.00  0.00    +0.079 C 
ATOM     16  C   UNL     1      -3.528   3.738  23.995  0.00  0.00    +0.010 C 
BRANCH  15  17
ATOM     17  C   UNL     1      -3.906   3.359  25.320  0.00  0.00    +0.225 C 
ATOM     18  O   UNL     1      -3.754   3.612  26.090  0.00  0.00    -0.275 OA
ATOM     19  N   UNL     1      -4.637   3.024  25.131  0.00  0.00    -0.277 N 
ATOM     20  C   UNL     1      -4.788   2.771  24.362  0.00  0.00    +0.115 C 
BRANCH  19  21
ATOM     21  C   UNL     1      -5.215   2.943  25.714  0.00  0.00    +0.110 C 
BRANCH  21  22
ATOM     22  C   UNL     1      -5.818   2.388  25.620  0.00  0.00    +0.127 C 
BRANCH  22  23
ATOM     23  C   UNL     1      -6.252   2.136  26.276  0.00  0.00    +0.075 C 
ATOM     24  N   UNL     1      -6.685   1.883  26.931  0.00  0.00    -0.196 NA
ENDBRANCH  22  23
ENDBRANCH  21  22
ENDBRANCH  19  21
ENDBRANCH  15  17
ENDBRANCH  14  15
TORSDOF 8
ENDMDL
MODEL 3
REMARK VINA RESULT:      -9.6      2.504      3.547
REMARK  Name = 
REMARK  8 active torsions:
REMARK  status: ('A' for Active; 'I' for Inactive)
REMARK    1  A    between atoms: O_2  and  C_3
REMARK    2  A    between atoms: C_3  and  C_4
REMARK    3  A    between atoms: N_6  and  C_7
REMARK    4  A    between atoms: C_14  and  C_15
REMARK    5  A    between atoms: C_15  and  C_17
REMARK    6  A    between atoms: N_19  and  C_21
REMARK    7  A    between atoms: C_21  and  C_22
REMARK    8  A    between atoms: C_22  and  C_23
REMARK                            x       y       z     vdW  Elec       q    Type
REMARK                         _______ _______ _______ _____ _____    ______ ____
ROOT
ATOM      7  C   UNL     1      -4.404   1.282  24.748  0.00  0.00    +0.095 C 
ATOM      8  C   UNL     1      -4.807   0.562  24.763  0.00  0.00    +0.022 C 
ATOM      9  C   UNL     1      -4.385  -0.145  24.814  0.00  0.00    +0.002 C 
ATOM     10  C   UNL     1      -3.561  -0.133  24.851  0.00  0.00    +0.002 C 
ATOM     11  C   UNL     1      -3.964  -0.853  24.866  0.00  0.00    +0.000 C 
ATOM     12  C   UNL     1      -3.139  -0.840  24.902  0.00  0.00    +0.000 C 
ATOM     13  C   UNL     1      -2.316  -0.828  24.938  0.00  0.00    +0.003 C 
ATOM     14  C   UNL     1      -1.913  -0.108  24.924  0.00  0.00    +0.039 C 
ATOM     25  C   UNL     1      -2.334   0.600  24.873  0.00  0.00    +0.152 C 
ATOM     26  O   UNL     1      -1.931   1.319  24.858  0.00  0.00    -0.223 OA
ATOM     27  C   UNL     1      -3.158   0.587  24.836  0.00  0.00    +0.032 C 
ATOM     28  C   UNL     1      -3.579   1.295  24.785  0.00  0.00    +0.022 C 
ATOM     29  C   UNL     1      -3.177   2.014  24.770  0.00  0.00    +0.002 C 
ENDROOT
BRANCH   7   6
ATOM      4  C   UNL     1      -5.412   2.161  25.252  0.00  0.00    +0.272 C 
ATOM      5  O   UNL     1      -5.578   1.624  25.856  0.00  0.00    -0.271 OA
ATOM      6  N   UNL     1      -4.825   1.990  24.697  0.00  0.00    -0.205 NA
BRANCH   4   3
ATOM      3  C   UNL     1      -5.833   2.868  25.200  0.00  0.00    +0.229 C 
BRANCH   3   2
ATOM      1  C   UNL     1      -5.990   4.189  25.722  0.00  0.00    +0.175 C 
ATOM      2  O   UNL     1      -5.849   3.386  25.844  0.00  0.00    -0.342 OA
ENDBRANCH   3   2
ENDBRANCH   4   3
ENDBRANCH   7   6
BRANCH  14  15
ATOM     15  C   UNL     1      -1.089  -0.095  24.960  0.00  0.00    +0.079 C 
ATOM     16  C   UNL     1      -0.710   0.236  25.613  0.00  0.00    +0.010 C 
BRANCH  15  17
ATOM     17  C   UNL     1      -0.644  -0.413  24.342  0.00  0.00    +0.225 C 
ATOM     18  O   UNL     1      -0.834  -1.155  24.036  0.00  0.00    -0.275 OA
ATOM     19  N   UNL     1      -0.009   0.012  24.029  0.00  0.00    -0.277 N 
ATOM     20  C   UNL     1       0.181   0.753  24.335  0.00  0.00    +0.115 C 
BRANCH  19  21
ATOM     21  C   UNL     1       0.436  -0.306  23.411  0.00  0.00    +0.110 C 
BRANCH  21  22
ATOM     22  C   UNL     1       1.106   0.091  23.140  0.00  0.00    +0.127 C 
BRANCH  22  23
ATOM     23  C   UNL     1       1.456  -0.132  22.426  0.00  0.00    +0.075 C 
ATOM     24  N   UNL     1       1.805  -0.356  21.713  0.00  0.00    -0.196 NA
ENDBRANCH  22  23
ENDBRANCH  21  22
ENDBRANCH  19  21
ENDBRANCH  15  17
ENDBRANCH  14  15
TORSDOF 8
ENDMDL
MODEL 4
REMARK VINA RESULT:      -9.4      2.966      4.115
REMARK  Name = 
REMARK  8 active torsions:
REMARK  status: ('A' for Active; 'I' for Inactive)
REMARK    1  A    between atoms: O_2  and  C_3
REMARK    2  A    between atoms: C_3  and  C_4
REMARK    3  A    between atoms: N_6  and  C_7
REMARK    4  A    between atoms: C_14  and  C_15
REMARK    5  A    between atoms: C_15  and  C_17
REMARK    6  A    between atoms: N_19  and  C_21
REMARK    7  A    between atoms: C_21  and  C_22
REMARK    8  A    between atoms: C_22  and  C_23
REMARK                            x       y       z     vdW  Elec       q    Type
REMARK                         _______ _______ _______ _____ _____    ______ ____
ROOT
ATOM      7  C   UNL     1      -3.954   1.468  24.352  0.00  0.00    +0.095 C 
ATOM      8  C   UNL     1      -3.923   2.055  23.773  0.00  0.00    +0.022 C 
ATOM      9  C   UNL     1      -3.226   2.180  23.350  0.00  0.00    +0.002 C 
ATOM     10  C   UNL     1      -2.560   1.719  23.505  0.00  0.00    +0.002 C 
ATOM     11  C   UNL     1      -2.529   2.306  22.926  0.00  0.00    +0.000 C 
ATOM     12  C   UNL     1      -1.863   1.844  23.082  0.00  0.00    +0.000 C 
ATOM     13  C   UNL     1      -1.198   1.383  23.237  0.00  0.00    +0.003 C 
ATOM     14  C   UNL     1      -1.229   0.795  23.815  0.00  0.00    +0.039 C 
ATOM     25  C   UNL     1      -1.925   0.669  24.239  0.00  0.00    +0.152 C 
ATOM     26  O   UNL     1      -1.956   0.083  24.817  0.00  0.00    -0.223 OA
ATOM     27  C   UNL     1      -2.591   1.132  24.083  0.00  0.00    +0.032 C 
ATOM     28  C   UNL     1      -3.288   1.006  24.507  0.00  0.00    +0.022 C 
ATOM     29  C   UNL     1      -3.319   0.419  25.085  0.00  0.00    +0.002 C 
ENDROOT
BRANCH   7   6
ATOM      4  C   UNL     1      -5.112   1.985  25.011  0.00  0.00    +0.272 C 
ATOM      5  O   UNL     1      -4.876   2.753  24.823  0.00  0.00    -0.271 OA
ATOM      6  N   UNL     1      -4.651   1.342  24.775  0.00  0.00    -0.205 NA
BRANCH   4   3
ATOM      3  C   UNL     1      -5.808   1.859  25.434  0.00  0.00    +0.229 C 
BRANCH   3   2
ATOM      1  C   UNL     1      -6.520   2.009  26.665  0.00  0.00    +0.175 C 
ATOM      2  O   UNL     1      -5.945   2.274  26.136  0.00  0.00    -0.342 OA
ENDBRANCH   3   2
ENDBRANCH   4   3
ENDBRANCH   7   6
BRANCH  14  15
ATOM     15  C   UNL     1      -0.564   0.333  23.971  0.00  0.00    +0.079 C 
ATOM     16  C   UNL     1      -0.652  -0.437  24.252  0.00  0.00    +0.010 C 
BRANCH  15  17
ATOM     17  C   UNL     1       0.192   0.642  23.845  0.00  0.00    +0.225 C 
ATOM     18  O   UNL     1       0.395   1.376  24.162  0.00  0.00    -0.275 OA
ATOM     19  N   UNL     1       0.743   0.217  23.402  0.00  0.00    -0.277 N 
ATOM     20  C   UNL     1       0.540  -0.517  23.085  0.00  0.00    +0.115 C 
BRANCH  19  21
ATOM     21  C   UNL     1       1.498   0.526  23.277  0.00  0.00    +0.110 C 
BRANCH  21  22
ATOM     22  C   UNL     1       2.023   0.138  22.773  0.00  0.00    +0.127 C 
BRANCH  22  23
ATOM     23  C   UNL     1       2.793   0.422  22.682  0.00  0.00    +0.075 C 
ATOM     24  N   UNL     1       3.562   0.705  22.591  0.00  0.00    -0.196 NA
ENDBRANCH  22  23
ENDBRANCH  21  22
ENDBRANCH  19  21
ENDBRANCH  15  17
ENDBRANCH  14  15
TORSDOF 8
ENDMDL
MODEL 5
REMARK VINA RESULT:      -9.3      2.994      4.685
REMARK  Name = 
REMARK  8 active torsions:
REMARK  status: ('A' for Active; 'I' for Inactive)
REMARK    1  A    between atoms: O_2  and  C_3
REMARK    2  A    between atoms: C_3  and  C_4
REMARK    3  A    between atoms: N_6  and  C_7
REMARK    4  A    between atoms: C_14  and  C_15
REMARK    5  A    between atoms: C_15  and  C_17
REMARK    6  A    between atoms: N_19  and  C_21
REMARK    7  A    between atoms: C_21  and  C_22
REMARK    8  A    between atoms: C_22  and  C_23
REMARK                            x       y       z     vdW  Elec       q    Type
REMARK                         _______ _______ _______ _____ _____    ______ ____
ROOT
ATOM      7  C   UNL     1      -0.003   0.608  23.960  0.00  0.00    +0.095 C 
ATOM      8  C   UNL     1      -0.233  -0.156  24.172  0.00  0.00    +0.022 C 
ATOM      9  C   UNL     1      -1.025  -0.315  24.343  0.00  0.00    +0.002 C 
ATOM     10  C   UNL     1      -1.585   0.287  24.301  0.00  0.00    +0.002 C 
ATOM     11  C   UNL     1      -1.815  -0.476  24.513  0.00  0.00    +0.000 C 
ATOM     12  C   UNL     1      -2.377   0.128  24.471  0.00  0.00    +0.000 C 
ATOM     13  C   UNL     1      -2.938   0.731  24.430  0.00  0.00    +0.003 C 
ATOM     14  C   UNL     1      -2.708   1.494  24.218  0.00  0.00    +0.039 C 
ATOM     25  C   UNL     1      -1.917   1.655  24.047  0.00  0.00    +0.152 C 
ATOM     26  O   UNL     1      -1.687   2.417  23.835  0.00  0.00    -0.223 OA
ATOM     27  C   UNL     1      -1.355   1.051  24.089  0.00  0.00    +0.032 C 
ATOM     28  C   UNL     1      -0.564   1.212  23.918  0.00  0.00    +0.022 C 
ATOM     29  C   UNL     1      -0.335   1.974  23.707  0.00  0.00    +0.002 C 
ENDROOT
BRANCH   7   6
ATOM      4  C   UNL     1       1.197   0.297  23.249  0.00  0.00    +0.272 C 
ATOM      5  O   UNL     1       0.815  -0.334  22.879  0.00  0.00    -0.271 OA
ATOM      6  N   UNL     1       0.788   0.768  23.790  0.00  0.00    -0.205 NA
BRANCH   4   3
ATOM      3  C   UNL     1       1.988   0.458  23.078  0.00  0.00    +0.229 C 
BRANCH   3   2
ATOM      1  C   UNL     1       3.159   0.215  22.296  0.00  0.00    +0.175 C 
ATOM      2  O   UNL     1       2.366   0.059  22.462  0.00  0.00    -0.342 OA
ENDBRANCH   3   2
ENDBRANCH   4   3
ENDBRANCH   7   6
BRANCH  14  15
ATOM     15  C   UNL     1      -3.268   2.098  24.176  0.00  0.00    +0.079 C 
ATOM     16  C   UNL     1      -3.396   2.494  23.465  0.00  0.00    +0.010 C 
BRANCH  15  17
ATOM     17  C   UNL     1      -3.702   2.305  24.847  0.00  0.00    +0.225 C 
ATOM     18  O   UNL     1      -3.313   2.458  25.559  0.00  0.00    -0.275 OA
ATOM     19  N   UNL     1      -4.525   2.359  24.807  0.00  0.00    -0.277 N 
ATOM     20  C   UNL     1      -4.913   2.206  24.096  0.00  0.00    +0.115 C 
BRANCH  19  21
ATOM     21  C   UNL     1      -4.957   2.566  25.478  0.00  0.00    +0.110 C 
BRANCH  21  22
ATOM     22  C   UNL     1      -5.770   2.427  25.502  0.00  0.00    +0.127 C 
BRANCH  22  23
ATOM     23  C   UNL     1      -6.147   2.312  26.228  0.00  0.00    +0.075 C 
ATOM     24  N   UNL     1      -6.522   2.196  26.953  0.00  0.00    -0.196 NA
ENDBRANCH  22  23
ENDBRANCH  21  22
ENDBRANCH  19  21
ENDBRANCH  15  17
ENDBRANCH  14  15
TORSDOF 8
ENDMDL
MODEL 6
REMARK VINA RESULT:      -8.9      3.637      4.870
REMARK  Name = 
REMARK  8 active torsions:
REMARK  status: ('A' for Active; 'I' for Inactive)
REMARK    1  A    between atoms: O_2  and  C_3
REMARK    2  A    between atoms: C_3  and  C_4
REMARK    3  A    between atoms: N_6  and  C_7
REMARK    4  A    between atoms: C_14  and  C_15
REMARK    5  A    between atoms: C_15  and  C_17
REMARK    6  A    between atoms: N_19  and  C_21
REMARK    7  A    between atoms: C_21  and  C_22
REMARK    8  A    between atoms: C_22  and  C_23
REMARK                            x       y       z     vdW  Elec       q    Type
REMARK                         _______ _______ _______ _____ _____    ______ ____
ROOT
ATOM      7  C   UNL     1      -2.596   0.926  24.832  0.00  0.00    +0.095 C 
ATOM      8  C   UNL     1      -2.531   0.356  25.425  0.00  0.00    +0.022 C 
ATOM      9  C   UNL     1      -1.878  -0.148  25.443  0.00  0.00    +0.002 C 
ATOM     10  C   UNL     1      -1.291  -0.084  24.868  0.00  0.00    +0.002 C 
ATOM     11  C   UNL     1      -1.226  -0.653  25.462  0.00  0.00    +0.000 C 
ATOM     12  C   UNL     1      -0.638  -0.589  24.885  0.00  0.00    +0.000 C 
ATOM     13  C   UNL     1      -0.051  -0.524  24.310  0.00  0.00    +0.003 C 
ATOM     14  C   UNL     1      -0.116   0.045  23.717  0.00  0.00    +0.039 C 
ATOM     25  C   UNL     1      -0.768   0.550  23.698  0.00  0.00    +0.152 C 
ATOM     26  O   UNL     1      -0.833   1.118  23.105  0.00  0.00    -0.223 OA
ATOM     27  C   UNL     1      -1.356   0.485  24.274  0.00  0.00    +0.032 C 
ATOM     28  C   UNL     1      -2.008   0.990  24.255  0.00  0.00    +0.022 C 
ATOM     29  C   UNL     1      -2.072   1.558  23.662  0.00  0.00    +0.002 C 
ENDROOT
BRANCH   7   6
ATOM      4  C   UNL     1      -4.004   1.133  24.959  0.00  0.00    +0.272 C 
ATOM      5  O   UNL     1      -4.107   0.331  25.124  0.00  0.00    -0.271 OA
ATOM      6  N   UNL     1      -3.248   1.431  24.813  0.00  0.00    -0.205 NA
BRANCH   4   3
ATOM      3  C   UNL     1      -4.656   1.638  24.941  0.00  0.00    +0.229 C 
BRANCH   3   2
ATOM      1  C   UNL     1      -6.069   1.836  25.019  0.00  0.00    +0.175 C 
ATOM      2  O   UNL     1      -5.418   1.329  25.013  0.00  0.00    -0.342 OA
ENDBRANCH   3   2
ENDBRANCH   4   3
ENDBRANCH   7   6
BRANCH  14  15
ATOM     15  C   UNL     1       0.471   0.109  23.141  0.00  0.00    +0.079 C 
ATOM     16  C   UNL     1       0.339  -0.184  22.382  0.00  0.00    +0.010 C 
BRANCH  15  17
ATOM     17  C   UNL     1       1.191   0.469  23.325  0.00  0.00    +0.225 C 
ATOM     18  O   UNL     1       1.224   1.054  23.906  0.00  0.00    -0.275 OA
ATOM     19  N   UNL     1       1.879   0.244  22.928  0.00  0.00    -0.277 N 
ATOM     20  C   UNL     1       1.846  -0.340  22.347  0.00  0.00    +0.115 C 
BRANCH  19  21
ATOM     21  C   UNL     1       2.598   0.603  23.112  0.00  0.00    +0.110 C 
BRANCH  21  22
ATOM     22  C   UNL     1       3.277   0.407  22.686  0.00  0.00    +0.127 C 
BRANCH  22  23
ATOM     23  C   UNL     1       4.020   0.618  22.977  0.00  0.00    +0.075 C 
ATOM     24  N   UNL     1       4.763   0.828  23.268  0.00  0.00    -0.196 NA
ENDBRANCH  22  23
ENDBRANCH  21  22
ENDBRANCH  19  21
ENDBRANCH  15  17
ENDBRANCH  14  15
TORSDOF 8
ENDMDL
MODEL 7
REMARK VINA RESULT:      -8.8      1.963      3.069
REMARK  Name = 
REMARK  8 active torsions:
REMARK  status: ('A' for Active; 'I' for Inactive)
REMARK    1  A    between atoms: O_2  and  C_3
REMARK    2  A    between atoms: C_3  and  C_4
REMARK    3  A    between atoms: N_6  and  C_7
REMARK    4  A    between atoms: C_14  and  C_15
REMARK    5  A    between atoms: C_15  and  C_17
REMARK    6  A    between atoms: N_19  and  C_21
REMARK    7  A    between atoms: C_21  and  C_22
REMARK    8  A    between atoms: C_22  and  C_23
REMARK                            x       y       z     vdW  Elec       q    Type
REMARK                         _______ _______ _______ _____ _____    ______ ____
ROOT
ATOM      7  C   UNL     1      -2.766   3.385  25.124  0.00  0.00    +0.095 C 
ATOM      8  C   UNL     1      -2.297   3.781  25.676  0.00  0.00    +0.022 C 
ATOM      9  C   UNL     1      -1.568   3.465  25.899  0.00  0.00    +0.002 C 
ATOM     10  C   UNL     1      -1.308   2.756  25.570  0.00  0.00    +0.002 C 
ATOM     11  C   UNL     1      -0.839   3.151  26.122  0.00  0.00    +0.000 C 
ATOM     12  C   UNL     1      -0.579   2.440  25.794  0.00  0.00    +0.000 C 
ATOM     13  C   UNL     1      -0.318   1.730  25.465  0.00  0.00    +0.003 C 
ATOM     14  C   UNL     1      -0.787   1.334  24.913  0.00  0.00    +0.039 C 
ATOM     25  C   UNL     1      -1.516   1.649  24.690  0.00  0.00    +0.152 C 
ATOM     26  O   UNL     1      -1.984   1.254  24.138  0.00  0.00    -0.223 OA
ATOM     27  C   UNL     1      -1.776   2.360  25.019  0.00  0.00    +0.032 C 
ATOM     28  C   UNL     1      -2.505   2.674  24.795  0.00  0.00    +0.022 C 
ATOM     29  C   UNL     1      -2.973   2.279  24.243  0.00  0.00    +0.002 C 
ENDROOT
BRANCH   7   6
ATOM      4  C   UNL     1      -4.077   3.835  25.469  0.00  0.00    +0.272 C 
ATOM      5  O   UNL     1      -3.930   3.657  26.261  0.00  0.00    -0.271 OA
ATOM      6  N   UNL     1      -3.495   3.700  24.900  0.00  0.00    -0.205 NA
BRANCH   4   3
ATOM      3  C   UNL     1      -4.806   4.150  25.245  0.00  0.00    +0.229 C 
BRANCH   3   2
ATOM      1  C   UNL     1      -6.193   4.371  25.513  0.00  0.00    +0.175 C 
ATOM      2  O   UNL     1      -5.466   4.048  25.731  0.00  0.00    -0.342 OA
ENDBRANCH   3   2
ENDBRANCH   4   3
ENDBRANCH   7   6
BRANCH  14  15
ATOM     15  C   UNL     1      -0.527   0.624  24.585  0.00  0.00    +0.079 C 
ATOM     16  C   UNL     1      -0.048   0.631  23.914  0.00  0.00    +0.010 C 
BRANCH  15  17
ATOM     17  C   UNL     1      -0.746  -0.094  24.928  0.00  0.00    +0.225 C 
ATOM     18  O   UNL     1      -0.993  -0.116  25.715  0.00  0.00    -0.275 OA
ATOM     19  N   UNL     1      -0.718  -0.790  24.484  0.00  0.00    -0.277 N 
ATOM     20  C   UNL     1      -0.472  -0.767  23.699  0.00  0.00    +0.115 C 
BRANCH  19  21
ATOM     21  C   UNL     1      -0.937  -1.506  24.828  0.00  0.00    +0.110 C 
BRANCH  21  22
ATOM     22  C   UNL     1      -1.211  -2.123  24.354  0.00  0.00    +0.127 C 
BRANCH  22  23
ATOM     23  C   UNL     1      -1.891  -2.539  24.570  0.00  0.00    +0.075 C 
ATOM     24  N   UNL     1      -2.571  -2.953  24.785  0.00  0.00    -0.196 NA
ENDBRANCH  22  23
ENDBRANCH  21  22
ENDBRANCH  19  21
ENDBRANCH  15  17
ENDBRANCH  14  15
TORSDOF 8
ENDMDL
MODEL 8
REMARK VINA RESULT:      -8.8      1.095      4.764
REMARK  Name = 
REMARK  8 active torsions:
REMARK  status: ('A' for Active; 'I' for Inactive)
REMARK    1  A    between atoms: O_2  and  C_3
REMARK    2  A    between atoms: C_3  and  C_4
REMARK    3  A    between atoms: N_6  and  C_7
REMARK    4  A    between atoms: C_14  and  C_15
REMARK    5  A    between atoms: C_15  and  C_17
REMARK    6  A    between atoms: N_19  and  C_21
REMARK    7  A    between atoms: C_21  and  C_22
REMARK    8  A    between atoms: C_22  and  C_23
REMARK                            x       y       z     vdW  Elec       q    Type
REMARK                         _______ _______ _______ _____ _____    ______ ____
ROOT
ATOM      7  C   UNL     1      -4.462   0.135  24.455  0.00  0.00    +0.095 C 
ATOM      8  C   UNL     1      -5.121   0.157  24.950  0.00  0.00    +0.022 C 
ATOM      9  C   UNL     1      -5.361   0.872  25.286  0.00  0.00    +0.002 C 
ATOM     10  C   UNL     1      -4.941   1.564  25.127  0.00  0.00    +0.002 C 
ATOM     11  C   UNL     1      -5.601   1.585  25.622  0.00  0.00    +0.000 C 
ATOM     12  C   UNL     1      -5.181   2.278  25.463  0.00  0.00    +0.000 C 
ATOM     13  C   UNL     1      -4.762   2.970  25.304  0.00  0.00    +0.003 C 
ATOM     14  C   UNL     1      -4.102   2.948  24.809  0.00  0.00    +0.039 C 
ATOM     25  C   UNL     1      -3.862   2.234  24.473  0.00  0.00    +0.152 C 
ATOM     26  O   UNL     1      -3.203   2.212  23.978  0.00  0.00    -0.223 OA
ATOM     27  C   UNL     1      -4.282   1.542  24.632  0.00  0.00    +0.032 C 
ATOM     28  C   UNL     1      -4.041   0.828  24.295  0.00  0.00    +0.022 C 
ATOM     29  C   UNL     1      -3.383   0.806  23.801  0.00  0.00    +0.002 C 
ENDROOT
BRANCH   7   6
ATOM      4  C   UNL     1      -4.016  -1.215  24.604  0.00  0.00    +0.272 C 
ATOM      5  O   UNL     1      -4.051  -1.136  25.424  0.00  0.00    -0.271 OA
ATOM      6  N   UNL     1      -4.221  -0.579  24.118  0.00  0.00    -0.205 NA
BRANCH   4   3
ATOM      3  C   UNL     1      -3.775  -1.928  24.267  0.00  0.00    +0.229 C 
BRANCH   3   2
ATOM      1  C   UNL     1      -3.303  -3.268  24.420  0.00  0.00    +0.175 C 
ATOM      2  O   UNL     1      -3.596  -2.572  24.752  0.00  0.00    -0.342 OA
ENDBRANCH   3   2
ENDBRANCH   4   3
ENDBRANCH   7   6
BRANCH  14  15
ATOM     15  C   UNL     1      -3.682   3.640  24.650  0.00  0.00    +0.079 C 
ATOM     16  C   UNL     1      -3.868   4.092  23.986  0.00  0.00    +0.010 C 
BRANCH  15  17
ATOM     17  C   UNL     1      -3.075   3.879  25.156  0.00  0.00    +0.225 C 
ATOM     18  O   UNL     1      -3.142   3.754  25.968  0.00  0.00    -0.275 OA
ATOM     19  N   UNL     1      -2.401   4.243  24.848  0.00  0.00    -0.277 N 
ATOM     20  C   UNL     1      -2.334   4.368  24.036  0.00  0.00    +0.115 C 
BRANCH  19  21
ATOM     21  C   UNL     1      -1.794   4.482  25.353  0.00  0.00    +0.110 C 
BRANCH  21  22
ATOM     22  C   UNL     1      -1.023   4.545  25.069  0.00  0.00    +0.127 C 
BRANCH  22  23
ATOM     23  C   UNL     1      -0.432   4.050  25.367  0.00  0.00    +0.075 C 
ATOM     24  N   UNL     1       0.157   3.556  25.665  0.00  0.00    -0.196 NA
ENDBRANCH  22  23
ENDBRANCH  21  22
ENDBRANCH  19  21
ENDBRANCH  15  17
ENDBRANCH  14  15
TORSDOF 8
ENDMDL
MODEL 9
REMARK VINA RESULT:      -8.5     15.458     18.008
REMARK  Name = 
REMARK  8 active torsions:
REMARK  status: ('A' for Active; 'I' for Inactive)
REMARK    1  A    between atoms: O_2  and  C_3
REMARK    2  A    between atoms: C_3  and  C_4
REMARK    3  A    between atoms: N_6  and  C_7
REMARK    4  A    between atoms: C_14  and  C_15
REMARK    5  A    between atoms: C_15  and  C_17
REMARK    6  A    between atoms: N_19  and  C_21
REMARK    7  A    between atoms: C_21  and  C_22
REMARK    8  A    between atoms: C_22  and  C_23
REMARK                            x       y       z     vdW  Elec       q    Type
REMARK                         _______ _______ _______ _____ _____    ______ ____
ROOT
ATOM      7  C   UNL     1      -2.423 -10.385  12.575  0.00  0.00    +0.095 C 
ATOM      8  C   UNL     1      -1.802 -10.018  12.176  0.00  0.00    +0.022 C 
ATOM      9  C   UNL     1      -1.930  -9.680  11.435  0.00  0.00    +0.002 C 
ATOM     10  C   UNL     1      -2.680  -9.708  11.093  0.00  0.00    +0.002 C 
ATOM     11  C   UNL     1      -2.058  -9.341  10.693  0.00  0.00    +0.000 C 
ATOM     12  C   UNL     1      -2.809  -9.370  10.351  0.00  0.00    +0.000 C 
ATOM     13  C   UNL     1      -3.558  -9.398  10.009  0.00  0.00    +0.003 C 
ATOM     14  C   UNL     1      -4.180  -9.765  10.408  0.00  0.00    +0.039 C 
ATOM     25  C   UNL     1      -4.052 -10.104  11.149  0.00  0.00    +0.152 C 
ATOM     26  O   UNL     1      -4.674 -10.471  11.548  0.00  0.00    -0.223 OA
ATOM     27  C   UNL     1      -3.302 -10.075  11.492  0.00  0.00    +0.032 C 
ATOM     28  C   UNL     1      -3.174 -10.414  12.233  0.00  0.00    +0.022 C 
ATOM     29  C   UNL     1      -3.795 -10.780  12.631  0.00  0.00    +0.002 C 
ENDROOT
BRANCH   7   6
ATOM      4  C   UNL     1      -1.807 -10.345  13.864  0.00  0.00    +0.272 C 
ATOM      5  O   UNL     1      -1.447  -9.629  13.669  0.00  0.00    -0.271 OA
ATOM      6  N   UNL     1      -2.296 -10.724  13.317  0.00  0.00    -0.205 NA
BRANCH   4   3
ATOM      3  C   UNL     1      -1.679 -10.684  14.605  0.00  0.00    +0.229 C 
BRANCH   3   2
ATOM      1  C   UNL     1      -1.286 -10.529  15.970  0.00  0.00    +0.175 C 
ATOM      2  O   UNL     1      -1.555 -10.201  15.263  0.00  0.00    -0.342 OA
ENDBRANCH   3   2
ENDBRANCH   4   3
ENDBRANCH   7   6
BRANCH  14  15
ATOM     15  C   UNL     1      -4.930  -9.794  10.066  0.00  0.00    +0.079 C 
ATOM     16  C   UNL     1      -5.252 -10.518   9.838  0.00  0.00    +0.010 C 
BRANCH  15  17
ATOM     17  C   UNL     1      -5.358  -9.098   9.952  0.00  0.00    +0.225 C 
ATOM     18  O   UNL     1      -5.290  -8.478  10.493  0.00  0.00    -0.275 OA
ATOM     19  N   UNL     1      -5.855  -9.021   9.297  0.00  0.00    -0.277 N 
ATOM     20  C   UNL     1      -5.923  -9.639   8.757  0.00  0.00    +0.115 C 
BRANCH  19  21
ATOM     21  C   UNL     1      -6.283  -8.325   9.184  0.00  0.00    +0.110 C 
BRANCH  21  22
ATOM     22  C   UNL     1      -6.932  -8.319   8.675  0.00  0.00    +0.127 C 
BRANCH  22  23
ATOM     23  C   UNL     1      -7.354  -7.620   8.555  0.00  0.00    +0.075 C 
ATOM     24  N   UNL     1      -7.777  -6.922   8.434  0.00  0.00    -0.196 NA
ENDBRANCH  22  23
ENDBRANCH  21  22
ENDBRANCH  19  21
ENDBRANCH  15  17
ENDBRANCH  14  15
TORSDOF 8
ENDMDL
MODEL 10
REMARK VINA RESULT:      -7.4     13.798     15.151
REMARK  Name = 
REMARK  8 active torsions:
REMARK  status: ('A' for Active; 'I' for Inactive)
REMARK    1  A    between atoms: O_2  and  C_3
REMARK    2  A    between atoms: C_3  and  C_4
REMARK    3  A    between atoms: N_6  and  C_7
REMARK    4  A    between atoms: C_14  and  C_15
REMARK    5  A    between atoms: C_15  and  C_17
REMARK    6  A    between atoms: N_19  and  C_21
REMARK    7  A    between atoms: C_21  and  C_22
REMARK    8  A    between atoms: C_22  and  C_23
REMARK                            x       y       z     vdW  Elec       q    Type
REMARK                         _______ _______ _______ _____ _____    ______ ____
ROOT
ATOM      7  C   UNL     1      -3.755 -10.695  15.401  0.00  0.00    +0.095 C 
ATOM      8  C   UNL     1      -3.428 -10.711  16.158  0.00  0.00    +0.022 C 
ATOM      9  C   UNL     1      -3.915 -10.625  16.819  0.00  0.00    +0.002 C 
ATOM     10  C   UNL     1      -4.727 -10.522  16.723  0.00  0.00    +0.002 C 
ATOM     11  C   UNL     1      -4.400 -10.538  17.480  0.00  0.00    +0.000 C 
ATOM     12  C   UNL     1      -5.213 -10.436  17.384  0.00  0.00    +0.000 C 
ATOM     13  C   UNL     1      -6.026 -10.334  17.289  0.00  0.00    +0.003 C 
ATOM     14  C   UNL     1      -6.353 -10.318  16.532  0.00  0.00    +0.039 C 
ATOM     25  C   UNL     1      -5.868 -10.404  15.870  0.00  0.00    +0.152 C 
ATOM     26  O   UNL     1      -6.195 -10.388  15.114  0.00  0.00    -0.223 OA
ATOM     27  C   UNL     1      -5.054 -10.507  15.966  0.00  0.00    +0.032 C 
ATOM     28  C   UNL     1      -4.569 -10.593  15.305  0.00  0.00    +0.022 C 
ATOM     29  C   UNL     1      -4.896 -10.577  14.548  0.00  0.00    +0.002 C 
ENDROOT
BRANCH   7   6
ATOM      4  C   UNL     1      -2.502 -10.480  14.750  0.00  0.00    +0.272 C 
ATOM      5  O   UNL     1      -2.219 -10.093  15.422  0.00  0.00    -0.271 OA
ATOM      6  N   UNL     1      -3.270 -10.781  14.739  0.00  0.00    -0.205 NA
BRANCH   4   3
ATOM      3  C   UNL     1      -2.016 -10.566  14.088  0.00  0.00    +0.229 C 
BRANCH   3   2
ATOM      1  C   UNL     1      -1.271  -9.923  13.053  0.00  0.00    +0.175 C 
ATOM      2  O   UNL     1      -1.562  -9.929  13.825  0.00  0.00    -0.342 OA
ENDBRANCH   3   2
ENDBRANCH   4   3
ENDBRANCH   7   6
BRANCH  14  15
ATOM     15  C   UNL     1      -7.166 -10.216  16.435  0.00  0.00    +0.079 C 
ATOM     16  C   UNL     1      -7.607 -10.781  16.028  0.00  0.00    +0.010 C 
BRANCH  15  17
ATOM     17  C   UNL     1      -7.537  -9.547  16.746  0.00  0.00    +0.225 C 
ATOM     18  O   UNL     1      -7.086  -8.944  17.083  0.00  0.00    -0.275 OA
ATOM     19  N   UNL     1      -8.360  -9.483  16.720  0.00  0.00    -0.277 N 
ATOM     20  C   UNL     1      -8.810 -10.085  16.383  0.00  0.00    +0.115 C 
BRANCH  19  21
ATOM     21  C   UNL     1      -8.730  -8.814  17.031  0.00  0.00    +0.110 C 
BRANCH  21  22
ATOM     22  C   UNL     1      -9.537  -8.697  16.908  0.00  0.00    +0.127 C 
BRANCH  22  23
ATOM     23  C   UNL     1      -9.896  -7.998  17.164  0.00  0.00    +0.075 C 
ATOM     24  N   UNL     1     -10.254  -7.301  17.420  0.00  0.00    -0.196 NA
ENDBRANCH  22  23
ENDBRANCH  21  22
ENDBRANCH  19  21
ENDBRANCH  15  17
ENDBRANCH  14  15
TORSDOF 8
ENDMDL
