MODEL 1
REMARK VINA RESULT:     -13.3      0.000      0.000
REMARK  Name = 
REMARK  2 active torsions:
REMARK  status: ('A' for Active; 'I' for Inactive)
REMARK    1  A    between atoms: C_3  and  C_8
REMARK    2  A    between atoms: C_25  and  C_27
REMARK                            x       y       z     vdW  Elec       q    Type
REMARK                         _______ _______ _______ _____ _____    ______ ____
ROOT
ATOM      8  C   UNL     1      -4.058  -0.781  24.698  0.00  0.00    +0.002 A 
ATOM      9  C   UNL     1      -4.845  -0.564  24.813  0.00  0.00    +0.001 A 
ATOM     10  C   UNL     1      -5.041   0.230  24.923  0.00  0.00    +0.017 A 
ATOM     11  C   UNL     1      -4.451   0.806  24.917  0.00  0.00    +0.078 A 
ATOM     12  N   UNL     1      -4.765   1.559  25.036  0.00  0.00    -0.178 NA
ATOM     13  C   UNL     1      -4.368   2.282  25.070  0.00  0.00    +0.265 C 
ATOM     14  O   UNL     1      -4.841   2.945  25.198  0.00  0.00    -0.271 OA
ATOM     15  C   UNL     1      -3.559   2.430  24.993  0.00  0.00    +0.174 C 
ATOM     16  C   UNL     1      -3.392   3.234  25.061  0.00  0.00    +0.123 C 
ATOM     17  N   UNL     1      -2.613   3.500  25.001  0.00  0.00    -0.272 N 
ATOM     18  C   UNL     1      -2.003   2.961  24.871  0.00  0.00    +0.115 C 
ATOM     19  C   UNL     1      -2.170   2.156  24.802  0.00  0.00    +0.116 C 
ATOM     20  N   UNL     1      -2.949   1.890  24.863  0.00  0.00    -0.266 N 
ATOM     21  C   UNL     1      -2.995   1.071  24.778  0.00  0.00    +0.251 C 
ATOM     22  O   UNL     1      -2.278   0.683  24.652  0.00  0.00    -0.270 OA
ATOM     23  C   UNL     1      -3.664   0.588  24.802  0.00  0.00    +0.069 A 
ATOM     24  C   UNL     1      -3.467  -0.205  24.693  0.00  0.00    +0.006 A 
ATOM     25  C   UNL     1      -2.445   4.304  25.069  0.00  0.00    +0.255 C 
ATOM     26  O   UNL     1      -3.056   4.844  25.200  0.00  0.00    -0.269 OA
ENDROOT
BRANCH   8   3
ATOM      1  F   UNL     1      -4.370  -1.516  23.254  0.00  0.00    -0.204 F 
ATOM      2  C   UNL     1      -4.017  -1.942  23.865  0.00  0.00    +0.140 A 
ATOM      3  C   UNL     1      -3.861  -1.574  24.588  0.00  0.00    +0.027 A 
ATOM      4  C   UNL     1      -3.507  -2.001  25.199  0.00  0.00    +0.002 A 
ATOM      5  C   UNL     1      -3.310  -2.795  25.089  0.00  0.00    +0.000 A 
ATOM      6  C   UNL     1      -3.466  -3.162  24.367  0.00  0.00    +0.002 A 
ATOM      7  C   UNL     1      -3.820  -2.736  23.755  0.00  0.00    +0.030 A 
ENDBRANCH   8   3
BRANCH  25  27
ATOM     27  C   UNL     1      -1.667   4.570  25.009  0.00  0.00    +0.083 A 
ATOM     28  C   UNL     1      -1.043   4.363  25.508  0.00  0.00    +0.012 A 
ATOM     29  C   UNL     1      -0.366   4.755  25.245  0.00  0.00    +0.008 A 
ATOM     30  C   UNL     1      -0.571   5.205  24.584  0.00  0.00    +0.036 A 
ATOM     31  S   UNL     1      -1.376   5.090  24.438  0.00  0.00    -0.082 S 
ENDBRANCH  25  27
TORSDOF 2
ENDMDL
MODEL 2
REMARK VINA RESULT:     -12.4      2.484      5.885
REMARK  Name = 
REMARK  2 active torsions:
REMARK  status: ('A' for Active; 'I' for Inactive)
REMARK    1  A    between atoms: C_3  and  C_8
REMARK    2  A    between atoms: C_25  and  C_27
REMARK                            x       y       z     vdW  Elec       q    Type
REMARK                         _______ _______ _______ _____ _____    ______ ____
ROOT
ATOM      8  C   UNL     1      -1.155   3.226  25.289  0.00  0.00    +0.002 A 
ATOM      9  C   UNL     1      -0.375   3.027  25.469  0.00  0.00    +0.001 A 
ATOM     10  C   UNL     1      -0.139   2.236  25.461  0.00  0.00    +0.017 A 
ATOM     11  C   UNL     1      -0.681   1.645  25.273  0.00  0.00    +0.078 A 
ATOM     12  N   UNL     1      -0.333   0.898  25.297  0.00  0.00    -0.178 NA
ATOM     13  C   UNL     1      -0.679   0.164  25.146  0.00  0.00    +0.265 C 
ATOM     14  O   UNL     1      -0.180  -0.488  25.216  0.00  0.00    -0.271 OA
ATOM     15  C   UNL     1      -1.459  -0.004  24.933  0.00  0.00    +0.174 C 
ATOM     16  C   UNL     1      -1.577  -0.814  24.834  0.00  0.00    +0.123 C 
ATOM     17  N   UNL     1      -2.321  -1.099  24.620  0.00  0.00    -0.272 N 
ATOM     18  C   UNL     1      -2.946  -0.574  24.507  0.00  0.00    +0.115 C 
ATOM     19  C   UNL     1      -2.828   0.236  24.606  0.00  0.00    +0.116 C 
ATOM     20  N   UNL     1      -2.084   0.522  24.820  0.00  0.00    -0.266 N 
ATOM     21  C   UNL     1      -2.086   1.343  24.890  0.00  0.00    +0.251 C 
ATOM     22  O   UNL     1      -2.807   1.715  24.739  0.00  0.00    -0.270 OA
ATOM     23  C   UNL     1      -1.461   1.844  25.092  0.00  0.00    +0.069 A 
ATOM     24  C   UNL     1      -1.698   2.633  25.100  0.00  0.00    +0.006 A 
ATOM     25  C   UNL     1      -2.439  -1.909  24.520  0.00  0.00    +0.255 C 
ATOM     26  O   UNL     1      -1.812  -2.435  24.634  0.00  0.00    -0.269 OA
ENDROOT
BRANCH   8   3
ATOM      1  F   UNL     1      -0.336   4.341  24.391  0.00  0.00    -0.204 F 
ATOM      2  C   UNL     1      -0.982   4.574  24.847  0.00  0.00    +0.140 A 
ATOM      3  C   UNL     1      -1.392   4.015  25.296  0.00  0.00    +0.027 A 
ATOM      4  C   UNL     1      -2.039   4.248  25.753  0.00  0.00    +0.002 A 
ATOM      5  C   UNL     1      -2.276   5.039  25.760  0.00  0.00    +0.000 A 
ATOM      6  C   UNL     1      -1.866   5.596  25.311  0.00  0.00    +0.002 A 
ATOM      7  C   UNL     1      -1.219   5.364  24.854  0.00  0.00    +0.030 A 
ENDBRANCH   8   3
BRANCH  25  27
ATOM     27  C   UNL     1      -3.183  -2.195  24.307  0.00  0.00    +0.083 A 
ATOM     28  C   UNL     1      -3.616  -1.969  23.643  0.00  0.00    +0.012 A 
ATOM     29  C   UNL     1      -4.325  -2.391  23.646  0.00  0.00    +0.008 A 
ATOM     30  C   UNL     1      -4.330  -2.878  24.312  0.00  0.00    +0.036 A 
ATOM     31  S   UNL     1      -3.623  -2.756  24.721  0.00  0.00    -0.082 S 
ENDBRANCH  25  27
TORSDOF 2
ENDMDL
MODEL 3
REMARK VINA RESULT:     -11.8      1.551      2.366
REMARK  Name = 
REMARK  2 active torsions:
REMARK  status: ('A' for Active; 'I' for Inactive)
REMARK    1  A    between atoms: C_3  and  C_8
REMARK    2  A    between atoms: C_25  and  C_27
REMARK                            x       y       z     vdW  Elec       q    Type
REMARK                         _______ _______ _______ _____ _____    ______ ____
ROOT
ATOM      8  C   UNL     1      -2.508  -1.385  24.483  0.00  0.00    +0.002 A 
ATOM      9  C   UNL     1      -1.733  -1.664  24.523  0.00  0.00    +0.001 A 
ATOM     10  C   UNL     1      -1.111  -1.137  24.648  0.00  0.00    +0.017 A 
ATOM     11  C   UNL     1      -1.264  -0.331  24.733  0.00  0.00    +0.078 A 
ATOM     12  N   UNL     1      -0.569   0.096  24.853  0.00  0.00    -0.178 NA
ATOM     13  C   UNL     1      -0.477   0.909  24.962  0.00  0.00    +0.265 C 
ATOM     14  O   UNL     1       0.298   1.171  25.068  0.00  0.00    -0.271 OA
ATOM     15  C   UNL     1      -1.058   1.495  24.978  0.00  0.00    +0.174 C 
ATOM     16  C   UNL     1      -0.730   2.242  25.102  0.00  0.00    +0.123 C 
ATOM     17  N   UNL     1      -1.218   2.906  25.137  0.00  0.00    -0.272 N 
ATOM     18  C   UNL     1      -2.033   2.823  25.048  0.00  0.00    +0.115 C 
ATOM     19  C   UNL     1      -2.361   2.077  24.925  0.00  0.00    +0.116 C 
ATOM     20  N   UNL     1      -1.874   1.412  24.890  0.00  0.00    -0.266 N 
ATOM     21  C   UNL     1      -2.310   0.724  24.763  0.00  0.00    +0.251 C 
ATOM     22  O   UNL     1      -3.127   0.825  24.697  0.00  0.00    -0.270 OA
ATOM     23  C   UNL     1      -2.039  -0.052  24.693  0.00  0.00    +0.069 A 
ATOM     24  C   UNL     1      -2.661  -0.579  24.568  0.00  0.00    +0.006 A 
ATOM     25  C   UNL     1      -0.890   3.653  25.261  0.00  0.00    +0.255 C 
ATOM     26  O   UNL     1      -0.073   3.735  25.349  0.00  0.00    -0.269 OA
ENDROOT
BRANCH   8   3
ATOM      1  F   UNL     1      -2.683  -2.702  25.461  0.00  0.00    -0.204 F 
ATOM      2  C   UNL     1      -3.218  -2.571  24.848  0.00  0.00    +0.140 A 
ATOM      3  C   UNL     1      -3.130  -1.912  24.358  0.00  0.00    +0.027 A 
ATOM      4  C   UNL     1      -3.666  -1.781  23.744  0.00  0.00    +0.002 A 
ATOM      5  C   UNL     1      -4.289  -2.308  23.620  0.00  0.00    +0.000 A 
ATOM      6  C   UNL     1      -4.376  -2.966  24.109  0.00  0.00    +0.002 A 
ATOM      7  C   UNL     1      -3.841  -3.098  24.724  0.00  0.00    +0.030 A 
ENDBRANCH   8   3
BRANCH  25  27
ATOM     27  C   UNL     1      -1.377   4.317  25.296  0.00  0.00    +0.083 A 
ATOM     28  C   UNL     1      -2.018   4.421  25.804  0.00  0.00    +0.012 A 
ATOM     29  C   UNL     1      -2.347   5.163  25.651  0.00  0.00    +0.008 A 
ATOM     30  C   UNL     1      -1.908   5.517  25.048  0.00  0.00    +0.036 A 
ATOM     31  S   UNL     1      -1.309   4.994  24.828  0.00  0.00    -0.082 S 
ENDBRANCH  25  27
TORSDOF 2
ENDMDL
MODEL 4
REMARK VINA RESULT:     -11.7      2.191      5.454
REMARK  Name = 
REMARK  2 active torsions:
REMARK  status: ('A' for Active; 'I' for Inactive)
REMARK    1  A    between atoms: C_3  and  C_8
REMARK    2  A    between atoms: C_25  and  C_27
REMARK                            x       y       z     vdW  Elec       q    Type
REMARK                         _______ _______ _______ _____ _____    ______ ____
ROOT
ATOM      8  C   UNL     1      -2.494   3.672  24.715  0.00  0.00    +0.002 A 
ATOM      9  C   UNL     1      -3.265   3.955  24.639  0.00  0.00    +0.001 A 
ATOM     10  C   UNL     1      -3.895   3.426  24.575  0.00  0.00    +0.017 A 
ATOM     11  C   UNL     1      -3.754   2.613  24.587  0.00  0.00    +0.078 A 
ATOM     12  N   UNL     1      -4.455   2.185  24.516  0.00  0.00    -0.178 NA
ATOM     13  C   UNL     1      -4.558   1.366  24.503  0.00  0.00    +0.265 C 
ATOM     14  O   UNL     1      -5.336   1.105  24.425  0.00  0.00    -0.271 OA
ATOM     15  C   UNL     1      -3.986   0.774  24.558  0.00  0.00    +0.174 C 
ATOM     16  C   UNL     1      -4.325   0.023  24.522  0.00  0.00    +0.123 C 
ATOM     17  N   UNL     1      -3.846  -0.648  24.567  0.00  0.00    -0.272 N 
ATOM     18  C   UNL     1      -3.030  -0.567  24.649  0.00  0.00    +0.115 C 
ATOM     19  C   UNL     1      -2.691   0.184  24.684  0.00  0.00    +0.116 C 
ATOM     20  N   UNL     1      -3.169   0.855  24.639  0.00  0.00    -0.266 N 
ATOM     21  C   UNL     1      -2.723   1.547  24.685  0.00  0.00    +0.251 C 
ATOM     22  O   UNL     1      -1.908   1.443  24.766  0.00  0.00    -0.270 OA
ATOM     23  C   UNL     1      -2.983   2.330  24.662  0.00  0.00    +0.069 A 
ATOM     24  C   UNL     1      -2.353   2.859  24.726  0.00  0.00    +0.006 A 
ATOM     25  C   UNL     1      -4.185  -1.399  24.531  0.00  0.00    +0.255 C 
ATOM     26  O   UNL     1      -5.003  -1.480  24.450  0.00  0.00    -0.269 OA
ENDROOT
BRANCH   8   3
ATOM      1  F   UNL     1      -2.494   4.813  25.906  0.00  0.00    -0.204 F 
ATOM      2  C   UNL     1      -1.865   4.771  25.375  0.00  0.00    +0.140 A 
ATOM      3  C   UNL     1      -1.865   4.200  24.779  0.00  0.00    +0.027 A 
ATOM      4  C   UNL     1      -1.234   4.159  24.247  0.00  0.00    +0.002 A 
ATOM      5  C   UNL     1      -0.605   4.688  24.312  0.00  0.00    +0.000 A 
ATOM      6  C   UNL     1      -0.605   5.259  24.907  0.00  0.00    +0.002 A 
ATOM      7  C   UNL     1      -1.235   5.301  25.439  0.00  0.00    +0.030 A 
ENDBRANCH   8   3
BRANCH  25  27
ATOM     27  C   UNL     1      -3.707  -2.070  24.577  0.00  0.00    +0.083 A 
ATOM     28  C   UNL     1      -3.359  -2.371  25.261  0.00  0.00    +0.012 A 
ATOM     29  C   UNL     1      -2.930  -3.045  25.052  0.00  0.00    +0.008 A 
ATOM     30  C   UNL     1      -3.013  -3.160  24.240  0.00  0.00    +0.036 A 
ATOM     31  S   UNL     1      -3.494  -2.556  23.945  0.00  0.00    -0.082 S 
ENDBRANCH  25  27
TORSDOF 2
ENDMDL
MODEL 5
REMARK VINA RESULT:      -9.9      2.743      4.278
REMARK  Name = 
REMARK  2 active torsions:
REMARK  status: ('A' for Active; 'I' for Inactive)
REMARK    1  A    between atoms: C_3  and  C_8
REMARK    2  A    between atoms: C_25  and  C_27
REMARK                            x       y       z     vdW  Elec       q    Type
REMARK                         _______ _______ _______ _____ _____    ______ ____
ROOT
ATOM      8  C   UNL     1      -4.298   1.169  25.176  0.00  0.00    +0.002 A 
ATOM      9  C   UNL     1      -4.497   0.424  25.469  0.00  0.00    +0.001 A 
ATOM     10  C   UNL     1      -3.956  -0.197  25.421  0.00  0.00    +0.017 A 
ATOM     11  C   UNL     1      -3.216  -0.073  25.078  0.00  0.00    +0.078 A 
ATOM     12  N   UNL     1      -2.762  -0.762  25.085  0.00  0.00    -0.178 NA
ATOM     13  C   UNL     1      -1.997  -0.877  24.800  0.00  0.00    +0.265 C 
ATOM     14  O   UNL     1      -1.692  -1.638  24.889  0.00  0.00    -0.271 OA
ATOM     15  C   UNL     1      -1.496  -0.331  24.436  0.00  0.00    +0.174 C 
ATOM     16  C   UNL     1      -0.773  -0.673  24.233  0.00  0.00    +0.123 C 
ATOM     17  N   UNL     1      -0.192  -0.220  23.863  0.00  0.00    -0.272 N 
ATOM     18  C   UNL     1      -0.333   0.576  23.696  0.00  0.00    +0.115 C 
ATOM     19  C   UNL     1      -1.056   0.918  23.899  0.00  0.00    +0.116 C 
ATOM     20  N   UNL     1      -1.637   0.464  24.270  0.00  0.00    -0.266 N 
ATOM     21  C   UNL     1      -2.314   0.910  24.424  0.00  0.00    +0.251 C 
ATOM     22  O   UNL     1      -2.284   1.700  24.188  0.00  0.00    -0.270 OA
ATOM     23  C   UNL     1      -3.017   0.671  24.784  0.00  0.00    +0.069 A 
ATOM     24  C   UNL     1      -3.557   1.292  24.833  0.00  0.00    +0.006 A 
ATOM     25  C   UNL     1       0.531  -0.562  23.660  0.00  0.00    +0.255 C 
ATOM     26  O   UNL     1       0.672  -1.358  23.827  0.00  0.00    -0.269 OA
ENDROOT
BRANCH   8   3
ATOM      1  F   UNL     1      -5.737   1.073  24.376  0.00  0.00    -0.204 F 
ATOM      2  C   UNL     1      -5.558   1.742  24.824  0.00  0.00    +0.140 A 
ATOM      3  C   UNL     1      -4.838   1.790  25.224  0.00  0.00    +0.027 A 
ATOM      4  C   UNL     1      -4.659   2.459  25.672  0.00  0.00    +0.002 A 
ATOM      5  C   UNL     1      -5.200   3.081  25.720  0.00  0.00    +0.000 A 
ATOM      6  C   UNL     1      -5.920   3.033  25.320  0.00  0.00    +0.002 A 
ATOM      7  C   UNL     1      -6.099   2.363  24.872  0.00  0.00    +0.030 A 
ENDBRANCH   8   3
BRANCH  25  27
ATOM     27  C   UNL     1       1.112  -0.109  23.290  0.00  0.00    +0.083 A 
ATOM     28  C   UNL     1       1.514   0.530  23.623  0.00  0.00    +0.012 A 
ATOM     29  C   UNL     1       2.044   0.819  23.060  0.00  0.00    +0.008 A 
ATOM     30  C   UNL     1       1.970   0.358  22.379  0.00  0.00    +0.036 A 
ATOM     31  S   UNL     1       1.394  -0.216  22.522  0.00  0.00    -0.082 S 
ENDBRANCH  25  27
TORSDOF 2
ENDMDL
MODEL 6
REMARK VINA RESULT:      -9.5      3.107      4.358
REMARK  Name = 
REMARK  2 active torsions:
REMARK  status: ('A' for Active; 'I' for Inactive)
REMARK    1  A    between atoms: C_3  and  C_8
REMARK    2  A    between atoms: C_25  and  C_27
REMARK                            x       y       z     vdW  Elec       q    Type
REMARK                         _______ _______ _______ _____ _____    ______ ____
ROOT
ATOM      8  C   UNL     1       0.609  -0.036  23.476  0.00  0.00    +0.002 A 
ATOM      9  C   UNL     1       0.434  -0.798  23.735  0.00  0.00    +0.001 A 
ATOM     10  C   UNL     1      -0.292  -0.955  24.094  0.00  0.00    +0.017 A 
ATOM     11  C   UNL     1      -0.843  -0.350  24.194  0.00  0.00    +0.078 A 
ATOM     12  N   UNL     1      -1.528  -0.623  24.562  0.00  0.00    -0.178 NA
ATOM     13  C   UNL     1      -2.208  -0.201  24.762  0.00  0.00    +0.265 C 
ATOM     14  O   UNL     1      -2.805  -0.636  25.130  0.00  0.00    -0.271 OA
ATOM     15  C   UNL     1      -2.371   0.600  24.644  0.00  0.00    +0.174 C 
ATOM     16  C   UNL     1      -3.118   0.801  24.927  0.00  0.00    +0.123 C 
ATOM     17  N   UNL     1      -3.389   1.578  24.862  0.00  0.00    -0.272 N 
ATOM     18  C   UNL     1      -2.911   2.153  24.514  0.00  0.00    +0.115 C 
ATOM     19  C   UNL     1      -2.163   1.951  24.231  0.00  0.00    +0.116 C 
ATOM     20  N   UNL     1      -1.893   1.175  24.296  0.00  0.00    -0.266 N 
ATOM     21  C   UNL     1      -1.135   1.092  23.980  0.00  0.00    +0.251 C 
ATOM     22  O   UNL     1      -0.800   1.779  23.668  0.00  0.00    -0.270 OA
ATOM     23  C   UNL     1      -0.667   0.413  23.934  0.00  0.00    +0.069 A 
ATOM     24  C   UNL     1       0.058   0.571  23.576  0.00  0.00    +0.006 A 
ATOM     25  C   UNL     1      -4.137   1.779  25.145  0.00  0.00    +0.255 C 
ATOM     26  O   UNL     1      -4.615   1.203  25.494  0.00  0.00    -0.269 OA
ENDROOT
BRANCH   8   3
ATOM      1  F   UNL     1       0.902  -0.564  21.941  0.00  0.00    -0.204 F 
ATOM      2  C   UNL     1       1.481  -0.142  22.349  0.00  0.00    +0.140 A 
ATOM      3  C   UNL     1       1.335   0.122  23.117  0.00  0.00    +0.027 A 
ATOM      4  C   UNL     1       1.915   0.544  23.526  0.00  0.00    +0.002 A 
ATOM      5  C   UNL     1       2.641   0.701  23.166  0.00  0.00    +0.000 A 
ATOM      6  C   UNL     1       2.787   0.437  22.399  0.00  0.00    +0.002 A 
ATOM      7  C   UNL     1       2.207   0.015  21.990  0.00  0.00    +0.030 A 
ENDBRANCH   8   3
BRANCH  25  27
ATOM     27  C   UNL     1      -4.408   2.556  25.080  0.00  0.00    +0.083 A 
ATOM     28  C   UNL     1      -4.715   2.906  24.400  0.00  0.00    +0.012 A 
ATOM     29  C   UNL     1      -4.916   3.686  24.584  0.00  0.00    +0.008 A 
ATOM     30  C   UNL     1      -4.732   3.816  25.378  0.00  0.00    +0.036 A 
ATOM     31  S   UNL     1      -4.418   3.117  25.685  0.00  0.00    -0.082 S 
ENDBRANCH  25  27
TORSDOF 2
ENDMDL
MODEL 7
REMARK VINA RESULT:      -9.4      2.771      4.233
REMARK  Name = 
REMARK  2 active torsions:
REMARK  status: ('A' for Active; 'I' for Inactive)
REMARK    1  A    between atoms: C_3  and  C_8
REMARK    2  A    between atoms: C_25  and  C_27
REMARK                            x       y       z     vdW  Elec       q    Type
REMARK                         _______ _______ _______ _____ _____    ______ ____
ROOT
ATOM      8  C   UNL     1      -4.315   2.664  25.220  0.00  0.00    +0.002 A 
ATOM      9  C   UNL     1      -4.063   3.416  25.448  0.00  0.00    +0.001 A 
ATOM     10  C   UNL     1      -3.268   3.624  25.376  0.00  0.00    +0.017 A 
ATOM     11  C   UNL     1      -2.725   3.081  25.076  0.00  0.00    +0.078 A 
ATOM     12  N   UNL     1      -1.964   3.398  25.050  0.00  0.00    -0.178 NA
ATOM     13  C   UNL     1      -1.267   3.042  24.790  0.00  0.00    +0.265 C 
ATOM     14  O   UNL     1      -0.588   3.509  24.835  0.00  0.00    -0.271 OA
ATOM     15  C   UNL     1      -1.158   2.281  24.492  0.00  0.00    +0.174 C 
ATOM     16  C   UNL     1      -0.369   2.144  24.295  0.00  0.00    +0.123 C 
ATOM     17  N   UNL     1      -0.141   1.413  23.985  0.00  0.00    -0.272 N 
ATOM     18  C   UNL     1      -0.703   0.820  23.873  0.00  0.00    +0.115 C 
ATOM     19  C   UNL     1      -1.492   0.957  24.070  0.00  0.00    +0.116 C 
ATOM     20  N   UNL     1      -1.720   1.688  24.380  0.00  0.00    -0.266 N 
ATOM     21  C   UNL     1      -2.529   1.709  24.538  0.00  0.00    +0.251 C 
ATOM     22  O   UNL     1      -2.946   1.019  24.364  0.00  0.00    -0.270 OA
ATOM     23  C   UNL     1      -2.977   2.329  24.848  0.00  0.00    +0.069 A 
ATOM     24  C   UNL     1      -3.771   2.121  24.920  0.00  0.00    +0.006 A 
ATOM     25  C   UNL     1       0.648   1.277  23.788  0.00  0.00    +0.255 C 
ATOM     26  O   UNL     1       1.211   1.870  23.901  0.00  0.00    -0.269 OA
ENDROOT
BRANCH   8   3
ATOM      1  F   UNL     1      -5.085   2.838  26.668  0.00  0.00    -0.204 F 
ATOM      2  C   UNL     1      -5.495   2.543  26.017  0.00  0.00    +0.140 A 
ATOM      3  C   UNL     1      -5.109   2.456  25.292  0.00  0.00    +0.027 A 
ATOM      4  C   UNL     1      -5.520   2.160  24.640  0.00  0.00    +0.002 A 
ATOM      5  C   UNL     1      -6.315   1.952  24.712  0.00  0.00    +0.000 A 
ATOM      6  C   UNL     1      -6.700   2.039  25.436  0.00  0.00    +0.002 A 
ATOM      7  C   UNL     1      -6.290   2.334  26.089  0.00  0.00    +0.030 A 
ENDBRANCH   8   3
BRANCH  25  27
ATOM     27  C   UNL     1       0.875   0.546  23.479  0.00  0.00    +0.083 A 
ATOM     28  C   UNL     1       0.770  -0.187  23.841  0.00  0.00    +0.012 A 
ATOM     29  C   UNL     1       1.078  -0.765  23.339  0.00  0.00    +0.008 A 
ATOM     30  C   UNL     1       1.373  -0.389  22.667  0.00  0.00    +0.036 A 
ATOM     31  S   UNL     1       1.248   0.423  22.754  0.00  0.00    -0.082 S 
ENDBRANCH  25  27
TORSDOF 2
ENDMDL
