MODEL 1
REMARK VINA RESULT:      -8.1      0.000      0.000
REMARK  Name = 
REMARK  8 active torsions:
REMARK  status: ('A' for Active; 'I' for Inactive)
REMARK    1  A    between atoms: O_2  and  C_3
REMARK    2  A    between atoms: C_6  and  S_9
REMARK    3  A    between atoms: S_9  and  N_12
REMARK    4  A    between atoms: N_12  and  C_13
REMARK    5  A    between atoms: C_13  and  C_14
REMARK    6  A    between atoms: C_18  and  C_19
REMARK    7  A    between atoms: C_19  and  C_20
REMARK    8  A    between atoms: C_32  and  C_33
REMARK                            x       y       z     vdW  Elec       q    Type
REMARK                         _______ _______ _______ _____ _____    ______ ____
ROOT
ATOM     14  C   UNL     1      -0.107   0.642  23.828  0.00  0.00    +0.041 C 
ATOM     15  C   UNL     1      -0.260   1.430  23.641  0.00  0.00    -0.033 C 
ATOM     16  C   UNL     1      -0.977   1.774  23.860  0.00  0.00    -0.048 C 
ATOM     17  C   UNL     1      -1.130   2.564  23.673  0.00  0.00    +0.026 C 
ATOM     18  C   UNL     1      -1.541   1.331  24.265  0.00  0.00    +0.027 C 
ATOM     31  C   UNL     1      -1.388   0.541  24.452  0.00  0.00    +0.005 C 
ATOM     32  C   UNL     1      -0.672   0.197  24.234  0.00  0.00    +0.006 C 
ENDROOT
BRANCH  32  33
ATOM     33  C   UNL     1      -0.519  -0.592  24.421  0.00  0.00    +0.000 C 
ATOM     34  C   UNL     1      -0.623  -1.179  23.850  0.00  0.00    +0.000 C 
ATOM     35  C   UNL     1      -0.261  -0.792  25.178  0.00  0.00    +0.000 C 
ENDBRANCH  32  33
BRANCH  14  13
ATOM     13  C   UNL     1       0.610   0.297  23.609  0.00  0.00    +0.120 C 
BRANCH  13  12
ATOM     12  N   UNL     1       1.073   0.645  23.021  0.00  0.00    -0.077 NA
BRANCH  12   9
ATOM      9  S   UNL     1       1.886   0.515  23.005  0.00  0.00    +0.077 S 
ATOM     10  O   UNL     1       1.995   1.126  23.549  0.00  0.00    -0.152 OA
ATOM     11  O   UNL     1       1.777  -0.097  22.462  0.00  0.00    -0.152 OA
BRANCH   9   6
ATOM      3  C   UNL     1       4.329   0.121  22.958  0.00  0.00    +0.139 A 
ATOM      4  C   UNL     1       4.029   0.869  22.780  0.00  0.00    +0.038 A 
ATOM      5  C   UNL     1       3.215   1.000  22.796  0.00  0.00    +0.023 A 
ATOM      6  C   UNL     1       2.702   0.383  22.989  0.00  0.00    +0.124 A 
ATOM      7  C   UNL     1       3.002  -0.363  23.167  0.00  0.00    +0.023 A 
ATOM      8  C   UNL     1       3.817  -0.495  23.151  0.00  0.00    +0.038 A 
BRANCH   3   2
ATOM      1  C   UNL     1       5.579   0.009  23.642  0.00  0.00    +0.252 C 
ATOM      2  O   UNL     1       5.144  -0.010  22.942  0.00  0.00    -0.471 OA
ENDBRANCH   3   2
ENDBRANCH   9   6
ENDBRANCH  12   9
ENDBRANCH  13  12
ENDBRANCH  14  13
BRANCH  18  19
ATOM     19  C   UNL     1      -2.258   1.675  24.484  0.00  0.00    +0.089 C 
BRANCH  19  20
ATOM     20  C   UNL     1      -2.970   1.319  24.267  0.00  0.00    +0.226 C 
ATOM     21  O   UNL     1      -2.976   0.724  23.695  0.00  0.00    -0.275 OA
ATOM     22  N   UNL     1      -3.675   1.558  24.621  0.00  0.00    -0.276 N 
ATOM     23  C   UNL     1      -4.388   1.202  24.404  0.00  0.00    +0.115 C 
ATOM     24  C   UNL     1      -5.093   1.440  24.758  0.00  0.00    +0.115 C 
ATOM     25  N   UNL     1      -5.087   2.036  25.330  0.00  0.00    -0.276 N 
ATOM     26  C   UNL     1      -4.375   2.391  25.547  0.00  0.00    +0.115 C 
ATOM     27  C   UNL     1      -3.670   2.153  25.193  0.00  0.00    +0.115 C 
ATOM     28  C   UNL     1      -5.793   2.275  25.685  0.00  0.00    +0.226 C 
ATOM     29  C   UNL     1      -6.505   1.918  25.467  0.00  0.00    +0.095 C 
ATOM     30  O   UNL     1      -5.787   2.869  26.256  0.00  0.00    -0.275 OA
ENDBRANCH  19  20
ENDBRANCH  18  19
TORSDOF 8
ENDMDL
MODEL 2
REMARK VINA RESULT:      -7.8      1.418      7.147
REMARK  Name = 
REMARK  8 active torsions:
REMARK  status: ('A' for Active; 'I' for Inactive)
REMARK    1  A    between atoms: O_2  and  C_3
REMARK    2  A    between atoms: C_6  and  S_9
REMARK    3  A    between atoms: S_9  and  N_12
REMARK    4  A    between atoms: N_12  and  C_13
REMARK    5  A    between atoms: C_13  and  C_14
REMARK    6  A    between atoms: C_18  and  C_19
REMARK    7  A    between atoms: C_19  and  C_20
REMARK    8  A    between atoms: C_32  and  C_33
REMARK                            x       y       z     vdW  Elec       q    Type
REMARK                         _______ _______ _______ _____ _____    ______ ____
ROOT
ATOM     14  C   UNL     1      -0.642   0.977  23.926  0.00  0.00    +0.041 C 
ATOM     15  C   UNL     1      -0.613   0.305  23.448  0.00  0.00    -0.033 C 
ATOM     16  C   UNL     1       0.115  -0.006  23.217  0.00  0.00    -0.048 C 
ATOM     17  C   UNL     1       0.144  -0.678  22.740  0.00  0.00    +0.026 C 
ATOM     18  C   UNL     1       0.815   0.355  23.463  0.00  0.00    +0.027 C 
ATOM     31  C   UNL     1       0.786   1.028  23.941  0.00  0.00    +0.005 C 
ATOM     32  C   UNL     1       0.058   1.338  24.172  0.00  0.00    +0.006 C 
ENDROOT
BRANCH  32  33
ATOM     33  C   UNL     1       0.029   2.011  24.649  0.00  0.00    +0.000 C 
ATOM     34  C   UNL     1      -0.022   2.759  24.306  0.00  0.00    +0.000 C 
ATOM     35  C   UNL     1       0.050   1.933  25.470  0.00  0.00    +0.000 C 
ENDBRANCH  32  33
BRANCH  14  13
ATOM     13  C   UNL     1      -1.370   1.288  24.157  0.00  0.00    +0.120 C 
BRANCH  13  12
ATOM     12  N   UNL     1      -2.071   0.932  23.903  0.00  0.00    -0.077 NA
BRANCH  12   9
ATOM      9  S   UNL     1      -2.798   1.238  24.140  0.00  0.00    +0.077 S 
ATOM     10  O   UNL     1      -2.853   1.656  23.431  0.00  0.00    -0.152 OA
ATOM     11  O   UNL     1      -2.743   0.821  24.849  0.00  0.00    -0.152 OA
BRANCH   9   6
ATOM      3  C   UNL     1      -4.983   2.159  24.851  0.00  0.00    +0.139 A 
ATOM      4  C   UNL     1      -4.400   2.662  24.555  0.00  0.00    +0.038 A 
ATOM      5  C   UNL     1      -3.672   2.356  24.318  0.00  0.00    +0.023 A 
ATOM      6  C   UNL     1      -3.527   1.545  24.377  0.00  0.00    +0.124 A 
ATOM      7  C   UNL     1      -4.110   1.042  24.672  0.00  0.00    +0.023 A 
ATOM      8  C   UNL     1      -4.838   1.349  24.909  0.00  0.00    +0.038 A 
BRANCH   3   2
ATOM      1  C   UNL     1      -5.743   3.058  25.660  0.00  0.00    +0.252 C 
ATOM      2  O   UNL     1      -5.711   2.465  25.088  0.00  0.00    -0.471 OA
ENDBRANCH   3   2
ENDBRANCH   9   6
ENDBRANCH  12   9
ENDBRANCH  13  12
ENDBRANCH  14  13
BRANCH  18  19
ATOM     19  C   UNL     1       1.543   0.044  23.232  0.00  0.00    +0.089 C 
BRANCH  19  20
ATOM     20  C   UNL     1       2.153   0.549  23.001  0.00  0.00    +0.226 C 
ATOM     21  O   UNL     1       1.976   1.275  22.651  0.00  0.00    -0.275 OA
ATOM     22  N   UNL     1       2.938   0.328  23.119  0.00  0.00    -0.276 N 
ATOM     23  C   UNL     1       3.548   0.834  22.887  0.00  0.00    +0.115 C 
ATOM     24  C   UNL     1       4.334   0.613  23.006  0.00  0.00    +0.115 C 
ATOM     25  N   UNL     1       4.511  -0.113  23.356  0.00  0.00    -0.276 N 
ATOM     26  C   UNL     1       3.901  -0.618  23.587  0.00  0.00    +0.115 C 
ATOM     27  C   UNL     1       3.115  -0.397  23.469  0.00  0.00    +0.115 C 
ATOM     28  C   UNL     1       5.297  -0.334  23.474  0.00  0.00    +0.226 C 
ATOM     29  C   UNL     1       5.907   0.172  23.242  0.00  0.00    +0.095 C 
ATOM     30  O   UNL     1       5.473  -1.059  23.824  0.00  0.00    -0.275 OA
ENDBRANCH  19  20
ENDBRANCH  18  19
TORSDOF 8
ENDMDL
