MODEL 1
REMARK VINA RESULT:     -12.5      0.000      0.000
REMARK  Name = 
REMARK  7 active torsions:
REMARK  status: ('A' for Active; 'I' for Inactive)
REMARK    1  A    between atoms: C_5  and  N_6
REMARK    2  A    between atoms: N_9  and  C_10
REMARK    3  A    between atoms: C_12  and  C_18
REMARK    4  A    between atoms: N_20  and  C_21
REMARK    5  A    between atoms: C_21  and  C_22
REMARK    6  A    between atoms: C_21  and  C_28
REMARK    7  A    between atoms: C_22  and  C_23
REMARK                            x       y       z     vdW  Elec       q    Type
REMARK                         _______ _______ _______ _____ _____    ______ ____
ROOT
ATOM     10  C   UNL     1      -4.845   1.930  24.933  0.00  0.00    +0.152 C 
ATOM     11  C   UNL     1      -4.148   2.313  24.720  0.00  0.00    -0.002 C 
ATOM     12  C   UNL     1      -3.985   3.068  25.012  0.00  0.00    +0.033 C 
ATOM     13  C   UNL     1      -4.522   3.439  25.518  0.00  0.00    +0.066 C 
ATOM     14  C   UNL     1      -5.220   3.054  25.731  0.00  0.00    +0.189 C 
ATOM     15  O   UNL     1      -5.756   3.425  26.237  0.00  0.00    -0.220 OA
ATOM     16  C   UNL     1      -5.382   2.301  25.440  0.00  0.00    +0.206 C 
ATOM     17  O   UNL     1      -6.080   1.916  25.653  0.00  0.00    -0.218 OA
ENDROOT
BRANCH  10   9
ATOM      6  N   UNL     1      -4.631  -0.192  24.465  0.00  0.00    -0.161 NA
ATOM      7  C   UNL     1      -4.468   0.563  24.757  0.00  0.00    +0.344 C 
ATOM      8  O   UNL     1      -3.764   0.704  25.165  0.00  0.00    -0.249 OA
ATOM      9  N   UNL     1      -5.008   1.175  24.642  0.00  0.00    -0.181 NA
BRANCH   6   5
ATOM      1  C   UNL     1      -2.470  -2.644  24.925  0.00  0.00    +0.031 C 
ATOM      2  C   UNL     1      -3.011  -2.031  24.810  0.00  0.00    -0.022 A 
ATOM      3  C   UNL     1      -3.402  -1.698  25.457  0.00  0.00    -0.003 A 
ATOM      4  C   UNL     1      -3.941  -1.086  25.342  0.00  0.00    +0.016 A 
ATOM      5  C   UNL     1      -4.091  -0.804  24.580  0.00  0.00    +0.075 A 
ATOM     31  C   UNL     1      -3.700  -1.137  23.933  0.00  0.00    +0.016 A 
ATOM     32  C   UNL     1      -3.160  -1.750  24.049  0.00  0.00    -0.003 A 
ENDBRANCH   6   5
ENDBRANCH  10   9
BRANCH  12  18
ATOM     18  C   UNL     1      -3.287   3.452  24.798  0.00  0.00    +0.261 C 
ATOM     19  O   UNL     1      -3.233   3.833  24.069  0.00  0.00    -0.269 OA
ATOM     20  N   UNL     1      -2.644   3.454  25.314  0.00  0.00    -0.194 NA
BRANCH  20  21
ATOM     21  C   UNL     1      -1.945   3.838  25.101  0.00  0.00    +0.179 C 
BRANCH  21  28
ATOM     28  C   UNL     1      -1.832   4.631  25.303  0.00  0.00    +0.281 C 
ATOM     29  N   UNL     1      -1.458   5.142  24.774  0.00  0.00    -0.086 NA
ATOM     30  O   UNL     1      -2.094   4.912  26.033  0.00  0.00    -0.270 OA
ENDBRANCH  21  28
BRANCH  21  22
ATOM     22  C   UNL     1      -1.360   3.431  24.687  0.00  0.00    +0.064 C 
BRANCH  22  23
ATOM     23  C   UNL     1      -0.858   2.911  25.087  0.00  0.00    +0.010 A 
ATOM     24  C   UNL     1      -0.691   2.923  25.895  0.00  0.00    +0.003 A 
ATOM     25  C   UNL     1      -0.165   2.308  26.054  0.00  0.00    +0.007 A 
ATOM     26  C   UNL     1      -0.006   1.917  25.345  0.00  0.00    +0.035 A 
ATOM     27  S   UNL     1      -0.434   2.290  24.747  0.00  0.00    -0.091 S 
ENDBRANCH  22  23
ENDBRANCH  21  22
ENDBRANCH  20  21
ENDBRANCH  12  18
TORSDOF 7
ENDMDL
MODEL 2
REMARK VINA RESULT:     -11.7      1.875      3.549
REMARK  Name = 
REMARK  7 active torsions:
REMARK  status: ('A' for Active; 'I' for Inactive)
REMARK    1  A    between atoms: C_5  and  N_6
REMARK    2  A    between atoms: N_9  and  C_10
REMARK    3  A    between atoms: C_12  and  C_18
REMARK    4  A    between atoms: N_20  and  C_21
REMARK    5  A    between atoms: C_21  and  C_22
REMARK    6  A    between atoms: C_21  and  C_28
REMARK    7  A    between atoms: C_22  and  C_23
REMARK                            x       y       z     vdW  Elec       q    Type
REMARK                         _______ _______ _______ _____ _____    ______ ____
ROOT
ATOM     10  C   UNL     1      -1.004   1.210  25.238  0.00  0.00    +0.152 C 
ATOM     11  C   UNL     1      -1.659   1.705  25.319  0.00  0.00    -0.002 C 
ATOM     12  C   UNL     1      -1.635   2.474  25.022  0.00  0.00    +0.033 C 
ATOM     13  C   UNL     1      -0.955   2.749  24.643  0.00  0.00    +0.066 C 
ATOM     14  C   UNL     1      -0.299   2.254  24.562  0.00  0.00    +0.189 C 
ATOM     15  O   UNL     1       0.380   2.528  24.183  0.00  0.00    -0.220 OA
ATOM     16  C   UNL     1      -0.324   1.485  24.859  0.00  0.00    +0.206 C 
ATOM     17  O   UNL     1       0.331   0.990  24.778  0.00  0.00    -0.218 OA
ENDROOT
BRANCH  10   9
ATOM      6  N   UNL     1      -1.604  -0.867  25.541  0.00  0.00    -0.161 NA
ATOM      7  C   UNL     1      -1.581  -0.097  25.244  0.00  0.00    +0.344 C 
ATOM      8  O   UNL     1      -2.111   0.133  24.654  0.00  0.00    -0.249 OA
ATOM      9  N   UNL     1      -1.028   0.441  25.535  0.00  0.00    -0.181 NA
BRANCH   6   5
ATOM      1  C   UNL     1      -3.816  -3.022  24.375  0.00  0.00    +0.031 C 
ATOM      2  C   UNL     1      -3.262  -2.483  24.666  0.00  0.00    -0.022 A 
ATOM      3  C   UNL     1      -3.483  -1.938  25.247  0.00  0.00    -0.003 A 
ATOM      4  C   UNL     1      -2.930  -1.400  25.538  0.00  0.00    +0.016 A 
ATOM      5  C   UNL     1      -2.157  -1.405  25.250  0.00  0.00    +0.075 A 
ATOM     31  C   UNL     1      -1.936  -1.950  24.669  0.00  0.00    +0.016 A 
ATOM     32  C   UNL     1      -2.490  -2.488  24.378  0.00  0.00    -0.003 A 
ENDBRANCH   6   5
ENDBRANCH  10   9
BRANCH  12  18
ATOM     18  C   UNL     1      -2.290   2.968  25.102  0.00  0.00    +0.261 C 
ATOM     19  O   UNL     1      -2.246   3.635  25.586  0.00  0.00    -0.269 OA
ATOM     20  N   UNL     1      -2.989   2.796  24.700  0.00  0.00    -0.194 NA
BRANCH  20  21
ATOM     21  C   UNL     1      -3.644   3.290  24.780  0.00  0.00    +0.179 C 
BRANCH  21  28
ATOM     28  C   UNL     1      -3.790   3.877  24.217  0.00  0.00    +0.281 C 
ATOM     29  N   UNL     1      -3.898   4.660  24.455  0.00  0.00    -0.086 NA
ATOM     30  O   UNL     1      -3.828   3.680  23.417  0.00  0.00    -0.270 OA
ENDBRANCH  21  28
BRANCH  21  22
ATOM     22  C   UNL     1      -4.153   3.199  25.422  0.00  0.00    +0.064 C 
BRANCH  22  23
ATOM     23  C   UNL     1      -4.795   2.682  25.370  0.00  0.00    +0.010 A 
ATOM     24  C   UNL     1      -4.823   1.987  24.926  0.00  0.00    +0.003 A 
ATOM     25  C   UNL     1      -5.565   1.645  25.035  0.00  0.00    +0.007 A 
ATOM     26  C   UNL     1      -5.997   2.129  25.546  0.00  0.00    +0.035 A 
ATOM     27  S   UNL     1      -5.521   2.770  25.753  0.00  0.00    -0.091 S 
ENDBRANCH  22  23
ENDBRANCH  21  22
ENDBRANCH  20  21
ENDBRANCH  12  18
TORSDOF 7
ENDMDL
MODEL 3
REMARK VINA RESULT:     -11.7      1.337      4.399
REMARK  Name = 
REMARK  7 active torsions:
REMARK  status: ('A' for Active; 'I' for Inactive)
REMARK    1  A    between atoms: C_5  and  N_6
REMARK    2  A    between atoms: N_9  and  C_10
REMARK    3  A    between atoms: C_12  and  C_18
REMARK    4  A    between atoms: N_20  and  C_21
REMARK    5  A    between atoms: C_21  and  C_22
REMARK    6  A    between atoms: C_21  and  C_28
REMARK    7  A    between atoms: C_22  and  C_23
REMARK                            x       y       z     vdW  Elec       q    Type
REMARK                         _______ _______ _______ _____ _____    ______ ____
ROOT
ATOM     10  C   UNL     1      -4.614   2.394  25.516  0.00  0.00    +0.152 C 
ATOM     11  C   UNL     1      -4.229   1.692  25.320  0.00  0.00    -0.002 C 
ATOM     12  C   UNL     1      -4.644   1.084  24.946  0.00  0.00    +0.033 C 
ATOM     13  C   UNL     1      -5.444   1.180  24.767  0.00  0.00    +0.066 C 
ATOM     14  C   UNL     1      -5.829   1.883  24.963  0.00  0.00    +0.189 C 
ATOM     15  O   UNL     1      -6.629   1.979  24.784  0.00  0.00    -0.220 OA
ATOM     16  C   UNL     1      -5.415   2.490  25.337  0.00  0.00    +0.206 C 
ATOM     17  O   UNL     1      -5.799   3.194  25.532  0.00  0.00    -0.218 OA
ENDROOT
BRANCH  10   9
ATOM      6  N   UNL     1      -3.080   3.888  25.941  0.00  0.00    -0.161 NA
ATOM      7  C   UNL     1      -3.494   3.280  25.567  0.00  0.00    +0.344 C 
ATOM      8  O   UNL     1      -3.201   2.951  24.868  0.00  0.00    -0.249 OA
ATOM      9  N   UNL     1      -4.200   3.002  25.890  0.00  0.00    -0.181 NA
BRANCH   6   5
ATOM      1  C   UNL     1      -0.255   5.003  24.649  0.00  0.00    +0.031 C 
ATOM      2  C   UNL     1      -0.962   4.725  24.972  0.00  0.00    -0.022 A 
ATOM      3  C   UNL     1      -0.992   3.973  25.311  0.00  0.00    -0.003 A 
ATOM      4  C   UNL     1      -1.698   3.694  25.634  0.00  0.00    +0.016 A 
ATOM      5  C   UNL     1      -2.374   4.167  25.618  0.00  0.00    +0.075 A 
ATOM     31  C   UNL     1      -2.344   4.919  25.279  0.00  0.00    +0.016 A 
ATOM     32  C   UNL     1      -1.637   5.197  24.956  0.00  0.00    -0.003 A 
ENDBRANCH   6   5
ENDBRANCH  10   9
BRANCH  12  18
ATOM     18  C   UNL     1      -4.259   0.381  24.751  0.00  0.00    +0.261 C 
ATOM     19  O   UNL     1      -4.461  -0.022  24.061  0.00  0.00    -0.269 OA
ATOM     20  N   UNL     1      -3.672   0.081  25.247  0.00  0.00    -0.194 NA
BRANCH  20  21
ATOM     21  C   UNL     1      -3.287  -0.622  25.052  0.00  0.00    +0.179 C 
BRANCH  21  28
ATOM     28  C   UNL     1      -3.557  -1.339  25.359  0.00  0.00    +0.281 C 
ATOM     29  N   UNL     1      -3.699  -1.976  24.854  0.00  0.00    -0.086 NA
ATOM     30  O   UNL     1      -3.686  -1.418  26.170  0.00  0.00    -0.270 OA
ENDBRANCH  21  28
BRANCH  21  22
ATOM     22  C   UNL     1      -2.632  -0.609  24.551  0.00  0.00    +0.064 C 
BRANCH  22  23
ATOM     23  C   UNL     1      -1.894  -0.381  24.843  0.00  0.00    +0.010 A 
ATOM     24  C   UNL     1      -1.630  -0.473  25.620  0.00  0.00    +0.003 A 
ATOM     25  C   UNL     1      -0.863  -0.171  25.665  0.00  0.00    +0.007 A 
ATOM     26  C   UNL     1      -0.653   0.107  24.916  0.00  0.00    +0.035 A 
ATOM     27  S   UNL     1      -1.290  -0.023  24.408  0.00  0.00    -0.091 S 
ENDBRANCH  22  23
ENDBRANCH  21  22
ENDBRANCH  20  21
ENDBRANCH  12  18
TORSDOF 7
ENDMDL
MODEL 4
REMARK VINA RESULT:     -11.3      2.211      4.901
REMARK  Name = 
REMARK  7 active torsions:
REMARK  status: ('A' for Active; 'I' for Inactive)
REMARK    1  A    between atoms: C_5  and  N_6
REMARK    2  A    between atoms: N_9  and  C_10
REMARK    3  A    between atoms: C_12  and  C_18
REMARK    4  A    between atoms: N_20  and  C_21
REMARK    5  A    between atoms: C_21  and  C_22
REMARK    6  A    between atoms: C_21  and  C_28
REMARK    7  A    between atoms: C_22  and  C_23
REMARK                            x       y       z     vdW  Elec       q    Type
REMARK                         _______ _______ _______ _____ _____    ______ ____
ROOT
ATOM     10  C   UNL     1      -1.416   2.158  24.058  0.00  0.00    +0.152 C 
ATOM     11  C   UNL     1      -1.401   1.334  24.092  0.00  0.00    -0.002 C 
ATOM     12  C   UNL     1      -0.711   0.943  24.321  0.00  0.00    +0.033 C 
ATOM     13  C   UNL     1      -0.035   1.377  24.514  0.00  0.00    +0.066 C 
ATOM     14  C   UNL     1      -0.052   2.201  24.480  0.00  0.00    +0.189 C 
ATOM     15  O   UNL     1       0.623   2.635  24.673  0.00  0.00    -0.220 OA
ATOM     16  C   UNL     1      -0.741   2.592  24.252  0.00  0.00    +0.206 C 
ATOM     17  O   UNL     1      -0.757   3.416  24.217  0.00  0.00    -0.218 OA
ENDROOT
BRANCH  10   9
ATOM      6  N   UNL     1      -3.482   2.865  24.053  0.00  0.00    -0.161 NA
ATOM      7  C   UNL     1      -2.792   2.474  24.281  0.00  0.00    +0.344 C 
ATOM      8  O   UNL     1      -2.789   2.007  24.963  0.00  0.00    -0.249 OA
ATOM      9  N   UNL     1      -2.106   2.549  23.830  0.00  0.00    -0.181 NA
BRANCH   6   5
ATOM      1  C   UNL     1      -6.226   2.566  25.861  0.00  0.00    +0.031 C 
ATOM      2  C   UNL     1      -5.540   2.641  25.409  0.00  0.00    -0.022 A 
ATOM      3  C   UNL     1      -5.367   2.083  24.826  0.00  0.00    -0.003 A 
ATOM      4  C   UNL     1      -4.681   2.158  24.374  0.00  0.00    +0.016 A 
ATOM      5  C   UNL     1      -4.167   2.790  24.505  0.00  0.00    +0.075 A 
ATOM     31  C   UNL     1      -4.340   3.348  25.088  0.00  0.00    +0.016 A 
ATOM     32  C   UNL     1      -5.027   3.273  25.540  0.00  0.00    -0.003 A 
ENDBRANCH   6   5
ENDBRANCH  10   9
BRANCH  12  18
ATOM     18  C   UNL     1      -0.695   0.119  24.355  0.00  0.00    +0.261 C 
ATOM     19  O   UNL     1      -0.215  -0.306  23.838  0.00  0.00    -0.269 OA
ATOM     20  N   UNL     1      -1.160  -0.279  24.908  0.00  0.00    -0.194 NA
BRANCH  20  21
ATOM     21  C   UNL     1      -1.145  -1.103  24.943  0.00  0.00    +0.179 C 
BRANCH  21  28
ATOM     28  C   UNL     1      -0.646  -1.483  25.479  0.00  0.00    +0.281 C 
ATOM     29  N   UNL     1      -0.137  -2.079  25.218  0.00  0.00    -0.086 NA
ATOM     30  O   UNL     1      -0.655  -1.269  26.276  0.00  0.00    -0.270 OA
ENDBRANCH  21  28
BRANCH  21  22
ATOM     22  C   UNL     1      -1.628  -1.546  24.444  0.00  0.00    +0.064 C 
BRANCH  22  23
ATOM     23  C   UNL     1      -2.392  -1.750  24.681  0.00  0.00    +0.010 A 
ATOM     24  C   UNL     1      -2.901  -1.282  25.133  0.00  0.00    +0.003 A 
ATOM     25  C   UNL     1      -3.603  -1.700  25.240  0.00  0.00    +0.007 A 
ATOM     26  C   UNL     1      -3.530  -2.426  24.854  0.00  0.00    +0.035 A 
ATOM     27  S   UNL     1      -2.781  -2.457  24.509  0.00  0.00    -0.091 S 
ENDBRANCH  22  23
ENDBRANCH  21  22
ENDBRANCH  20  21
ENDBRANCH  12  18
TORSDOF 7
ENDMDL
MODEL 5
REMARK VINA RESULT:     -10.8      2.312      5.831
REMARK  Name = 
REMARK  7 active torsions:
REMARK  status: ('A' for Active; 'I' for Inactive)
REMARK    1  A    between atoms: C_5  and  N_6
REMARK    2  A    between atoms: N_9  and  C_10
REMARK    3  A    between atoms: C_12  and  C_18
REMARK    4  A    between atoms: N_20  and  C_21
REMARK    5  A    between atoms: C_21  and  C_22
REMARK    6  A    between atoms: C_21  and  C_28
REMARK    7  A    between atoms: C_22  and  C_23
REMARK                            x       y       z     vdW  Elec       q    Type
REMARK                         _______ _______ _______ _____ _____    ______ ____
ROOT
ATOM     10  C   UNL     1      -0.036   0.889  24.671  0.00  0.00    +0.152 C 
ATOM     11  C   UNL     1      -0.639   0.429  24.993  0.00  0.00    -0.002 C 
ATOM     12  C   UNL     1      -0.830  -0.298  24.652  0.00  0.00    +0.033 C 
ATOM     13  C   UNL     1      -0.417  -0.564  23.988  0.00  0.00    +0.066 C 
ATOM     14  C   UNL     1       0.187  -0.103  23.667  0.00  0.00    +0.189 C 
ATOM     15  O   UNL     1       0.600  -0.368  23.004  0.00  0.00    -0.220 OA
ATOM     16  C   UNL     1       0.378   0.623  24.007  0.00  0.00    +0.206 C 
ATOM     17  O   UNL     1       0.982   1.085  23.686  0.00  0.00    -0.218 OA
ENDROOT
BRANCH  10   9
ATOM      6  N   UNL     1      -0.198   2.961  25.340  0.00  0.00    -0.161 NA
ATOM      7  C   UNL     1      -0.389   2.234  24.999  0.00  0.00    +0.344 C 
ATOM      8  O   UNL     1      -1.128   2.127  24.645  0.00  0.00    -0.249 OA
ATOM      9  N   UNL     1       0.156   1.616  25.012  0.00  0.00    -0.181 NA
BRANCH   6   5
ATOM      1  C   UNL     1      -2.380   5.437  25.287  0.00  0.00    +0.031 C 
ATOM      2  C   UNL     1      -1.834   4.818  25.300  0.00  0.00    -0.022 A 
ATOM      3  C   UNL     1      -1.971   4.157  25.775  0.00  0.00    -0.003 A 
ATOM      4  C   UNL     1      -1.426   3.539  25.788  0.00  0.00    +0.016 A 
ATOM      5  C   UNL     1      -0.743   3.580  25.327  0.00  0.00    +0.075 A 
ATOM     31  C   UNL     1      -0.606   4.241  24.851  0.00  0.00    +0.016 A 
ATOM     32  C   UNL     1      -1.152   4.860  24.839  0.00  0.00    -0.003 A 
ENDBRANCH   6   5
ENDBRANCH  10   9
BRANCH  12  18
ATOM     18  C   UNL     1      -1.433  -0.759  24.974  0.00  0.00    +0.261 C 
ATOM     19  O   UNL     1      -1.307  -1.171  25.677  0.00  0.00    -0.269 OA
ATOM     20  N   UNL     1      -2.163  -0.808  24.592  0.00  0.00    -0.194 NA
BRANCH  20  21
ATOM     21  C   UNL     1      -2.767  -1.269  24.913  0.00  0.00    +0.179 C 
BRANCH  21  28
ATOM     28  C   UNL     1      -2.805  -2.076  24.742  0.00  0.00    +0.281 C 
ATOM     29  N   UNL     1      -2.978  -2.617  25.342  0.00  0.00    -0.086 NA
ATOM     30  O   UNL     1      -2.669  -2.342  23.973  0.00  0.00    -0.270 OA
ENDBRANCH  21  28
BRANCH  21  22
ATOM     22  C   UNL     1      -3.332  -0.925  25.404  0.00  0.00    +0.064 C 
BRANCH  22  23
ATOM     23  C   UNL     1      -3.896  -0.411  25.087  0.00  0.00    +0.010 A 
ATOM     24  C   UNL     1      -4.327  -0.531  24.394  0.00  0.00    +0.003 A 
ATOM     25  C   UNL     1      -4.824   0.119  24.287  0.00  0.00    +0.007 A 
ATOM     26  C   UNL     1      -4.700   0.640  24.915  0.00  0.00    +0.035 A 
ATOM     27  S   UNL     1      -4.127   0.313  25.410  0.00  0.00    -0.091 S 
ENDBRANCH  22  23
ENDBRANCH  21  22
ENDBRANCH  20  21
ENDBRANCH  12  18
TORSDOF 7
ENDMDL
