REMARK  Name = 
REMARK  7 active torsions:
REMARK  status: ('A' for Active; 'I' for Inactive)
REMARK    1  A    between atoms: O_2  and  C_3
REMARK    2  A    between atoms: C_6  and  C_9
REMARK    3  A    between atoms: N_11  and  C_12
REMARK    4  A    between atoms: C_15  and  C_18
REMARK    5  A    between atoms: N_23  and  C_24
REMARK    6  A    between atoms: C_24  and  C_25
REMARK    7  A    between atoms: C_27  and  C_28
REMARK                            x       y       z     vdW  Elec       q    Type
REMARK                         _______ _______ _______ _____ _____    ______ ____
ROOT
ATOM     12  C   UNL     1       2.143  -8.662   0.000  0.00  0.00    +0.074 A 
ATOM     13  C   UNL     1       2.858  -9.075   0.000  0.00  0.00    +0.016 A 
ATOM     14  C   UNL     1       2.858  -9.900   0.000  0.00  0.00    -0.001 A 
ATOM     15  C   UNL     1       2.143 -10.312   0.000  0.00  0.00    +0.006 A 
ATOM     16  C   UNL     1       1.429  -9.900   0.000  0.00  0.00    -0.001 A 
ATOM     17  C   UNL     1       1.429  -9.075   0.000  0.00  0.00    +0.016 A 
ENDROOT
BRANCH  15  18
ATOM     18  C   UNL     1       2.143 -11.137   0.000  0.00  0.00    +0.159 C 
ATOM     19  O   UNL     1       2.858 -11.550   0.000  0.00  0.00    -0.341 OA
ATOM     20  C   UNL     1       2.858 -12.375   0.000  0.00  0.00    +0.227 C 
ATOM     21  C   UNL     1       2.143 -12.787   0.000  0.00  0.00    +0.256 C 
ATOM     22  O   UNL     1       2.143 -13.613   0.000  0.00  0.00    -0.272 OA
ATOM     23  N   UNL     1       1.429 -12.375   0.000  0.00  0.00    -0.272 N 
ATOM     27  C   UNL     1       1.429 -11.550   0.000  0.00  0.00    +0.140 C 
BRANCH  27  28
ATOM     28  C   UNL     1       0.715 -11.137   0.000  0.00  0.00    +0.205 C 
ATOM     29  O   UNL     1       0.715 -10.312   0.000  0.00  0.00    -0.218 OA
ENDBRANCH  27  28
BRANCH  23  24
ATOM     24  C   UNL     1       0.715 -12.787   0.000  0.00  0.00    +0.114 C 
BRANCH  24  25
ATOM     25  C   UNL     1       0.715 -13.613   0.000  0.00  0.00    +0.131 C 
ATOM     26  N   UNL     1       1.429 -14.025   0.000  0.00  0.00    -0.130 NA
ENDBRANCH  24  25
ENDBRANCH  23  24
ENDBRANCH  15  18
BRANCH  12  11
ATOM      9  C   UNL     1       1.429  -7.425   0.000  0.00  0.00    +0.269 C 
ATOM     10  O   UNL     1       0.715  -7.838   0.000  0.00  0.00    -0.268 OA
ATOM     11  N   UNL     1       2.143  -7.838   0.000  0.00  0.00    -0.175 NA
BRANCH   9   6
ATOM      3  C   UNL     1       1.429  -4.950   0.000  0.00  0.00    +0.139 A 
ATOM      4  C   UNL     1       2.143  -5.362   0.000  0.00  0.00    +0.037 A 
ATOM      5  C   UNL     1       2.143  -6.188   0.000  0.00  0.00    +0.008 A 
ATOM      6  C   UNL     1       1.429  -6.600   0.000  0.00  0.00    +0.056 A 
ATOM      7  C   UNL     1       0.715  -6.188   0.000  0.00  0.00    +0.008 A 
ATOM      8  C   UNL     1       0.715  -5.362   0.000  0.00  0.00    +0.037 A 
BRANCH   3   2
ATOM      1  C   UNL     1       0.715  -3.712   0.000  0.00  0.00    +0.252 C 
ATOM      2  O   UNL     1       1.429  -4.125   0.000  0.00  0.00    -0.471 OA
ENDBRANCH   3   2
ENDBRANCH   9   6
ENDBRANCH  12  11
TORSDOF 7
