MODEL 1
REMARK VINA RESULT:     -12.9      0.000      0.000
REMARK  Name = 
REMARK  7 active torsions:
REMARK  status: ('A' for Active; 'I' for Inactive)
REMARK    1  A    between atoms: C_2  and  C_4
REMARK    2  A    between atoms: C_4  and  C_5
REMARK    3  A    between atoms: C_10  and  C_11
REMARK    4  A    between atoms: C_11  and  C_12
REMARK    5  A    between atoms: C_22  and  C_24
REMARK    6  A    between atoms: C_24  and  C_25
REMARK    7  A    between atoms: C_25  and  C_26
REMARK                            x       y       z     vdW  Elec       q    Type
REMARK                         _______ _______ _______ _____ _____    ______ ____
ROOT
ATOM      5  C   UNL     1      -4.585   1.430  24.944  0.00  0.00    +0.015 C 
ATOM      6  C   UNL     1      -4.283   2.196  24.987  0.00  0.00    +0.022 C 
ATOM      7  C   UNL     1      -3.498   2.342  24.783  0.00  0.00    +0.093 C 
ATOM      8  N   UNL     1      -3.013   1.722  24.537  0.00  0.00    -0.280 N 
ATOM      9  C   UNL     1      -3.314   0.956  24.495  0.00  0.00    +0.094 C 
ATOM     10  C   UNL     1      -4.099   0.810  24.698  0.00  0.00    +0.026 C 
ATOM     22  C   UNL     1      -2.227   1.869  24.334  0.00  0.00    +0.226 C 
ATOM     23  O   UNL     1      -1.926   2.635  24.376  0.00  0.00    -0.275 OA
ENDROOT
BRANCH   5   4
ATOM      4  C   UNL     1      -5.371   1.283  25.148  0.00  0.00    +0.114 C 
BRANCH   4   2
ATOM      1  O   UNL     1      -5.914   2.241  26.059  0.00  0.00    -0.246 OA
ATOM      2  C   UNL     1      -5.880   1.913  25.302  0.00  0.00    +0.365 C 
ATOM      3  O   UNL     1      -6.357   2.215  24.699  0.00  0.00    -0.246 OA
ENDBRANCH   4   2
ENDBRANCH   5   4
BRANCH  10  11
ATOM     11  C   UNL     1      -4.401   0.042  24.656  0.00  0.00    +0.047 C 
BRANCH  11  12
ATOM     12  C   UNL     1      -4.021  -0.573  25.052  0.00  0.00    +0.053 C 
ATOM     13  N   UNL     1      -3.721  -0.451  25.811  0.00  0.00    -0.274 NA
ATOM     14  C   UNL     1      -3.340  -1.067  26.208  0.00  0.00    +0.130 C 
ATOM     15  C   UNL     1      -3.260  -1.804  25.846  0.00  0.00    +0.053 C 
ATOM     16  C   UNL     1      -3.560  -1.926  25.087  0.00  0.00    -0.019 A 
ATOM     17  C   UNL     1      -3.941  -1.310  24.690  0.00  0.00    +0.009 A 
ATOM     18  C   UNL     1      -4.241  -1.432  23.932  0.00  0.00    +0.001 A 
ATOM     19  C   UNL     1      -4.161  -2.168  23.570  0.00  0.00    +0.000 A 
ATOM     20  C   UNL     1      -3.780  -2.784  23.967  0.00  0.00    -0.000 A 
ATOM     21  C   UNL     1      -3.480  -2.662  24.725  0.00  0.00    -0.004 A 
ENDBRANCH  11  12
ENDBRANCH  10  11
BRANCH  22  24
ATOM     24  C   UNL     1      -1.742   1.249  24.088  0.00  0.00    +0.090 C 
BRANCH  24  25
ATOM     25  C   UNL     1      -0.925   1.298  24.191  0.00  0.00    +0.036 C 
BRANCH  25  26
ATOM     26  C   UNL     1      -0.445   0.655  23.994  0.00  0.00    -0.022 A 
ATOM     27  C   UNL     1       0.034   0.688  23.324  0.00  0.00    -0.004 A 
ATOM     28  C   UNL     1       0.515   0.046  23.128  0.00  0.00    -0.000 A 
ATOM     29  C   UNL     1       0.515  -0.628  23.603  0.00  0.00    -0.000 A 
ATOM     30  C   UNL     1       0.036  -0.661  24.274  0.00  0.00    -0.000 A 
ATOM     31  C   UNL     1      -0.444  -0.020  24.470  0.00  0.00    -0.004 A 
ENDBRANCH  25  26
ENDBRANCH  24  25
ENDBRANCH  22  24
TORSDOF 7
ENDMDL
MODEL 2
REMARK VINA RESULT:     -12.9      1.990      3.758
REMARK  Name = 
REMARK  7 active torsions:
REMARK  status: ('A' for Active; 'I' for Inactive)
REMARK    1  A    between atoms: C_2  and  C_4
REMARK    2  A    between atoms: C_4  and  C_5
REMARK    3  A    between atoms: C_10  and  C_11
REMARK    4  A    between atoms: C_11  and  C_12
REMARK    5  A    between atoms: C_22  and  C_24
REMARK    6  A    between atoms: C_24  and  C_25
REMARK    7  A    between atoms: C_25  and  C_26
REMARK                            x       y       z     vdW  Elec       q    Type
REMARK                         _______ _______ _______ _____ _____    ______ ____
ROOT
ATOM      5  C   UNL     1      -3.340  -0.748  24.617  0.00  0.00    +0.015 C 
ATOM      6  C   UNL     1      -2.624  -1.155  24.664  0.00  0.00    +0.022 C 
ATOM      7  C   UNL     1      -1.940  -0.761  24.902  0.00  0.00    +0.093 C 
ATOM      8  N   UNL     1      -1.971   0.041  25.093  0.00  0.00    -0.280 N 
ATOM      9  C   UNL     1      -2.687   0.448  25.046  0.00  0.00    +0.094 C 
ATOM     10  C   UNL     1      -3.371   0.053  24.808  0.00  0.00    +0.026 C 
ATOM     22  C   UNL     1      -1.287   0.436  25.330  0.00  0.00    +0.226 C 
ATOM     23  O   UNL     1      -0.572   0.029  25.377  0.00  0.00    -0.275 OA
ENDROOT
BRANCH   5   4
ATOM      4  C   UNL     1      -4.024  -1.143  24.380  0.00  0.00    +0.114 C 
BRANCH   4   2
ATOM      1  O   UNL     1      -3.907  -2.495  24.828  0.00  0.00    -0.246 OA
ATOM      2  C   UNL     1      -3.998  -1.951  24.215  0.00  0.00    +0.365 C 
ATOM      3  O   UNL     1      -4.062  -2.215  23.435  0.00  0.00    -0.246 OA
ENDBRANCH   4   2
ENDBRANCH   5   4
BRANCH  10  11
ATOM     11  C   UNL     1      -4.088   0.461  24.761  0.00  0.00    +0.047 C 
BRANCH  11  12
ATOM     12  C   UNL     1      -4.117   1.203  24.403  0.00  0.00    +0.053 C 
ATOM     13  N   UNL     1      -3.714   1.336  23.696  0.00  0.00    -0.274 NA
ATOM     14  C   UNL     1      -3.743   2.080  23.337  0.00  0.00    +0.130 C 
ATOM     15  C   UNL     1      -4.177   2.689  23.687  0.00  0.00    +0.053 C 
ATOM     16  C   UNL     1      -4.581   2.556  24.394  0.00  0.00    -0.019 A 
ATOM     17  C   UNL     1      -4.551   1.812  24.753  0.00  0.00    +0.009 A 
ATOM     18  C   UNL     1      -4.954   1.679  25.459  0.00  0.00    +0.001 A 
ATOM     19  C   UNL     1      -5.387   2.288  25.808  0.00  0.00    +0.000 A 
ATOM     20  C   UNL     1      -5.417   3.031  25.450  0.00  0.00    -0.000 A 
ATOM     21  C   UNL     1      -5.014   3.164  24.743  0.00  0.00    -0.004 A 
ENDBRANCH  11  12
ENDBRANCH  10  11
BRANCH  22  24
ATOM     24  C   UNL     1      -1.319   1.237  25.521  0.00  0.00    +0.090 C 
BRANCH  24  25
ATOM     25  C   UNL     1      -0.651   1.712  25.421  0.00  0.00    +0.036 C 
BRANCH  25  26
ATOM     26  C   UNL     1      -0.736   2.527  25.322  0.00  0.00    -0.022 A 
ATOM     27  C   UNL     1      -1.128   2.974  25.894  0.00  0.00    -0.004 A 
ATOM     28  C   UNL     1      -1.212   3.789  25.796  0.00  0.00    -0.000 A 
ATOM     29  C   UNL     1      -0.904   4.157  25.125  0.00  0.00    -0.000 A 
ATOM     30  C   UNL     1      -0.511   3.711  24.553  0.00  0.00    -0.000 A 
ATOM     31  C   UNL     1      -0.427   2.896  24.651  0.00  0.00    -0.004 A 
ENDBRANCH  25  26
ENDBRANCH  24  25
ENDBRANCH  22  24
TORSDOF 7
ENDMDL
MODEL 3
REMARK VINA RESULT:     -12.2      2.224      4.119
REMARK  Name = 
REMARK  7 active torsions:
REMARK  status: ('A' for Active; 'I' for Inactive)
REMARK    1  A    between atoms: C_2  and  C_4
REMARK    2  A    between atoms: C_4  and  C_5
REMARK    3  A    between atoms: C_10  and  C_11
REMARK    4  A    between atoms: C_11  and  C_12
REMARK    5  A    between atoms: C_22  and  C_24
REMARK    6  A    between atoms: C_24  and  C_25
REMARK    7  A    between atoms: C_25  and  C_26
REMARK                            x       y       z     vdW  Elec       q    Type
REMARK                         _______ _______ _______ _____ _____    ______ ____
ROOT
ATOM      5  C   UNL     1      -1.418   3.488  25.051  0.00  0.00    +0.015 C 
ATOM      6  C   UNL     1      -0.652   3.184  25.084  0.00  0.00    +0.022 C 
ATOM      7  C   UNL     1      -0.533   2.380  25.215  0.00  0.00    +0.093 C 
ATOM      8  N   UNL     1      -1.179   1.877  25.314  0.00  0.00    -0.280 N 
ATOM      9  C   UNL     1      -1.945   2.181  25.282  0.00  0.00    +0.094 C 
ATOM     10  C   UNL     1      -2.064   2.986  25.151  0.00  0.00    +0.026 C 
ATOM     22  C   UNL     1      -1.060   1.071  25.445  0.00  0.00    +0.226 C 
ATOM     23  O   UNL     1      -0.294   0.768  25.477  0.00  0.00    -0.275 OA
ENDROOT
BRANCH   5   4
ATOM      4  C   UNL     1      -1.537   4.294  24.920  0.00  0.00    +0.114 C 
BRANCH   4   2
ATOM      1  O   UNL     1      -0.669   5.330  25.383  0.00  0.00    -0.246 OA
ATOM      2  C   UNL     1      -0.892   4.792  24.798  0.00  0.00    +0.365 C 
ATOM      3  O   UNL     1      -0.467   4.752  24.091  0.00  0.00    -0.246 OA
ENDBRANCH   4   2
ENDBRANCH   5   4
BRANCH  10  11
ATOM     11  C   UNL     1      -2.831   3.290  25.118  0.00  0.00    +0.047 C 
BRANCH  11  12
ATOM     12  C   UNL     1      -3.400   2.925  24.645  0.00  0.00    +0.053 C 
ATOM     13  N   UNL     1      -3.209   2.689  23.878  0.00  0.00    -0.274 NA
ATOM     14  C   UNL     1      -3.778   2.324  23.404  0.00  0.00    +0.130 C 
ATOM     15  C   UNL     1      -4.538   2.195  23.699  0.00  0.00    +0.053 C 
ATOM     16  C   UNL     1      -4.730   2.431  24.466  0.00  0.00    -0.019 A 
ATOM     17  C   UNL     1      -4.160   2.796  24.940  0.00  0.00    +0.009 A 
ATOM     18  C   UNL     1      -4.351   3.031  25.707  0.00  0.00    +0.001 A 
ATOM     19  C   UNL     1      -5.111   2.902  26.001  0.00  0.00    +0.000 A 
ATOM     20  C   UNL     1      -5.680   2.537  25.527  0.00  0.00    -0.000 A 
ATOM     21  C   UNL     1      -5.489   2.302  24.760  0.00  0.00    -0.004 A 
ENDBRANCH  11  12
ENDBRANCH  10  11
BRANCH  22  24
ATOM     24  C   UNL     1      -1.706   0.570  25.544  0.00  0.00    +0.090 C 
BRANCH  24  25
ATOM     25  C   UNL     1      -1.641  -0.230  25.353  0.00  0.00    +0.036 C 
BRANCH  25  26
ATOM     26  C   UNL     1      -2.320  -0.690  25.264  0.00  0.00    -0.022 A 
ATOM     27  C   UNL     1      -2.499  -1.025  24.531  0.00  0.00    -0.004 A 
ATOM     28  C   UNL     1      -3.179  -1.486  24.443  0.00  0.00    -0.000 A 
ATOM     29  C   UNL     1      -3.679  -1.610  25.087  0.00  0.00    -0.000 A 
ATOM     30  C   UNL     1      -3.500  -1.275  25.819  0.00  0.00    -0.000 A 
ATOM     31  C   UNL     1      -2.821  -0.815  25.908  0.00  0.00    -0.004 A 
ENDBRANCH  25  26
ENDBRANCH  24  25
ENDBRANCH  22  24
TORSDOF 7
ENDMDL
MODEL 4
REMARK VINA RESULT:     -12.1      1.077      3.623
REMARK  Name = 
REMARK  7 active torsions:
REMARK  status: ('A' for Active; 'I' for Inactive)
REMARK    1  A    between atoms: C_2  and  C_4
REMARK    2  A    between atoms: C_4  and  C_5
REMARK    3  A    between atoms: C_10  and  C_11
REMARK    4  A    between atoms: C_11  and  C_12
REMARK    5  A    between atoms: C_22  and  C_24
REMARK    6  A    between atoms: C_24  and  C_25
REMARK    7  A    between atoms: C_25  and  C_26
REMARK                            x       y       z     vdW  Elec       q    Type
REMARK                         _______ _______ _______ _____ _____    ______ ____
ROOT
ATOM      5  C   UNL     1      -2.525   2.762  24.995  0.00  0.00    +0.015 C 
ATOM      6  C   UNL     1      -3.317   2.940  25.138  0.00  0.00    +0.022 C 
ATOM      7  C   UNL     1      -3.896   2.364  25.029  0.00  0.00    +0.093 C 
ATOM      8  N   UNL     1      -3.684   1.608  24.776  0.00  0.00    -0.280 N 
ATOM      9  C   UNL     1      -2.892   1.430  24.632  0.00  0.00    +0.094 C 
ATOM     10  C   UNL     1      -2.313   2.006  24.742  0.00  0.00    +0.026 C 
ATOM     22  C   UNL     1      -4.264   1.031  24.667  0.00  0.00    +0.226 C 
ATOM     23  O   UNL     1      -5.055   1.210  24.811  0.00  0.00    -0.275 OA
ENDROOT
BRANCH   5   4
ATOM      4  C   UNL     1      -1.945   3.338  25.104  0.00  0.00    +0.114 C 
BRANCH   4   2
ATOM      1  O   UNL     1      -2.307   4.286  26.111  0.00  0.00    -0.246 OA
ATOM      2  C   UNL     1      -2.161   4.104  25.319  0.00  0.00    +0.365 C 
ATOM      3  O   UNL     1      -2.232   4.691  24.742  0.00  0.00    -0.246 OA
ENDBRANCH   4   2
ENDBRANCH   5   4
BRANCH  10  11
ATOM     11  C   UNL     1      -1.519   1.827  24.598  0.00  0.00    +0.047 C 
BRANCH  11  12
ATOM     12  C   UNL     1      -1.194   1.129  24.893  0.00  0.00    +0.053 C 
ATOM     13  N   UNL     1      -1.324   0.913  25.679  0.00  0.00    -0.274 NA
ATOM     14  C   UNL     1      -0.998   0.214  25.974  0.00  0.00    +0.130 C 
ATOM     15  C   UNL     1      -0.543  -0.268  25.483  0.00  0.00    +0.053 C 
ATOM     16  C   UNL     1      -0.412  -0.052  24.697  0.00  0.00    -0.019 A 
ATOM     17  C   UNL     1      -0.738   0.647  24.402  0.00  0.00    +0.009 A 
ATOM     18  C   UNL     1      -0.608   0.862  23.617  0.00  0.00    +0.001 A 
ATOM     19  C   UNL     1      -0.153   0.380  23.127  0.00  0.00    +0.000 A 
ATOM     20  C   UNL     1       0.173  -0.319  23.422  0.00  0.00    -0.000 A 
ATOM     21  C   UNL     1       0.043  -0.534  24.207  0.00  0.00    -0.004 A 
ENDBRANCH  11  12
ENDBRANCH  10  11
BRANCH  22  24
ATOM     24  C   UNL     1      -4.051   0.276  24.414  0.00  0.00    +0.090 C 
BRANCH  24  25
ATOM     25  C   UNL     1      -4.500  -0.377  24.643  0.00  0.00    +0.036 C 
BRANCH  25  26
ATOM     26  C   UNL     1      -4.195  -1.139  24.553  0.00  0.00    -0.022 A 
ATOM     27  C   UNL     1      -3.852  -1.525  25.197  0.00  0.00    -0.004 A 
ATOM     28  C   UNL     1      -3.547  -2.287  25.108  0.00  0.00    -0.000 A 
ATOM     29  C   UNL     1      -3.586  -2.663  24.374  0.00  0.00    -0.000 A 
ATOM     30  C   UNL     1      -3.930  -2.277  23.731  0.00  0.00    -0.000 A 
ATOM     31  C   UNL     1      -4.234  -1.516  23.819  0.00  0.00    -0.004 A 
ENDBRANCH  25  26
ENDBRANCH  24  25
ENDBRANCH  22  24
TORSDOF 7
ENDMDL
MODEL 5
REMARK VINA RESULT:     -11.8      1.946      4.955
REMARK  Name = 
REMARK  7 active torsions:
REMARK  status: ('A' for Active; 'I' for Inactive)
REMARK    1  A    between atoms: C_2  and  C_4
REMARK    2  A    between atoms: C_4  and  C_5
REMARK    3  A    between atoms: C_10  and  C_11
REMARK    4  A    between atoms: C_11  and  C_12
REMARK    5  A    between atoms: C_22  and  C_24
REMARK    6  A    between atoms: C_24  and  C_25
REMARK    7  A    between atoms: C_25  and  C_26
REMARK                            x       y       z     vdW  Elec       q    Type
REMARK                         _______ _______ _______ _____ _____    ______ ____
ROOT
ATOM      5  C   UNL     1      -2.040  -0.952  24.711  0.00  0.00    +0.015 C 
ATOM      6  C   UNL     1      -2.737  -1.376  24.586  0.00  0.00    +0.022 C 
ATOM      7  C   UNL     1      -3.465  -0.994  24.629  0.00  0.00    +0.093 C 
ATOM      8  N   UNL     1      -3.499  -0.187  24.798  0.00  0.00    -0.280 N 
ATOM      9  C   UNL     1      -2.803   0.237  24.923  0.00  0.00    +0.094 C 
ATOM     10  C   UNL     1      -2.074  -0.145  24.880  0.00  0.00    +0.026 C 
ATOM     22  C   UNL     1      -4.229   0.196  24.841  0.00  0.00    +0.226 C 
ATOM     23  O   UNL     1      -4.925  -0.229  24.715  0.00  0.00    -0.275 OA
ENDROOT
BRANCH   5   4
ATOM      4  C   UNL     1      -1.310  -1.334  24.668  0.00  0.00    +0.114 C 
BRANCH   4   2
ATOM      1  O   UNL     1      -1.347  -2.558  23.931  0.00  0.00    -0.246 OA
ATOM      2  C   UNL     1      -1.277  -2.158  24.649  0.00  0.00    +0.365 C 
ATOM      3  O   UNL     1      -1.174  -2.583  25.350  0.00  0.00    -0.246 OA
ENDBRANCH   4   2
ENDBRANCH   5   4
BRANCH  10  11
ATOM     11  C   UNL     1      -1.377   0.279  25.005  0.00  0.00    +0.047 C 
BRANCH  11  12
ATOM     12  C   UNL     1      -1.243   0.983  24.596  0.00  0.00    +0.053 C 
ATOM     13  N   UNL     1      -1.401   1.026  23.787  0.00  0.00    -0.274 NA
ATOM     14  C   UNL     1      -1.267   1.730  23.377  0.00  0.00    +0.130 C 
ATOM     15  C   UNL     1      -0.976   2.391  23.778  0.00  0.00    +0.053 C 
ATOM     16  C   UNL     1      -0.818   2.348  24.587  0.00  0.00    -0.019 A 
ATOM     17  C   UNL     1      -0.952   1.644  24.996  0.00  0.00    +0.009 A 
ATOM     18  C   UNL     1      -0.795   1.601  25.804  0.00  0.00    +0.001 A 
ATOM     19  C   UNL     1      -0.504   2.260  26.204  0.00  0.00    +0.000 A 
ATOM     20  C   UNL     1      -0.370   2.965  25.794  0.00  0.00    -0.000 A 
ATOM     21  C   UNL     1      -0.527   3.008  24.986  0.00  0.00    -0.004 A 
ENDBRANCH  11  12
ENDBRANCH  10  11
BRANCH  22  24
ATOM     24  C   UNL     1      -4.262   1.002  25.009  0.00  0.00    +0.090 C 
BRANCH  24  25
ATOM     25  C   UNL     1      -4.954   1.426  24.860  0.00  0.00    +0.036 C 
BRANCH  25  26
ATOM     26  C   UNL     1      -4.987   2.234  25.028  0.00  0.00    -0.022 A 
ATOM     27  C   UNL     1      -4.554   2.768  24.571  0.00  0.00    -0.004 A 
ATOM     28  C   UNL     1      -4.588   3.576  24.739  0.00  0.00    -0.000 A 
ATOM     29  C   UNL     1      -5.054   3.848  25.363  0.00  0.00    -0.000 A 
ATOM     30  C   UNL     1      -5.486   3.314  25.819  0.00  0.00    -0.000 A 
ATOM     31  C   UNL     1      -5.454   2.507  25.652  0.00  0.00    -0.004 A 
ENDBRANCH  25  26
ENDBRANCH  24  25
ENDBRANCH  22  24
TORSDOF 7
ENDMDL
MODEL 6
REMARK VINA RESULT:     -11.7      1.855      4.026
REMARK  Name = 
REMARK  7 active torsions:
REMARK  status: ('A' for Active; 'I' for Inactive)
REMARK    1  A    between atoms: C_2  and  C_4
REMARK    2  A    between atoms: C_4  and  C_5
REMARK    3  A    between atoms: C_10  and  C_11
REMARK    4  A    between atoms: C_11  and  C_12
REMARK    5  A    between atoms: C_22  and  C_24
REMARK    6  A    between atoms: C_24  and  C_25
REMARK    7  A    between atoms: C_25  and  C_26
REMARK                            x       y       z     vdW  Elec       q    Type
REMARK                         _______ _______ _______ _____ _____    ______ ____
ROOT
ATOM      5  C   UNL     1      -3.489  -0.766  24.494  0.00  0.00    +0.015 C 
ATOM      6  C   UNL     1      -4.301  -0.686  24.618  0.00  0.00    +0.022 C 
ATOM      7  C   UNL     1      -4.636   0.064  24.681  0.00  0.00    +0.093 C 
ATOM      8  N   UNL     1      -4.161   0.735  24.621  0.00  0.00    -0.280 N 
ATOM      9  C   UNL     1      -3.349   0.655  24.497  0.00  0.00    +0.094 C 
ATOM     10  C   UNL     1      -3.014  -0.095  24.434  0.00  0.00    +0.026 C 
ATOM     22  C   UNL     1      -4.496   1.486  24.685  0.00  0.00    +0.226 C 
ATOM     23  O   UNL     1      -5.307   1.566  24.809  0.00  0.00    -0.275 OA
ENDROOT
BRANCH   5   4
ATOM      4  C   UNL     1      -3.153  -1.517  24.430  0.00  0.00    +0.114 C 
BRANCH   4   2
ATOM      1  O   UNL     1      -4.063  -2.450  23.845  0.00  0.00    -0.246 OA
ATOM      2  C   UNL     1      -3.628  -2.188  24.495  0.00  0.00    +0.365 C 
ATOM      3  O   UNL     1      -3.669  -2.597  25.211  0.00  0.00    -0.246 OA
ENDBRANCH   4   2
ENDBRANCH   5   4
BRANCH  10  11
ATOM     11  C   UNL     1      -2.201  -0.175  24.309  0.00  0.00    +0.047 C 
BRANCH  11  12
ATOM     12  C   UNL     1      -1.668   0.212  24.806  0.00  0.00    +0.053 C 
ATOM     13  N   UNL     1      -1.751   0.153  25.625  0.00  0.00    -0.274 NA
ATOM     14  C   UNL     1      -1.217   0.540  26.123  0.00  0.00    +0.130 C 
ATOM     15  C   UNL     1      -0.601   0.985  25.800  0.00  0.00    +0.053 C 
ATOM     16  C   UNL     1      -0.518   1.043  24.981  0.00  0.00    -0.019 A 
ATOM     17  C   UNL     1      -1.052   0.656  24.484  0.00  0.00    +0.009 A 
ATOM     18  C   UNL     1      -0.969   0.714  23.665  0.00  0.00    +0.001 A 
ATOM     19  C   UNL     1      -0.353   1.157  23.344  0.00  0.00    +0.000 A 
ATOM     20  C   UNL     1       0.181   1.544  23.841  0.00  0.00    -0.000 A 
ATOM     21  C   UNL     1       0.098   1.487  24.659  0.00  0.00    -0.004 A 
ENDBRANCH  11  12
ENDBRANCH  10  11
BRANCH  22  24
ATOM     24  C   UNL     1      -4.021   2.157  24.625  0.00  0.00    +0.090 C 
BRANCH  24  25
ATOM     25  C   UNL     1      -4.198   2.830  25.068  0.00  0.00    +0.036 C 
BRANCH  25  26
ATOM     26  C   UNL     1      -3.606   3.378  25.241  0.00  0.00    -0.022 A 
ATOM     27  C   UNL     1      -3.168   3.720  24.631  0.00  0.00    -0.004 A 
ATOM     28  C   UNL     1      -2.576   4.268  24.804  0.00  0.00    -0.000 A 
ATOM     29  C   UNL     1      -2.422   4.474  25.588  0.00  0.00    -0.000 A 
ATOM     30  C   UNL     1      -2.859   4.133  26.198  0.00  0.00    -0.000 A 
ATOM     31  C   UNL     1      -3.451   3.585  26.026  0.00  0.00    -0.004 A 
ENDBRANCH  25  26
ENDBRANCH  24  25
ENDBRANCH  22  24
TORSDOF 7
ENDMDL
MODEL 7
REMARK VINA RESULT:     -11.7      1.664      4.225
REMARK  Name = 
REMARK  7 active torsions:
REMARK  status: ('A' for Active; 'I' for Inactive)
REMARK    1  A    between atoms: C_2  and  C_4
REMARK    2  A    between atoms: C_4  and  C_5
REMARK    3  A    between atoms: C_10  and  C_11
REMARK    4  A    between atoms: C_11  and  C_12
REMARK    5  A    between atoms: C_22  and  C_24
REMARK    6  A    between atoms: C_24  and  C_25
REMARK    7  A    between atoms: C_25  and  C_26
REMARK                            x       y       z     vdW  Elec       q    Type
REMARK                         _______ _______ _______ _____ _____    ______ ____
ROOT
ATOM      5  C   UNL     1      -1.025   1.941  24.732  0.00  0.00    +0.015 C 
ATOM      6  C   UNL     1      -0.988   2.764  24.702  0.00  0.00    +0.022 C 
ATOM      7  C   UNL     1      -1.652   3.214  24.893  0.00  0.00    +0.093 C 
ATOM      8  N   UNL     1      -2.354   2.841  25.114  0.00  0.00    -0.280 N 
ATOM      9  C   UNL     1      -2.390   2.017  25.144  0.00  0.00    +0.094 C 
ATOM     10  C   UNL     1      -1.726   1.568  24.953  0.00  0.00    +0.026 C 
ATOM     22  C   UNL     1      -3.018   3.291  25.305  0.00  0.00    +0.226 C 
ATOM     23  O   UNL     1      -2.981   4.114  25.275  0.00  0.00    -0.275 OA
ENDROOT
BRANCH   5   4
ATOM      4  C   UNL     1      -0.360   1.491  24.541  0.00  0.00    +0.114 C 
BRANCH   4   2
ATOM      1  O   UNL     1       0.758   2.009  25.264  0.00  0.00    -0.246 OA
ATOM      2  C   UNL     1       0.388   1.837  24.546  0.00  0.00    +0.365 C 
ATOM      3  O   UNL     1       0.767   2.013  23.834  0.00  0.00    -0.246 OA
ENDBRANCH   4   2
ENDBRANCH   5   4
BRANCH  10  11
ATOM     11  C   UNL     1      -1.763   0.744  24.983  0.00  0.00    +0.047 C 
BRANCH  11  12
ATOM     12  C   UNL     1      -2.362   0.342  24.581  0.00  0.00    +0.053 C 
ATOM     13  N   UNL     1      -2.566   0.569  23.814  0.00  0.00    -0.274 NA
ATOM     14  C   UNL     1      -3.165   0.167  23.412  0.00  0.00    +0.130 C 
ATOM     15  C   UNL     1      -3.558  -0.460  23.777  0.00  0.00    +0.053 C 
ATOM     16  C   UNL     1      -3.354  -0.686  24.543  0.00  0.00    -0.019 A 
ATOM     17  C   UNL     1      -2.755  -0.285  24.946  0.00  0.00    +0.009 A 
ATOM     18  C   UNL     1      -2.550  -0.510  25.712  0.00  0.00    +0.001 A 
ATOM     19  C   UNL     1      -2.943  -1.137  26.076  0.00  0.00    +0.000 A 
ATOM     20  C   UNL     1      -3.542  -1.538  25.674  0.00  0.00    -0.000 A 
ATOM     21  C   UNL     1      -3.747  -1.313  24.908  0.00  0.00    -0.004 A 
ENDBRANCH  11  12
ENDBRANCH  10  11
BRANCH  22  24
ATOM     24  C   UNL     1      -3.719   2.918  25.526  0.00  0.00    +0.090 C 
BRANCH  24  25
ATOM     25  C   UNL     1      -4.445   3.236  25.300  0.00  0.00    +0.036 C 
BRANCH  25  26
ATOM     26  C   UNL     1      -5.132   2.780  25.354  0.00  0.00    -0.022 A 
ATOM     27  C   UNL     1      -5.471   2.462  24.672  0.00  0.00    -0.004 A 
ATOM     28  C   UNL     1      -6.157   2.006  24.726  0.00  0.00    -0.000 A 
ATOM     29  C   UNL     1      -6.503   1.869  25.463  0.00  0.00    -0.000 A 
ATOM     30  C   UNL     1      -6.164   2.187  26.144  0.00  0.00    -0.000 A 
ATOM     31  C   UNL     1      -5.478   2.643  26.090  0.00  0.00    -0.004 A 
ENDBRANCH  25  26
ENDBRANCH  24  25
ENDBRANCH  22  24
TORSDOF 7
ENDMDL
