MODEL 1
REMARK VINA RESULT:     -10.2      0.000      0.000
REMARK  Name = 
REMARK  9 active torsions:
REMARK  status: ('A' for Active; 'I' for Inactive)
REMARK    1  A    between atoms: N_2  and  C_3
REMARK    2  A    between atoms: C_3  and  C_4
REMARK    3  A    between atoms: C_3  and  C_7
REMARK    4  A    between atoms: N_9  and  C_10
REMARK    5  A    between atoms: C_12  and  C_19
REMARK    6  A    between atoms: N_21  and  C_22
REMARK    7  A    between atoms: C_22  and  C_23
REMARK    8  A    between atoms: C_22  and  C_30
REMARK    9  A    between atoms: C_23  and  C_24
REMARK                            x       y       z     vdW  Elec       q    Type
REMARK                         _______ _______ _______ _____ _____    ______ ____
ROOT
ATOM     10  C   UNL     1      -3.775   0.094  24.493  0.00  0.00    +0.131 C 
ATOM     11  C   UNL     1      -3.270   0.700  24.733  0.00  0.00    +0.064 C 
ATOM     12  C   UNL     1      -3.579   1.434  24.948  0.00  0.00    +0.200 C 
ATOM     13  O   UNL     1      -2.775   1.579  25.061  0.00  0.00    -0.216 OA
ATOM     14  C   UNL     1      -4.395   1.561  24.922  0.00  0.00    +0.075 C 
ATOM     15  C   UNL     1      -4.900   0.955  24.683  0.00  0.00    +0.187 C 
ATOM     16  O   UNL     1      -5.714   1.082  24.658  0.00  0.00    -0.220 OA
ATOM     17  C   UNL     1      -4.590   0.221  24.468  0.00  0.00    +0.202 C 
ATOM     18  O   UNL     1      -5.095  -0.386  24.228  0.00  0.00    -0.219 OA
ENDROOT
BRANCH  10   9
ATOM      7  C   UNL     1      -3.143  -1.136  24.854  0.00  0.00    +0.257 C 
ATOM      8  O   UNL     1      -3.130  -0.898  25.643  0.00  0.00    -0.272 OA
ATOM      9  N   UNL     1      -3.465  -0.641  24.278  0.00  0.00    -0.203 NA
BRANCH   7   3
ATOM      3  C   UNL     1      -2.833  -1.870  24.639  0.00  0.00    +0.150 C 
BRANCH   3   4
ATOM      4  C   UNL     1      -3.226  -2.563  24.854  0.00  0.00    +0.025 C 
ATOM      5  C   UNL     1      -3.245  -2.799  25.644  0.00  0.00    +0.002 C 
ATOM      6  C   UNL     1      -3.599  -3.021  24.277  0.00  0.00    +0.002 C 
ENDBRANCH   3   4
BRANCH   3   2
ATOM      1  C   UNL     1      -1.442  -2.189  24.570  0.00  0.00    +0.108 C 
ATOM      2  N   UNL     1      -2.130  -1.911  24.209  0.00  0.00    -0.209 NA
ENDBRANCH   3   2
ENDBRANCH   7   3
ENDBRANCH  10   9
BRANCH  12  19
ATOM     19  C   UNL     1      -3.610   2.218  25.202  0.00  0.00    +0.269 C 
ATOM     20  O   UNL     1      -4.059   2.420  25.863  0.00  0.00    -0.271 OA
ATOM     21  N   UNL     1      -3.191   2.800  24.794  0.00  0.00    -0.195 NA
BRANCH  21  22
ATOM     22  C   UNL     1      -3.221   3.585  25.048  0.00  0.00    +0.179 C 
BRANCH  22  30
ATOM     30  C   UNL     1      -3.798   4.093  24.748  0.00  0.00    +0.281 C 
ATOM     31  N   UNL     1      -4.300   4.495  25.264  0.00  0.00    -0.086 NA
ATOM     32  O   UNL     1      -3.873   4.198  23.933  0.00  0.00    -0.270 OA
ENDBRANCH  22  30
BRANCH  22  23
ATOM     23  C   UNL     1      -2.675   3.861  25.600  0.00  0.00    +0.057 C 
BRANCH  23  24
ATOM     24  C   UNL     1      -1.971   4.210  25.345  0.00  0.00    -0.020 A 
ATOM     25  C   UNL     1      -1.309   3.741  25.195  0.00  0.00    -0.004 A 
ATOM     26  C   UNL     1      -0.606   4.089  24.941  0.00  0.00    -0.000 A 
ATOM     27  C   UNL     1      -0.564   4.907  24.837  0.00  0.00    -0.000 A 
ATOM     28  C   UNL     1      -1.226   5.376  24.987  0.00  0.00    -0.000 A 
ATOM     29  C   UNL     1      -1.930   5.027  25.241  0.00  0.00    -0.004 A 
ENDBRANCH  23  24
ENDBRANCH  22  23
ENDBRANCH  21  22
ENDBRANCH  12  19
TORSDOF 9
ENDMDL
MODEL 2
REMARK VINA RESULT:     -10.2      1.624      5.820
REMARK  Name = 
REMARK  9 active torsions:
REMARK  status: ('A' for Active; 'I' for Inactive)
REMARK    1  A    between atoms: N_2  and  C_3
REMARK    2  A    between atoms: C_3  and  C_4
REMARK    3  A    between atoms: C_3  and  C_7
REMARK    4  A    between atoms: N_9  and  C_10
REMARK    5  A    between atoms: C_12  and  C_19
REMARK    6  A    between atoms: N_21  and  C_22
REMARK    7  A    between atoms: C_22  and  C_23
REMARK    8  A    between atoms: C_22  and  C_30
REMARK    9  A    between atoms: C_23  and  C_24
REMARK                            x       y       z     vdW  Elec       q    Type
REMARK                         _______ _______ _______ _____ _____    ______ ____
ROOT
ATOM     10  C   UNL     1      -1.402   2.188  24.593  0.00  0.00    +0.131 C 
ATOM     11  C   UNL     1      -1.912   1.583  24.823  0.00  0.00    +0.064 C 
ATOM     12  C   UNL     1      -1.618   0.824  24.962  0.00  0.00    +0.200 C 
ATOM     13  O   UNL     1      -2.418   0.699  25.121  0.00  0.00    -0.216 OA
ATOM     14  C   UNL     1      -0.812   0.672  24.869  0.00  0.00    +0.075 C 
ATOM     15  C   UNL     1      -0.301   1.277  24.639  0.00  0.00    +0.187 C 
ATOM     16  O   UNL     1       0.504   1.125  24.547  0.00  0.00    -0.220 OA
ATOM     17  C   UNL     1      -0.596   2.036  24.500  0.00  0.00    +0.202 C 
ATOM     18  O   UNL     1      -0.086   2.641  24.270  0.00  0.00    -0.219 OA
ENDROOT
BRANCH  10   9
ATOM      7  C   UNL     1      -2.094   3.350  25.055  0.00  0.00    +0.257 C 
ATOM      8  O   UNL     1      -2.195   2.996  25.792  0.00  0.00    -0.272 OA
ATOM      9  N   UNL     1      -1.697   2.947  24.454  0.00  0.00    -0.203 NA
BRANCH   7   3
ATOM      3  C   UNL     1      -2.389   4.108  24.917  0.00  0.00    +0.150 C 
BRANCH   3   4
ATOM      4  C   UNL     1      -2.173   4.732  25.412  0.00  0.00    +0.025 C 
ATOM      5  C   UNL     1      -1.623   5.291  25.156  0.00  0.00    +0.002 C 
ATOM      6  C   UNL     1      -2.507   4.796  26.165  0.00  0.00    +0.002 C 
ENDBRANCH   3   4
BRANCH   3   2
ATOM      1  C   UNL     1      -3.717   4.236  24.405  0.00  0.00    +0.108 C 
ATOM      2  N   UNL     1      -2.900   4.242  24.284  0.00  0.00    -0.209 NA
ENDBRANCH   3   2
ENDBRANCH   7   3
ENDBRANCH  10   9
BRANCH  12  19
ATOM     19  C   UNL     1      -1.601   0.023  25.156  0.00  0.00    +0.269 C 
ATOM     20  O   UNL     1      -1.283  -0.220  25.876  0.00  0.00    -0.271 OA
ATOM     21  N   UNL     1      -1.902  -0.535  24.628  0.00  0.00    -0.195 NA
BRANCH  21  22
ATOM     22  C   UNL     1      -1.886  -1.337  24.821  0.00  0.00    +0.179 C 
BRANCH  22  30
ATOM     30  C   UNL     1      -1.220  -1.790  24.641  0.00  0.00    +0.281 C 
ATOM     31  N   UNL     1      -0.834  -2.210  25.237  0.00  0.00    -0.086 NA
ATOM     32  O   UNL     1      -0.940  -1.824  23.865  0.00  0.00    -0.270 OA
ENDBRANCH  22  30
BRANCH  22  23
ATOM     23  C   UNL     1      -2.533  -1.685  25.193  0.00  0.00    +0.057 C 
BRANCH  23  24
ATOM     24  C   UNL     1      -3.148  -2.001  24.742  0.00  0.00    -0.020 A 
ATOM     25  C   UNL     1      -3.680  -1.498  24.360  0.00  0.00    -0.004 A 
ATOM     26  C   UNL     1      -4.294  -1.814  23.910  0.00  0.00    -0.000 A 
ATOM     27  C   UNL     1      -4.378  -2.632  23.840  0.00  0.00    -0.000 A 
ATOM     28  C   UNL     1      -3.846  -3.134  24.221  0.00  0.00    -0.000 A 
ATOM     29  C   UNL     1      -3.231  -2.819  24.673  0.00  0.00    -0.004 A 
ENDBRANCH  23  24
ENDBRANCH  22  23
ENDBRANCH  21  22
ENDBRANCH  12  19
TORSDOF 9
ENDMDL
MODEL 3
REMARK VINA RESULT:     -10.2      1.993      3.077
REMARK  Name = 
REMARK  9 active torsions:
REMARK  status: ('A' for Active; 'I' for Inactive)
REMARK    1  A    between atoms: N_2  and  C_3
REMARK    2  A    between atoms: C_3  and  C_4
REMARK    3  A    between atoms: C_3  and  C_7
REMARK    4  A    between atoms: N_9  and  C_10
REMARK    5  A    between atoms: C_12  and  C_19
REMARK    6  A    between atoms: N_21  and  C_22
REMARK    7  A    between atoms: C_22  and  C_23
REMARK    8  A    between atoms: C_22  and  C_30
REMARK    9  A    between atoms: C_23  and  C_24
REMARK                            x       y       z     vdW  Elec       q    Type
REMARK                         _______ _______ _______ _____ _____    ______ ____
ROOT
ATOM     10  C   UNL     1      -1.482  -0.816  24.737  0.00  0.00    +0.131 C 
ATOM     11  C   UNL     1      -1.546  -0.087  25.116  0.00  0.00    +0.064 C 
ATOM     12  C   UNL     1      -0.955   0.482  25.020  0.00  0.00    +0.200 C 
ATOM     13  O   UNL     1      -1.466   0.890  25.522  0.00  0.00    -0.216 OA
ATOM     14  C   UNL     1      -0.300   0.319  24.544  0.00  0.00    +0.075 C 
ATOM     15  C   UNL     1      -0.237  -0.411  24.165  0.00  0.00    +0.187 C 
ATOM     16  O   UNL     1       0.418  -0.574  23.690  0.00  0.00    -0.220 OA
ATOM     17  C   UNL     1      -0.828  -0.979  24.262  0.00  0.00    +0.202 C 
ATOM     18  O   UNL     1      -0.764  -1.709  23.883  0.00  0.00    -0.219 OA
ENDROOT
BRANCH  10   9
ATOM      7  C   UNL     1      -2.832  -1.243  24.540  0.00  0.00    +0.257 C 
ATOM      8  O   UNL     1      -2.999  -0.536  24.150  0.00  0.00    -0.272 OA
ATOM      9  N   UNL     1      -2.074  -1.384  24.833  0.00  0.00    -0.203 NA
BRANCH   7   3
ATOM      3  C   UNL     1      -3.423  -1.810  24.636  0.00  0.00    +0.150 C 
BRANCH   3   4
ATOM      4  C   UNL     1      -4.078  -1.814  24.134  0.00  0.00    +0.025 C 
ATOM      5  C   UNL     1      -4.167  -2.413  23.574  0.00  0.00    +0.002 C 
ATOM      6  C   UNL     1      -4.646  -1.217  24.193  0.00  0.00    +0.002 C 
ENDBRANCH   3   4
BRANCH   3   2
ATOM      1  C   UNL     1      -3.572  -3.158  25.087  0.00  0.00    +0.108 C 
ATOM      2  N   UNL     1      -3.359  -2.374  25.234  0.00  0.00    -0.209 NA
ENDBRANCH   3   2
ENDBRANCH   7   3
ENDBRANCH  10   9
BRANCH  12  19
ATOM     19  C   UNL     1      -0.542   1.191  25.098  0.00  0.00    +0.269 C 
ATOM     20  O   UNL     1       0.168   1.301  24.693  0.00  0.00    -0.271 OA
ATOM     21  N   UNL     1      -0.839   1.790  25.580  0.00  0.00    -0.195 NA
BRANCH  21  22
ATOM     22  C   UNL     1      -0.426   2.500  25.659  0.00  0.00    +0.179 C 
BRANCH  22  30
ATOM     30  C   UNL     1       0.050   2.629  26.321  0.00  0.00    +0.281 C 
ATOM     31  N   UNL     1       0.840   2.847  26.224  0.00  0.00    -0.086 NA
ATOM     32  O   UNL     1      -0.264   2.539  27.079  0.00  0.00    -0.270 OA
ENDBRANCH  22  30
BRANCH  22  23
ATOM     23  C   UNL     1      -0.488   3.080  25.077  0.00  0.00    +0.057 C 
BRANCH  23  24
ATOM     24  C   UNL     1      -1.013   3.710  25.176  0.00  0.00    -0.020 A 
ATOM     25  C   UNL     1      -1.778   3.570  25.453  0.00  0.00    -0.004 A 
ATOM     26  C   UNL     1      -2.302   4.199  25.552  0.00  0.00    -0.000 A 
ATOM     27  C   UNL     1      -2.062   4.968  25.374  0.00  0.00    -0.000 A 
ATOM     28  C   UNL     1      -1.297   5.108  25.097  0.00  0.00    -0.000 A 
ATOM     29  C   UNL     1      -0.772   4.479  24.998  0.00  0.00    -0.004 A 
ENDBRANCH  23  24
ENDBRANCH  22  23
ENDBRANCH  21  22
ENDBRANCH  12  19
TORSDOF 9
ENDMDL
MODEL 4
REMARK VINA RESULT:     -10.1      1.781      5.347
REMARK  Name = 
REMARK  9 active torsions:
REMARK  status: ('A' for Active; 'I' for Inactive)
REMARK    1  A    between atoms: N_2  and  C_3
REMARK    2  A    between atoms: C_3  and  C_4
REMARK    3  A    between atoms: C_3  and  C_7
REMARK    4  A    between atoms: N_9  and  C_10
REMARK    5  A    between atoms: C_12  and  C_19
REMARK    6  A    between atoms: N_21  and  C_22
REMARK    7  A    between atoms: C_22  and  C_23
REMARK    8  A    between atoms: C_22  and  C_30
REMARK    9  A    between atoms: C_23  and  C_24
REMARK                            x       y       z     vdW  Elec       q    Type
REMARK                         _______ _______ _______ _____ _____    ______ ____
ROOT
ATOM     10  C   UNL     1      -2.892   2.378  24.367  0.00  0.00    +0.131 C 
ATOM     11  C   UNL     1      -2.535   1.795  24.828  0.00  0.00    +0.064 C 
ATOM     12  C   UNL     1      -2.166   1.150  24.466  0.00  0.00    +0.200 C 
ATOM     13  O   UNL     1      -2.034   0.965  25.259  0.00  0.00    -0.216 OA
ATOM     14  C   UNL     1      -2.156   1.091  23.643  0.00  0.00    +0.075 C 
ATOM     15  C   UNL     1      -2.512   1.674  23.182  0.00  0.00    +0.187 C 
ATOM     16  O   UNL     1      -2.501   1.615  22.359  0.00  0.00    -0.220 OA
ATOM     17  C   UNL     1      -2.881   2.318  23.544  0.00  0.00    +0.202 C 
ATOM     18  O   UNL     1      -3.238   2.902  23.083  0.00  0.00    -0.219 OA
ENDROOT
BRANCH  10   9
ATOM      7  C   UNL     1      -3.932   2.904  25.194  0.00  0.00    +0.257 C 
ATOM      8  O   UNL     1      -4.235   2.145  25.297  0.00  0.00    -0.272 OA
ATOM      9  N   UNL     1      -3.260   3.022  24.729  0.00  0.00    -0.203 NA
BRANCH   7   3
ATOM      3  C   UNL     1      -4.300   3.547  25.556  0.00  0.00    +0.150 C 
BRANCH   3   4
ATOM      4  C   UNL     1      -5.123   3.569  25.623  0.00  0.00    +0.025 C 
ATOM      5  C   UNL     1      -5.521   2.958  26.008  0.00  0.00    +0.002 C 
ATOM      6  C   UNL     1      -5.546   4.203  25.305  0.00  0.00    +0.002 C 
ENDBRANCH   3   4
BRANCH   3   2
ATOM      1  C   UNL     1      -3.683   4.214  26.659  0.00  0.00    +0.108 C 
ATOM      2  N   UNL     1      -3.846   4.170  25.851  0.00  0.00    -0.209 NA
ENDBRANCH   3   2
ENDBRANCH   7   3
ENDBRANCH  10   9
BRANCH  12  19
ATOM     19  C   UNL     1      -1.753   0.443  24.380  0.00  0.00    +0.269 C 
ATOM     20  O   UNL     1      -1.078   0.414  23.906  0.00  0.00    -0.271 OA
ATOM     21  N   UNL     1      -2.013  -0.237  24.767  0.00  0.00    -0.195 NA
BRANCH  21  22
ATOM     22  C   UNL     1      -1.600  -0.946  24.681  0.00  0.00    +0.179 C 
BRANCH  22  30
ATOM     30  C   UNL     1      -0.924  -1.086  25.135  0.00  0.00    +0.281 C 
ATOM     31  N   UNL     1      -0.219  -1.305  24.766  0.00  0.00    -0.086 NA
ATOM     32  O   UNL     1      -0.954  -1.008  25.955  0.00  0.00    -0.270 OA
ENDBRANCH  22  30
BRANCH  22  23
ATOM     23  C   UNL     1      -1.860  -1.513  24.143  0.00  0.00    +0.057 C 
BRANCH  23  24
ATOM     24  C   UNL     1      -2.540  -1.953  24.304  0.00  0.00    -0.020 A 
ATOM     25  C   UNL     1      -3.237  -1.802  23.890  0.00  0.00    -0.004 A 
ATOM     26  C   UNL     1      -3.916  -2.242  24.050  0.00  0.00    -0.000 A 
ATOM     27  C   UNL     1      -3.899  -2.833  24.626  0.00  0.00    -0.000 A 
ATOM     28  C   UNL     1      -3.202  -2.984  25.040  0.00  0.00    -0.000 A 
ATOM     29  C   UNL     1      -2.522  -2.544  24.879  0.00  0.00    -0.004 A 
ENDBRANCH  23  24
ENDBRANCH  22  23
ENDBRANCH  21  22
ENDBRANCH  12  19
TORSDOF 9
ENDMDL
MODEL 5
REMARK VINA RESULT:      -9.5      1.682      2.798
REMARK  Name = 
REMARK  9 active torsions:
REMARK  status: ('A' for Active; 'I' for Inactive)
REMARK    1  A    between atoms: N_2  and  C_3
REMARK    2  A    between atoms: C_3  and  C_4
REMARK    3  A    between atoms: C_3  and  C_7
REMARK    4  A    between atoms: N_9  and  C_10
REMARK    5  A    between atoms: C_12  and  C_19
REMARK    6  A    between atoms: N_21  and  C_22
REMARK    7  A    between atoms: C_22  and  C_23
REMARK    8  A    between atoms: C_22  and  C_30
REMARK    9  A    between atoms: C_23  and  C_24
REMARK                            x       y       z     vdW  Elec       q    Type
REMARK                         _______ _______ _______ _____ _____    ______ ____
ROOT
ATOM     10  C   UNL     1      -1.410  -0.182  24.640  0.00  0.00    +0.131 C 
ATOM     11  C   UNL     1      -1.976   0.402  24.775  0.00  0.00    +0.064 C 
ATOM     12  C   UNL     1      -1.797   1.194  24.625  0.00  0.00    +0.200 C 
ATOM     13  O   UNL     1      -2.575   1.270  24.889  0.00  0.00    -0.216 OA
ATOM     14  C   UNL     1      -1.049   1.400  24.341  0.00  0.00    +0.075 C 
ATOM     15  C   UNL     1      -0.483   0.816  24.207  0.00  0.00    +0.187 C 
ATOM     16  O   UNL     1       0.264   1.022  23.924  0.00  0.00    -0.220 OA
ATOM     17  C   UNL     1      -0.663   0.024  24.357  0.00  0.00    +0.202 C 
ATOM     18  O   UNL     1      -0.097  -0.560  24.223  0.00  0.00    -0.219 OA
ENDROOT
BRANCH  10   9
ATOM      7  C   UNL     1      -2.246  -1.322  24.429  0.00  0.00    +0.257 C 
ATOM      8  O   UNL     1      -2.719  -0.880  23.919  0.00  0.00    -0.272 OA
ATOM      9  N   UNL     1      -1.590  -0.974  24.790  0.00  0.00    -0.203 NA
BRANCH   7   3
ATOM      3  C   UNL     1      -2.426  -2.113  24.578  0.00  0.00    +0.150 C 
BRANCH   3   4
ATOM      4  C   UNL     1      -3.183  -2.323  24.832  0.00  0.00    +0.025 C 
ATOM      5  C   UNL     1      -3.330  -2.444  25.635  0.00  0.00    +0.002 C 
ATOM      6  C   UNL     1      -3.792  -2.413  24.282  0.00  0.00    +0.002 C 
ENDBRANCH   3   4
BRANCH   3   2
ATOM      1  C   UNL     1      -1.931  -3.251  23.869  0.00  0.00    +0.108 C 
ATOM      2  N   UNL     1      -1.850  -2.694  24.473  0.00  0.00    -0.209 NA
ENDBRANCH   3   2
ENDBRANCH   7   3
ENDBRANCH  10   9
BRANCH  12  19
ATOM     19  C   UNL     1      -1.886   2.011  24.567  0.00  0.00    +0.269 C 
ATOM     20  O   UNL     1      -1.571   2.416  23.922  0.00  0.00    -0.271 OA
ATOM     21  N   UNL     1      -2.292   2.424  25.155  0.00  0.00    -0.195 NA
BRANCH  21  22
ATOM     22  C   UNL     1      -2.383   3.242  25.098  0.00  0.00    +0.179 C 
BRANCH  22  30
ATOM     30  C   UNL     1      -1.840   3.743  25.466  0.00  0.00    +0.281 C 
ATOM     31  N   UNL     1      -1.540   4.396  25.060  0.00  0.00    -0.086 NA
ATOM     32  O   UNL     1      -1.598   3.592  26.240  0.00  0.00    -0.270 OA
ENDBRANCH  22  30
BRANCH  22  23
ATOM     23  C   UNL     1      -3.014   3.559  24.674  0.00  0.00    +0.057 C 
BRANCH  23  24
ATOM     24  C   UNL     1      -3.771   3.565  25.003  0.00  0.00    -0.020 A 
ATOM     25  C   UNL     1      -4.403   3.229  24.592  0.00  0.00    -0.004 A 
ATOM     26  C   UNL     1      -5.159   3.236  24.921  0.00  0.00    -0.000 A 
ATOM     27  C   UNL     1      -5.284   3.578  25.661  0.00  0.00    -0.000 A 
ATOM     28  C   UNL     1      -4.653   3.914  26.072  0.00  0.00    -0.000 A 
ATOM     29  C   UNL     1      -3.895   3.907  25.743  0.00  0.00    -0.004 A 
ENDBRANCH  23  24
ENDBRANCH  22  23
ENDBRANCH  21  22
ENDBRANCH  12  19
TORSDOF 9
ENDMDL
MODEL 6
REMARK VINA RESULT:      -9.4      1.019      5.136
REMARK  Name = 
REMARK  9 active torsions:
REMARK  status: ('A' for Active; 'I' for Inactive)
REMARK    1  A    between atoms: N_2  and  C_3
REMARK    2  A    between atoms: C_3  and  C_4
REMARK    3  A    between atoms: C_3  and  C_7
REMARK    4  A    between atoms: N_9  and  C_10
REMARK    5  A    between atoms: C_12  and  C_19
REMARK    6  A    between atoms: N_21  and  C_22
REMARK    7  A    between atoms: C_22  and  C_23
REMARK    8  A    between atoms: C_22  and  C_30
REMARK    9  A    between atoms: C_23  and  C_24
REMARK                            x       y       z     vdW  Elec       q    Type
REMARK                         _______ _______ _______ _____ _____    ______ ____
ROOT
ATOM     10  C   UNL     1      -3.349   2.733  24.592  0.00  0.00    +0.131 C 
ATOM     11  C   UNL     1      -3.027   1.974  24.623  0.00  0.00    +0.064 C 
ATOM     12  C   UNL     1      -3.522   1.319  24.709  0.00  0.00    +0.200 C 
ATOM     13  O   UNL     1      -2.788   0.942  24.681  0.00  0.00    -0.216 OA
ATOM     14  C   UNL     1      -4.339   1.424  24.763  0.00  0.00    +0.075 C 
ATOM     15  C   UNL     1      -4.661   2.182  24.731  0.00  0.00    +0.187 C 
ATOM     16  O   UNL     1      -5.477   2.287  24.785  0.00  0.00    -0.220 OA
ATOM     17  C   UNL     1      -4.166   2.837  24.646  0.00  0.00    +0.202 C 
ATOM     18  O   UNL     1      -4.488   3.596  24.614  0.00  0.00    -0.219 OA
ENDROOT
BRANCH  10   9
ATOM      7  C   UNL     1      -2.301   3.565  25.092  0.00  0.00    +0.257 C 
ATOM      8  O   UNL     1      -2.243   3.089  25.762  0.00  0.00    -0.272 OA
ATOM      9  N   UNL     1      -2.854   3.388  24.506  0.00  0.00    -0.203 NA
BRANCH   7   3
ATOM      3  C   UNL     1      -1.806   4.219  25.007  0.00  0.00    +0.150 C 
BRANCH   3   4
ATOM      4  C   UNL     1      -0.988   4.117  24.970  0.00  0.00    +0.025 C 
ATOM      5  C   UNL     1      -0.570   4.366  24.305  0.00  0.00    +0.002 C 
ATOM      6  C   UNL     1      -0.588   3.764  25.601  0.00  0.00    +0.002 C 
ENDBRANCH   3   4
BRANCH   3   2
ATOM      1  C   UNL     1      -1.719   5.620  25.274  0.00  0.00    +0.108 C 
ATOM      2  N   UNL     1      -2.129   4.977  24.959  0.00  0.00    -0.209 NA
ENDBRANCH   3   2
ENDBRANCH   7   3
ENDBRANCH  10   9
BRANCH  12  19
ATOM     19  C   UNL     1      -3.762   0.534  24.784  0.00  0.00    +0.269 C 
ATOM     20  O   UNL     1      -4.385   0.340  25.288  0.00  0.00    -0.271 OA
ATOM     21  N   UNL     1      -3.379  -0.058  24.356  0.00  0.00    -0.195 NA
BRANCH  21  22
ATOM     22  C   UNL     1      -3.618  -0.844  24.431  0.00  0.00    +0.179 C 
BRANCH  22  30
ATOM     30  C   UNL     1      -4.159  -1.163  23.894  0.00  0.00    +0.281 C 
ATOM     31  N   UNL     1      -4.811  -1.586  24.170  0.00  0.00    -0.086 NA
ATOM     32  O   UNL     1      -4.046  -1.059  23.084  0.00  0.00    -0.270 OA
ENDBRANCH  22  30
BRANCH  22  23
ATOM     23  C   UNL     1      -3.319  -1.310  25.041  0.00  0.00    +0.057 C 
BRANCH  23  24
ATOM     24  C   UNL     1      -2.621  -1.736  24.929  0.00  0.00    -0.020 A 
ATOM     25  C   UNL     1      -2.642  -2.473  24.559  0.00  0.00    -0.004 A 
ATOM     26  C   UNL     1      -1.945  -2.899  24.448  0.00  0.00    -0.000 A 
ATOM     27  C   UNL     1      -1.225  -2.589  24.707  0.00  0.00    -0.000 A 
ATOM     28  C   UNL     1      -1.204  -1.852  25.078  0.00  0.00    -0.000 A 
ATOM     29  C   UNL     1      -1.902  -1.425  25.189  0.00  0.00    -0.004 A 
ENDBRANCH  23  24
ENDBRANCH  22  23
ENDBRANCH  21  22
ENDBRANCH  12  19
TORSDOF 9
ENDMDL
