MODEL 1
REMARK VINA RESULT:      -9.2      0.000      0.000
REMARK  Name = 
REMARK  9 active torsions:
REMARK  status: ('A' for Active; 'I' for Inactive)
REMARK    1  A    between atoms: S_2  and  C_5
REMARK    2  A    between atoms: C_5  and  C_6
REMARK    3  A    between atoms: C_6  and  C_7
REMARK    4  A    between atoms: C_7  and  N_8
REMARK    5  A    between atoms: C_7  and  C_25
REMARK    6  A    between atoms: C_9  and  C_11
REMARK    7  A    between atoms: C_13  and  N_14
REMARK    8  A    between atoms: C_15  and  C_17
REMARK    9  A    between atoms: C_17  and  C_18
REMARK                            x       y       z     vdW  Elec       q    Type
REMARK                         _______ _______ _______ _____ _____    ______ ____
ROOT
ATOM     11  C   UNL     1      -4.150   1.213  24.772  0.00  0.00    +0.033 C 
ATOM     12  C   UNL     1      -3.723   1.904  24.633  0.00  0.00    -0.002 C 
ATOM     13  C   UNL     1      -4.064   2.639  24.795  0.00  0.00    +0.150 C 
ATOM     20  C   UNL     1      -4.832   2.680  25.094  0.00  0.00    +0.206 C 
ATOM     21  O   UNL     1      -5.172   3.415  25.255  0.00  0.00    -0.218 OA
ATOM     22  C   UNL     1      -5.259   1.989  25.232  0.00  0.00    +0.189 C 
ATOM     23  O   UNL     1      -6.026   2.031  25.531  0.00  0.00    -0.220 OA
ATOM     24  C   UNL     1      -4.918   1.254  25.071  0.00  0.00    +0.066 C 
ENDROOT
BRANCH  11   9
ATOM      8  N   UNL     1      -3.414   0.067  25.206  0.00  0.00    -0.194 NA
ATOM      9  C   UNL     1      -3.810   0.478  24.611  0.00  0.00    +0.261 C 
ATOM     10  O   UNL     1      -3.867   0.156  23.854  0.00  0.00    -0.269 OA
BRANCH   8   7
ATOM      7  C   UNL     1      -3.075  -0.667  25.045  0.00  0.00    +0.176 C 
BRANCH   7  25
ATOM     25  C   UNL     1      -3.465  -1.360  25.264  0.00  0.00    +0.281 C 
ATOM     26  N   UNL     1      -3.722  -1.888  24.685  0.00  0.00    -0.086 NA
ATOM     27  O   UNL     1      -3.599  -1.524  26.061  0.00  0.00    -0.270 OA
ENDBRANCH   7  25
BRANCH   7   6
ATOM      6  C   UNL     1      -2.344  -0.708  24.663  0.00  0.00    +0.056 C 
BRANCH   6   5
ATOM      5  C   UNL     1      -1.655  -0.823  25.103  0.00  0.00    +0.153 C 
BRANCH   5   2
ATOM      1  C   UNL     1      -0.180  -0.659  24.383  0.00  0.00    +0.176 C 
ATOM      2  S   UNL     1      -0.917  -0.741  24.743  0.00  0.00    -0.008 S 
ATOM      3  O   UNL     1      -1.037  -1.450  24.338  0.00  0.00    -0.173 OA
ATOM      4  O   UNL     1      -0.798  -0.033  25.148  0.00  0.00    -0.173 OA
ENDBRANCH   5   2
ENDBRANCH   6   5
ENDBRANCH   7   6
ENDBRANCH   8   7
ENDBRANCH  11   9
BRANCH  13  14
ATOM     14  N   UNL     1      -3.636   3.331  24.656  0.00  0.00    -0.200 NA
ATOM     15  C   UNL     1      -2.943   3.479  25.080  0.00  0.00    +0.243 C 
ATOM     16  O   UNL     1      -2.678   2.936  25.640  0.00  0.00    -0.273 OA
BRANCH  15  17
ATOM     17  C   UNL     1      -2.516   4.171  24.941  0.00  0.00    +0.107 C 
BRANCH  17  18
ATOM     18  C   UNL     1      -1.804   4.302  25.336  0.00  0.00    +0.119 C 
ATOM     19  N   UNL     1      -1.357   4.975  25.169  0.00  0.00    -0.131 NA
ENDBRANCH  17  18
ENDBRANCH  15  17
ENDBRANCH  13  14
TORSDOF 9
ENDMDL
MODEL 2
REMARK VINA RESULT:      -8.6      1.450      3.875
REMARK  Name = 
REMARK  9 active torsions:
REMARK  status: ('A' for Active; 'I' for Inactive)
REMARK    1  A    between atoms: S_2  and  C_5
REMARK    2  A    between atoms: C_5  and  C_6
REMARK    3  A    between atoms: C_6  and  C_7
REMARK    4  A    between atoms: C_7  and  N_8
REMARK    5  A    between atoms: C_7  and  C_25
REMARK    6  A    between atoms: C_9  and  C_11
REMARK    7  A    between atoms: C_13  and  N_14
REMARK    8  A    between atoms: C_15  and  C_17
REMARK    9  A    between atoms: C_17  and  C_18
REMARK                            x       y       z     vdW  Elec       q    Type
REMARK                         _______ _______ _______ _____ _____    ______ ____
ROOT
ATOM     11  C   UNL     1      -3.941   2.663  24.866  0.00  0.00    +0.033 C 
ATOM     12  C   UNL     1      -4.007   1.887  24.598  0.00  0.00    -0.002 C 
ATOM     13  C   UNL     1      -4.707   1.466  24.716  0.00  0.00    +0.150 C 
ATOM     20  C   UNL     1      -5.343   1.824  25.103  0.00  0.00    +0.206 C 
ATOM     21  O   UNL     1      -6.043   1.404  25.221  0.00  0.00    -0.218 OA
ATOM     22  C   UNL     1      -5.278   2.600  25.372  0.00  0.00    +0.189 C 
ATOM     23  O   UNL     1      -5.912   2.958  25.759  0.00  0.00    -0.220 OA
ATOM     24  C   UNL     1      -4.577   3.021  25.254  0.00  0.00    +0.066 C 
ENDROOT
BRANCH  11   9
ATOM      8  N   UNL     1      -2.697   3.160  25.364  0.00  0.00    -0.194 NA
ATOM      9  C   UNL     1      -3.242   3.083  24.748  0.00  0.00    +0.261 C 
ATOM     10  O   UNL     1      -3.087   3.427  24.015  0.00  0.00    -0.269 OA
BRANCH   8   7
ATOM      7  C   UNL     1      -1.998   3.580  25.245  0.00  0.00    +0.176 C 
BRANCH   7  25
ATOM     25  C   UNL     1      -1.950   4.374  25.466  0.00  0.00    +0.281 C 
ATOM     26  N   UNL     1      -1.650   4.931  24.937  0.00  0.00    -0.086 NA
ATOM     27  O   UNL     1      -2.202   4.610  26.214  0.00  0.00    -0.270 OA
ENDBRANCH   7  25
BRANCH   7   6
ATOM      6  C   UNL     1      -1.344   3.207  24.905  0.00  0.00    +0.056 C 
BRANCH   6   5
ATOM      5  C   UNL     1      -0.761   2.877  25.387  0.00  0.00    +0.153 C 
BRANCH   5   2
ATOM      1  C   UNL     1       0.306   1.786  24.760  0.00  0.00    +0.176 C 
ATOM      2  S   UNL     1      -0.228   2.332  25.073  0.00  0.00    -0.008 S 
ATOM      3  O   UNL     1      -0.007   2.879  24.497  0.00  0.00    -0.173 OA
ATOM      4  O   UNL     1      -0.449   1.785  25.650  0.00  0.00    -0.173 OA
ENDBRANCH   5   2
ENDBRANCH   6   5
ENDBRANCH   7   6
ENDBRANCH   8   7
ENDBRANCH  11   9
BRANCH  13  14
ATOM     14  N   UNL     1      -4.773   0.689  24.447  0.00  0.00    -0.200 NA
ATOM     15  C   UNL     1      -4.243   0.115  24.714  0.00  0.00    +0.243 C 
ATOM     16  O   UNL     1      -3.650   0.317  25.249  0.00  0.00    -0.273 OA
BRANCH  15  17
ATOM     17  C   UNL     1      -4.309  -0.663  24.445  0.00  0.00    +0.107 C 
BRANCH  17  18
ATOM     18  C   UNL     1      -3.784  -1.238  24.716  0.00  0.00    +0.119 C 
ATOM     19  N   UNL     1      -3.841  -2.013  24.437  0.00  0.00    -0.131 NA
ENDBRANCH  17  18
ENDBRANCH  15  17
ENDBRANCH  13  14
TORSDOF 9
ENDMDL
MODEL 3
REMARK VINA RESULT:      -8.3      1.678      5.003
REMARK  Name = 
REMARK  9 active torsions:
REMARK  status: ('A' for Active; 'I' for Inactive)
REMARK    1  A    between atoms: S_2  and  C_5
REMARK    2  A    between atoms: C_5  and  C_6
REMARK    3  A    between atoms: C_6  and  C_7
REMARK    4  A    between atoms: C_7  and  N_8
REMARK    5  A    between atoms: C_7  and  C_25
REMARK    6  A    between atoms: C_9  and  C_11
REMARK    7  A    between atoms: C_13  and  N_14
REMARK    8  A    between atoms: C_15  and  C_17
REMARK    9  A    between atoms: C_17  and  C_18
REMARK                            x       y       z     vdW  Elec       q    Type
REMARK                         _______ _______ _______ _____ _____    ______ ____
ROOT
ATOM     11  C   UNL     1      -1.891   1.350  24.385  0.00  0.00    +0.033 C 
ATOM     12  C   UNL     1      -2.107   0.611  24.677  0.00  0.00    -0.002 C 
ATOM     13  C   UNL     1      -1.554  -0.002  24.701  0.00  0.00    +0.150 C 
ATOM     20  C   UNL     1      -0.784   0.127  24.432  0.00  0.00    +0.206 C 
ATOM     21  O   UNL     1      -0.232  -0.486  24.455  0.00  0.00    -0.218 OA
ATOM     22  C   UNL     1      -0.568   0.866  24.140  0.00  0.00    +0.189 C 
ATOM     23  O   UNL     1       0.201   0.995  23.871  0.00  0.00    -0.220 OA
ATOM     24  C   UNL     1      -1.121   1.479  24.116  0.00  0.00    +0.066 C 
ENDROOT
BRANCH  11   9
ATOM      8  N   UNL     1      -2.767   2.254  25.062  0.00  0.00    -0.194 NA
ATOM      9  C   UNL     1      -2.443   1.963  24.361  0.00  0.00    +0.261 C 
ATOM     10  O   UNL     1      -2.670   2.284  23.636  0.00  0.00    -0.269 OA
BRANCH   8   7
ATOM      7  C   UNL     1      -3.318   2.866  25.037  0.00  0.00    +0.176 C 
BRANCH   7  25
ATOM     25  C   UNL     1      -3.078   3.645  25.168  0.00  0.00    +0.281 C 
ATOM     26  N   UNL     1      -2.749   3.858  25.894  0.00  0.00    -0.086 NA
ATOM     27  O   UNL     1      -3.167   4.210  24.574  0.00  0.00    -0.270 OA
ENDBRANCH   7  25
BRANCH   7   6
ATOM      6  C   UNL     1      -4.113   2.700  24.882  0.00  0.00    +0.056 C 
BRANCH   6   5
ATOM      5  C   UNL     1      -4.640   2.587  25.506  0.00  0.00    +0.153 C 
BRANCH   5   2
ATOM      1  C   UNL     1      -6.177   2.069  25.203  0.00  0.00    +0.176 C 
ATOM      2  S   UNL     1      -5.408   2.328  25.354  0.00  0.00    -0.008 S 
ATOM      3  O   UNL     1      -5.625   3.095  25.142  0.00  0.00    -0.173 OA
ATOM      4  O   UNL     1      -5.191   1.561  25.567  0.00  0.00    -0.173 OA
ENDBRANCH   5   2
ENDBRANCH   6   5
ENDBRANCH   7   6
ENDBRANCH   8   7
ENDBRANCH  11   9
BRANCH  13  14
ATOM     14  N   UNL     1      -1.771  -0.742  24.993  0.00  0.00    -0.200 NA
ATOM     15  C   UNL     1      -2.404  -1.150  24.654  0.00  0.00    +0.243 C 
ATOM     16  O   UNL     1      -2.819  -0.817  24.024  0.00  0.00    -0.273 OA
BRANCH  15  17
ATOM     17  C   UNL     1      -2.621  -1.891  24.946  0.00  0.00    +0.107 C 
BRANCH  17  18
ATOM     18  C   UNL     1      -3.303  -2.260  24.667  0.00  0.00    +0.119 C 
ATOM     19  N   UNL     1      -3.562  -2.964  25.012  0.00  0.00    -0.131 NA
ENDBRANCH  17  18
ENDBRANCH  15  17
ENDBRANCH  13  14
TORSDOF 9
ENDMDL
MODEL 4
REMARK VINA RESULT:      -8.2      1.746      3.570
REMARK  Name = 
REMARK  9 active torsions:
REMARK  status: ('A' for Active; 'I' for Inactive)
REMARK    1  A    between atoms: S_2  and  C_5
REMARK    2  A    between atoms: C_5  and  C_6
REMARK    3  A    between atoms: C_6  and  C_7
REMARK    4  A    between atoms: C_7  and  N_8
REMARK    5  A    between atoms: C_7  and  C_25
REMARK    6  A    between atoms: C_9  and  C_11
REMARK    7  A    between atoms: C_13  and  N_14
REMARK    8  A    between atoms: C_15  and  C_17
REMARK    9  A    between atoms: C_17  and  C_18
REMARK                            x       y       z     vdW  Elec       q    Type
REMARK                         _______ _______ _______ _____ _____    ______ ____
ROOT
ATOM     11  C   UNL     1      -1.607   0.729  24.772  0.00  0.00    +0.033 C 
ATOM     12  C   UNL     1      -1.413   1.495  25.005  0.00  0.00    -0.002 C 
ATOM     13  C   UNL     1      -0.686   1.820  24.789  0.00  0.00    +0.150 C 
ATOM     20  C   UNL     1      -0.153   1.378  24.339  0.00  0.00    +0.206 C 
ATOM     21  O   UNL     1       0.573   1.704  24.123  0.00  0.00    -0.218 OA
ATOM     22  C   UNL     1      -0.347   0.612  24.106  0.00  0.00    +0.189 C 
ATOM     23  O   UNL     1       0.185   0.170  23.656  0.00  0.00    -0.220 OA
ATOM     24  C   UNL     1      -1.074   0.286  24.322  0.00  0.00    +0.066 C 
ENDROOT
BRANCH  11   9
ATOM      8  N   UNL     1      -2.972   0.437  24.467  0.00  0.00    -0.194 NA
ATOM      9  C   UNL     1      -2.333   0.403  24.988  0.00  0.00    +0.261 C 
ATOM     10  O   UNL     1      -2.420   0.042  25.725  0.00  0.00    -0.269 OA
BRANCH   8   7
ATOM      7  C   UNL     1      -3.698   0.111  24.684  0.00  0.00    +0.176 C 
BRANCH   7  25
ATOM     25  C   UNL     1      -3.874  -0.671  24.490  0.00  0.00    +0.281 C 
ATOM     26  N   UNL     1      -3.938  -0.895  23.698  0.00  0.00    -0.086 NA
ATOM     27  O   UNL     1      -3.986  -1.229  25.086  0.00  0.00    -0.270 OA
ENDBRANCH   7  25
BRANCH   7   6
ATOM      6  C   UNL     1      -4.250   0.568  25.095  0.00  0.00    +0.056 C 
BRANCH   6   5
ATOM      5  C   UNL     1      -4.802   1.020  24.680  0.00  0.00    +0.153 C 
BRANCH   5   2
ATOM      1  C   UNL     1      -5.623   2.227  25.449  0.00  0.00    +0.176 C 
ATOM      2  S   UNL     1      -5.212   1.624  25.065  0.00  0.00    -0.008 S 
ATOM      3  O   UNL     1      -4.949   2.163  24.499  0.00  0.00    -0.173 OA
ATOM      4  O   UNL     1      -5.475   1.084  25.631  0.00  0.00    -0.173 OA
ENDBRANCH   5   2
ENDBRANCH   6   5
ENDBRANCH   7   6
ENDBRANCH   8   7
ENDBRANCH  11   9
BRANCH  13  14
ATOM     14  N   UNL     1      -0.491   2.587  25.023  0.00  0.00    -0.200 NA
ATOM     15  C   UNL     1      -0.974   3.220  24.804  0.00  0.00    +0.243 C 
ATOM     16  O   UNL     1      -1.650   3.086  24.352  0.00  0.00    -0.273 OA
BRANCH  15  17
ATOM     17  C   UNL     1      -0.780   3.988  25.037  0.00  0.00    +0.107 C 
BRANCH  17  18
ATOM     18  C   UNL     1      -1.360   4.573  25.053  0.00  0.00    +0.119 C 
ATOM     19  N   UNL     1      -1.143   5.368  25.090  0.00  0.00    -0.131 NA
ENDBRANCH  17  18
ENDBRANCH  15  17
ENDBRANCH  13  14
TORSDOF 9
ENDMDL
MODEL 5
REMARK VINA RESULT:      -8.2      1.719      3.235
REMARK  Name = 
REMARK  9 active torsions:
REMARK  status: ('A' for Active; 'I' for Inactive)
REMARK    1  A    between atoms: S_2  and  C_5
REMARK    2  A    between atoms: C_5  and  C_6
REMARK    3  A    between atoms: C_6  and  C_7
REMARK    4  A    between atoms: C_7  and  N_8
REMARK    5  A    between atoms: C_7  and  C_25
REMARK    6  A    between atoms: C_9  and  C_11
REMARK    7  A    between atoms: C_13  and  N_14
REMARK    8  A    between atoms: C_15  and  C_17
REMARK    9  A    between atoms: C_17  and  C_18
REMARK                            x       y       z     vdW  Elec       q    Type
REMARK                         _______ _______ _______ _____ _____    ______ ____
ROOT
ATOM     11  C   UNL     1      -1.311   2.649  25.339  0.00  0.00    +0.033 C 
ATOM     12  C   UNL     1      -2.058   2.887  25.595  0.00  0.00    -0.002 C 
ATOM     13  C   UNL     1      -2.256   3.689  25.601  0.00  0.00    +0.150 C 
ATOM     20  C   UNL     1      -1.705   4.252  25.352  0.00  0.00    +0.206 C 
ATOM     21  O   UNL     1      -1.904   5.052  25.359  0.00  0.00    -0.218 OA
ATOM     22  C   UNL     1      -0.959   4.014  25.096  0.00  0.00    +0.189 C 
ATOM     23  O   UNL     1      -0.409   4.576  24.846  0.00  0.00    -0.220 OA
ATOM     24  C   UNL     1      -0.761   3.212  25.089  0.00  0.00    +0.066 C 
ENDROOT
BRANCH  11   9
ATOM      8  N   UNL     1      -1.358   1.368  24.707  0.00  0.00    -0.194 NA
ATOM      9  C   UNL     1      -1.113   1.848  25.332  0.00  0.00    +0.261 C 
ATOM     10  O   UNL     1      -0.670   1.529  25.950  0.00  0.00    -0.269 OA
BRANCH   8   7
ATOM      7  C   UNL     1      -1.159   0.568  24.701  0.00  0.00    +0.176 C 
BRANCH   7  25
ATOM     25  C   UNL     1      -0.506   0.307  24.270  0.00  0.00    +0.281 C 
ATOM     26  N   UNL     1      -0.443   0.489  23.467  0.00  0.00    -0.086 NA
ATOM     27  O   UNL     1       0.084  -0.134  24.640  0.00  0.00    -0.270 OA
ENDBRANCH   7  25
BRANCH   7   6
ATOM      6  C   UNL     1      -1.615   0.026  25.127  0.00  0.00    +0.056 C 
BRANCH   6   5
ATOM      5  C   UNL     1      -2.219  -0.390  24.750  0.00  0.00    +0.153 C 
BRANCH   5   2
ATOM      1  C   UNL     1      -3.324  -1.228  25.644  0.00  0.00    +0.176 C 
ATOM      2  S   UNL     1      -2.772  -0.809  25.197  0.00  0.00    -0.008 S 
ATOM      3  O   UNL     1      -2.184  -1.342  25.423  0.00  0.00    -0.173 OA
ATOM      4  O   UNL     1      -3.359  -0.276  24.971  0.00  0.00    -0.173 OA
ENDBRANCH   5   2
ENDBRANCH   6   5
ENDBRANCH   7   6
ENDBRANCH   8   7
ENDBRANCH  11   9
BRANCH  13  14
ATOM     14  N   UNL     1      -3.003   3.927  25.857  0.00  0.00    -0.200 NA
ATOM     15  C   UNL     1      -3.677   3.662  25.464  0.00  0.00    +0.243 C 
ATOM     16  O   UNL     1      -3.605   3.159  24.815  0.00  0.00    -0.273 OA
BRANCH  15  17
ATOM     17  C   UNL     1      -4.425   3.900  25.720  0.00  0.00    +0.107 C 
BRANCH  17  18
ATOM     18  C   UNL     1      -5.096   3.490  25.472  0.00  0.00    +0.119 C 
ATOM     19  N   UNL     1      -5.839   3.700  25.764  0.00  0.00    -0.131 NA
ENDBRANCH  17  18
ENDBRANCH  15  17
ENDBRANCH  13  14
TORSDOF 9
ENDMDL
MODEL 6
REMARK VINA RESULT:      -8.1      1.808      3.173
REMARK  Name = 
REMARK  9 active torsions:
REMARK  status: ('A' for Active; 'I' for Inactive)
REMARK    1  A    between atoms: S_2  and  C_5
REMARK    2  A    between atoms: C_5  and  C_6
REMARK    3  A    between atoms: C_6  and  C_7
REMARK    4  A    between atoms: C_7  and  N_8
REMARK    5  A    between atoms: C_7  and  C_25
REMARK    6  A    between atoms: C_9  and  C_11
REMARK    7  A    between atoms: C_13  and  N_14
REMARK    8  A    between atoms: C_15  and  C_17
REMARK    9  A    between atoms: C_17  and  C_18
REMARK                            x       y       z     vdW  Elec       q    Type
REMARK                         _______ _______ _______ _____ _____    ______ ____
ROOT
ATOM     11  C   UNL     1      -3.124   3.034  24.858  0.00  0.00    +0.033 C 
ATOM     12  C   UNL     1      -2.368   2.900  24.558  0.00  0.00    -0.002 C 
ATOM     13  C   UNL     1      -1.748   3.406  24.760  0.00  0.00    +0.150 C 
ATOM     20  C   UNL     1      -1.886   4.047  25.262  0.00  0.00    +0.206 C 
ATOM     21  O   UNL     1      -1.266   4.553  25.464  0.00  0.00    -0.218 OA
ATOM     22  C   UNL     1      -2.642   4.181  25.562  0.00  0.00    +0.189 C 
ATOM     23  O   UNL     1      -2.780   4.821  26.064  0.00  0.00    -0.220 OA
ATOM     24  C   UNL     1      -3.262   3.675  25.360  0.00  0.00    +0.066 C 
ENDROOT
BRANCH  11   9
ATOM      8  N   UNL     1      -4.038   1.994  25.212  0.00  0.00    -0.194 NA
ATOM      9  C   UNL     1      -3.744   2.528  24.657  0.00  0.00    +0.261 C 
ATOM     10  O   UNL     1      -4.069   2.557  23.899  0.00  0.00    -0.269 OA
BRANCH   8   7
ATOM      7  C   UNL     1      -4.658   1.489  25.010  0.00  0.00    +0.176 C 
BRANCH   7  25
ATOM     25  C   UNL     1      -5.438   1.706  25.170  0.00  0.00    +0.281 C 
ATOM     26  N   UNL     1      -5.678   1.833  25.949  0.00  0.00    -0.086 NA
ATOM     27  O   UNL     1      -5.976   1.797  24.553  0.00  0.00    -0.270 OA
ENDBRANCH   7  25
BRANCH   7   6
ATOM      6  C   UNL     1      -4.498   0.764  24.648  0.00  0.00    +0.056 C 
BRANCH   6   5
ATOM      5  C   UNL     1      -4.364   0.093  25.109  0.00  0.00    +0.153 C 
BRANCH   5   2
ATOM      1  C   UNL     1      -3.710  -1.259  24.426  0.00  0.00    +0.176 C 
ATOM      2  S   UNL     1      -4.037  -0.583  24.767  0.00  0.00    -0.008 S 
ATOM      3  O   UNL     1      -4.687  -0.642  24.263  0.00  0.00    -0.173 OA
ATOM      4  O   UNL     1      -3.387  -0.523  25.272  0.00  0.00    -0.173 OA
ENDBRANCH   5   2
ENDBRANCH   6   5
ENDBRANCH   7   6
ENDBRANCH   8   7
ENDBRANCH  11   9
BRANCH  13  14
ATOM     14  N   UNL     1      -0.992   3.272  24.460  0.00  0.00    -0.200 NA
ATOM     15  C   UNL     1      -0.594   2.573  24.643  0.00  0.00    +0.243 C 
ATOM     16  O   UNL     1      -0.952   2.008  25.125  0.00  0.00    -0.273 OA
BRANCH  15  17
ATOM     17  C   UNL     1       0.164   2.438  24.343  0.00  0.00    +0.107 C 
BRANCH  17  18
ATOM     18  C   UNL     1       0.474   1.675  24.333  0.00  0.00    +0.119 C 
ATOM     19  N   UNL     1       1.199   1.529  23.969  0.00  0.00    -0.131 NA
ENDBRANCH  17  18
ENDBRANCH  15  17
ENDBRANCH  13  14
TORSDOF 9
ENDMDL
MODEL 7
REMARK VINA RESULT:      -8.0      1.615      4.265
REMARK  Name = 
REMARK  9 active torsions:
REMARK  status: ('A' for Active; 'I' for Inactive)
REMARK    1  A    between atoms: S_2  and  C_5
REMARK    2  A    between atoms: C_5  and  C_6
REMARK    3  A    between atoms: C_6  and  C_7
REMARK    4  A    between atoms: C_7  and  N_8
REMARK    5  A    between atoms: C_7  and  C_25
REMARK    6  A    between atoms: C_9  and  C_11
REMARK    7  A    between atoms: C_13  and  N_14
REMARK    8  A    between atoms: C_15  and  C_17
REMARK    9  A    between atoms: C_17  and  C_18
REMARK                            x       y       z     vdW  Elec       q    Type
REMARK                         _______ _______ _______ _____ _____    ______ ____
ROOT
ATOM     11  C   UNL     1      -3.631   0.858  24.627  0.00  0.00    +0.033 C 
ATOM     12  C   UNL     1      -3.006   0.479  25.007  0.00  0.00    -0.002 C 
ATOM     13  C   UNL     1      -3.025  -0.339  25.118  0.00  0.00    +0.150 C 
ATOM     20  C   UNL     1      -3.671  -0.777  24.848  0.00  0.00    +0.206 C 
ATOM     21  O   UNL     1      -3.689  -1.594  24.959  0.00  0.00    -0.218 OA
ATOM     22  C   UNL     1      -4.296  -0.398  24.468  0.00  0.00    +0.189 C 
ATOM     23  O   UNL     1      -4.941  -0.836  24.198  0.00  0.00    -0.220 OA
ATOM     24  C   UNL     1      -4.277   0.420  24.356  0.00  0.00    +0.066 C 
ENDROOT
BRANCH  11   9
ATOM      8  N   UNL     1      -3.618   2.181  25.167  0.00  0.00    -0.194 NA
ATOM      9  C   UNL     1      -3.612   1.675  24.515  0.00  0.00    +0.261 C 
ATOM     10  O   UNL     1      -3.588   1.985  23.752  0.00  0.00    -0.269 OA
BRANCH   8   7
ATOM      7  C   UNL     1      -3.600   2.997  25.055  0.00  0.00    +0.176 C 
BRANCH   7  25
ATOM     25  C   UNL     1      -4.295   3.438  25.108  0.00  0.00    +0.281 C 
ATOM     26  N   UNL     1      -4.733   3.435  25.807  0.00  0.00    -0.086 NA
ATOM     27  O   UNL     1      -4.554   3.880  24.462  0.00  0.00    -0.270 OA
ENDBRANCH   7  25
BRANCH   7   6
ATOM      6  C   UNL     1      -2.884   3.375  24.890  0.00  0.00    +0.056 C 
BRANCH   6   5
ATOM      5  C   UNL     1      -2.476   3.765  25.492  0.00  0.00    +0.153 C 
BRANCH   5   2
ATOM      1  C   UNL     1      -0.956   4.344  25.215  0.00  0.00    +0.176 C 
ATOM      2  S   UNL     1      -1.716   4.054  25.353  0.00  0.00    -0.008 S 
ATOM      3  O   UNL     1      -1.399   3.435  25.797  0.00  0.00    -0.173 OA
ATOM      4  O   UNL     1      -2.032   4.674  24.910  0.00  0.00    -0.173 OA
ENDBRANCH   5   2
ENDBRANCH   6   5
ENDBRANCH   7   6
ENDBRANCH   8   7
ENDBRANCH  11   9
BRANCH  13  14
ATOM     14  N   UNL     1      -2.399  -0.719  25.499  0.00  0.00    -0.200 NA
ATOM     15  C   UNL     1      -1.647  -0.715  25.159  0.00  0.00    +0.243 C 
ATOM     16  O   UNL     1      -1.521  -0.333  24.440  0.00  0.00    -0.273 OA
BRANCH  15  17
ATOM     17  C   UNL     1      -1.021  -1.095  25.541  0.00  0.00    +0.107 C 
BRANCH  17  18
ATOM     18  C   UNL     1      -0.418  -1.442  25.098  0.00  0.00    +0.119 C 
ATOM     19  N   UNL     1       0.038  -2.046  25.424  0.00  0.00    -0.131 NA
ENDBRANCH  17  18
ENDBRANCH  15  17
ENDBRANCH  13  14
TORSDOF 9
ENDMDL
