MODEL 1
REMARK VINA RESULT:     -10.2      0.000      0.000
REMARK  Name = 
REMARK  9 active torsions:
REMARK  status: ('A' for Active; 'I' for Inactive)
REMARK    1  A    between atoms: O_2  and  C_3
REMARK    2  A    between atoms: C_5  and  N_6
REMARK    3  A    between atoms: N_9  and  C_10
REMARK    4  A    between atoms: C_10  and  C_11
REMARK    5  A    between atoms: C_13  and  C_14
REMARK    6  A    between atoms: C_18  and  N_19
REMARK    7  A    between atoms: N_19  and  C_21
REMARK    8  A    between atoms: C_21  and  C_22
REMARK    9  A    between atoms: C_22  and  C_23
REMARK                            x       y       z     vdW  Elec       q    Type
REMARK                         _______ _______ _______ _____ _____    ______ ____
ROOT
ATOM     11  C   UNL     1      -4.402   2.134  24.806  0.00  0.00    +0.154 C 
ATOM     12  O   UNL     1      -5.121   2.237  25.198  0.00  0.00    -0.350 OA
ATOM     13  C   UNL     1      -5.187   3.033  25.403  0.00  0.00    +0.180 C 
ATOM     16  C   UNL     1      -4.510   3.423  25.137  0.00  0.00    +0.198 C 
ATOM     17  O   UNL     1      -4.347   4.227  25.225  0.00  0.00    -0.219 OA
ATOM     18  C   UNL     1      -4.025   2.868  24.768  0.00  0.00    +0.120 C 
ENDROOT
BRANCH  13  14
ATOM     14  C   UNL     1      -5.821   3.379  25.804  0.00  0.00    +0.214 C 
ATOM     15  O   UNL     1      -6.178   2.982  26.432  0.00  0.00    -0.218 OA
ENDBRANCH  13  14
BRANCH  18  19
ATOM     19  N   UNL     1      -3.291   3.018  24.422  0.00  0.00    -0.268 NA
ATOM     20  C   UNL     1      -3.248   3.239  23.628  0.00  0.00    +0.090 C 
BRANCH  19  21
ATOM     21  C   UNL     1      -2.601   2.947  24.869  0.00  0.00    +0.079 C 
BRANCH  21  22
ATOM     22  C   UNL     1      -1.868   3.099  24.522  0.00  0.00    +0.063 C 
BRANCH  22  23
ATOM     23  C   UNL     1      -1.175   2.861  24.900  0.00  0.00    +0.060 A 
ATOM     24  N   UNL     1      -0.685   2.298  24.547  0.00  0.00    -0.248 NA
ATOM     25  C   UNL     1       0.008   2.060  24.926  0.00  0.00    +0.098 A 
ATOM     26  C   UNL     1       0.211   2.384  25.656  0.00  0.00    +0.021 A 
ATOM     27  C   UNL     1      -0.279   2.946  26.009  0.00  0.00    +0.003 A 
ATOM     28  C   UNL     1      -0.972   3.184  25.630  0.00  0.00    +0.015 A 
ENDBRANCH  22  23
ENDBRANCH  21  22
ENDBRANCH  19  21
ENDBRANCH  18  19
BRANCH  11  10
ATOM     10  C   UNL     1      -4.112   1.423  24.504  0.00  0.00    +0.148 C 
BRANCH  10   9
ATOM      6  N   UNL     1      -4.229  -0.716  24.919  0.00  0.00    -0.161 NA
ATOM      7  C   UNL     1      -4.030  -0.003  24.557  0.00  0.00    +0.344 C 
ATOM      8  O   UNL     1      -3.551  -0.000  23.884  0.00  0.00    -0.249 OA
ATOM      9  N   UNL     1      -4.310   0.710  24.866  0.00  0.00    -0.184 NA
BRANCH   6   5
ATOM      3  C   UNL     1      -2.956  -2.455  24.571  0.00  0.00    +0.140 A 
ATOM      4  C   UNL     1      -3.236  -1.744  24.880  0.00  0.00    +0.054 A 
ATOM      5  C   UNL     1      -3.949  -1.427  24.609  0.00  0.00    +0.078 A 
ATOM     29  C   UNL     1      -4.382  -1.824  24.028  0.00  0.00    +0.017 A 
ATOM     30  C   UNL     1      -4.101  -2.535  23.719  0.00  0.00    +0.004 A 
ATOM     31  C   UNL     1      -3.390  -2.851  23.990  0.00  0.00    +0.037 A 
BRANCH   3   2
ATOM      1  C   UNL     1      -1.540  -2.598  24.448  0.00  0.00    +0.252 C 
ATOM      2  O   UNL     1      -2.244  -2.771  24.841  0.00  0.00    -0.471 OA
ENDBRANCH   3   2
ENDBRANCH   6   5
ENDBRANCH  10   9
ENDBRANCH  11  10
TORSDOF 9
ENDMDL
MODEL 2
REMARK VINA RESULT:     -10.0      2.014      5.833
REMARK  Name = 
REMARK  9 active torsions:
REMARK  status: ('A' for Active; 'I' for Inactive)
REMARK    1  A    between atoms: O_2  and  C_3
REMARK    2  A    between atoms: C_5  and  N_6
REMARK    3  A    between atoms: N_9  and  C_10
REMARK    4  A    between atoms: C_10  and  C_11
REMARK    5  A    between atoms: C_13  and  C_14
REMARK    6  A    between atoms: C_18  and  N_19
REMARK    7  A    between atoms: N_19  and  C_21
REMARK    8  A    between atoms: C_21  and  C_22
REMARK    9  A    between atoms: C_22  and  C_23
REMARK                            x       y       z     vdW  Elec       q    Type
REMARK                         _______ _______ _______ _____ _____    ______ ____
ROOT
ATOM     11  C   UNL     1      -0.520   0.472  24.356  0.00  0.00    +0.154 C 
ATOM     12  O   UNL     1       0.067   0.740  23.842  0.00  0.00    -0.350 OA
ATOM     13  C   UNL     1       0.445   0.081  23.521  0.00  0.00    +0.180 C 
ATOM     16  C   UNL     1       0.091  -0.595  23.837  0.00  0.00    +0.198 C 
ATOM     17  O   UNL     1       0.297  -1.375  23.666  0.00  0.00    -0.219 OA
ATOM     18  C   UNL     1      -0.505  -0.353  24.353  0.00  0.00    +0.120 C 
ENDROOT
BRANCH  13  14
ATOM     14  C   UNL     1       1.067   0.094  22.978  0.00  0.00    +0.214 C 
ATOM     15  O   UNL     1       1.672   0.647  23.059  0.00  0.00    -0.218 OA
ENDBRANCH  13  14
BRANCH  18  19
ATOM     19  N   UNL     1      -0.999  -0.849  24.790  0.00  0.00    -0.268 NA
ATOM     20  C   UNL     1      -0.789  -1.070  25.557  0.00  0.00    +0.090 C 
BRANCH  19  21
ATOM     21  C   UNL     1      -1.704  -1.123  24.461  0.00  0.00    +0.079 C 
BRANCH  21  22
ATOM     22  C   UNL     1      -2.222  -1.578  24.915  0.00  0.00    +0.063 C 
BRANCH  22  23
ATOM     23  C   UNL     1      -2.932  -1.843  24.590  0.00  0.00    +0.060 A 
ATOM     24  N   UNL     1      -3.500  -1.298  24.342  0.00  0.00    -0.248 NA
ATOM     25  C   UNL     1      -4.211  -1.563  24.017  0.00  0.00    +0.098 A 
ATOM     26  C   UNL     1      -4.353  -2.372  23.941  0.00  0.00    +0.021 A 
ATOM     27  C   UNL     1      -3.785  -2.916  24.189  0.00  0.00    +0.003 A 
ATOM     28  C   UNL     1      -3.075  -2.651  24.514  0.00  0.00    +0.015 A 
ENDBRANCH  22  23
ENDBRANCH  21  22
ENDBRANCH  19  21
ENDBRANCH  18  19
BRANCH  11  10
ATOM     10  C   UNL     1      -1.031   0.947  24.797  0.00  0.00    +0.148 C 
BRANCH  10   9
ATOM      6  N   UNL     1      -1.968   2.914  24.679  0.00  0.00    -0.161 NA
ATOM      7  C   UNL     1      -1.774   2.158  24.945  0.00  0.00    +0.344 C 
ATOM      8  O   UNL     1      -2.131   1.856  25.626  0.00  0.00    -0.249 OA
ATOM      9  N   UNL     1      -1.225   1.703  24.531  0.00  0.00    -0.184 NA
BRANCH   6   5
ATOM      3  C   UNL     1      -3.862   3.807  25.291  0.00  0.00    +0.140 A 
ATOM      4  C   UNL     1      -3.313   3.353  24.877  0.00  0.00    +0.054 A 
ATOM      5  C   UNL     1      -2.517   3.369  25.093  0.00  0.00    +0.078 A 
ATOM     29  C   UNL     1      -2.270   3.842  25.724  0.00  0.00    +0.017 A 
ATOM     30  C   UNL     1      -2.820   4.297  26.137  0.00  0.00    +0.004 A 
ATOM     31  C   UNL     1      -3.616   4.280  25.921  0.00  0.00    +0.037 A 
BRANCH   3   2
ATOM      1  C   UNL     1      -5.213   3.431  25.568  0.00  0.00    +0.252 C 
ATOM      2  O   UNL     1      -4.659   3.791  25.075  0.00  0.00    -0.471 OA
ENDBRANCH   3   2
ENDBRANCH   6   5
ENDBRANCH  10   9
ENDBRANCH  11  10
TORSDOF 9
ENDMDL
MODEL 3
REMARK VINA RESULT:      -9.7      1.739      3.483
REMARK  Name = 
REMARK  9 active torsions:
REMARK  status: ('A' for Active; 'I' for Inactive)
REMARK    1  A    between atoms: O_2  and  C_3
REMARK    2  A    between atoms: C_5  and  N_6
REMARK    3  A    between atoms: N_9  and  C_10
REMARK    4  A    between atoms: C_10  and  C_11
REMARK    5  A    between atoms: C_13  and  C_14
REMARK    6  A    between atoms: C_18  and  N_19
REMARK    7  A    between atoms: N_19  and  C_21
REMARK    8  A    between atoms: C_21  and  C_22
REMARK    9  A    between atoms: C_22  and  C_23
REMARK                            x       y       z     vdW  Elec       q    Type
REMARK                         _______ _______ _______ _____ _____    ______ ____
ROOT
ATOM     11  C   UNL     1      -1.226   1.847  25.286  0.00  0.00    +0.154 C 
ATOM     12  O   UNL     1      -0.577   1.872  25.796  0.00  0.00    -0.350 OA
ATOM     13  C   UNL     1      -0.456   2.657  26.016  0.00  0.00    +0.180 C 
ATOM     16  C   UNL     1      -1.030   3.119  25.642  0.00  0.00    +0.198 C 
ATOM     17  O   UNL     1      -1.113   3.937  25.709  0.00  0.00    -0.219 OA
ATOM     18  C   UNL     1      -1.506   2.618  25.191  0.00  0.00    +0.120 C 
ENDROOT
BRANCH  13  14
ATOM     14  C   UNL     1       0.135   2.934  26.521  0.00  0.00    +0.214 C 
ATOM     15  O   UNL     1       0.836   2.509  26.608  0.00  0.00    -0.218 OA
ENDBRANCH  13  14
BRANCH  18  19
ATOM     19  N   UNL     1      -2.148   2.847  24.727  0.00  0.00    -0.268 NA
ATOM     20  C   UNL     1      -2.032   3.055  23.936  0.00  0.00    +0.090 C 
BRANCH  19  21
ATOM     21  C   UNL     1      -2.906   2.869  25.052  0.00  0.00    +0.079 C 
BRANCH  21  22
ATOM     22  C   UNL     1      -3.553   3.054  24.575  0.00  0.00    +0.063 C 
BRANCH  22  23
ATOM     23  C   UNL     1      -4.319   2.957  24.864  0.00  0.00    +0.060 A 
ATOM     24  N   UNL     1      -4.631   3.504  25.398  0.00  0.00    -0.248 NA
ATOM     25  C   UNL     1      -5.398   3.406  25.687  0.00  0.00    +0.098 A 
ATOM     26  C   UNL     1      -5.852   2.762  25.442  0.00  0.00    +0.021 A 
ATOM     27  C   UNL     1      -5.540   2.216  24.908  0.00  0.00    +0.003 A 
ATOM     28  C   UNL     1      -4.773   2.314  24.620  0.00  0.00    +0.015 A 
ENDBRANCH  22  23
ENDBRANCH  21  22
ENDBRANCH  19  21
ENDBRANCH  18  19
BRANCH  11  10
ATOM     10  C   UNL     1      -1.540   1.171  24.933  0.00  0.00    +0.148 C 
BRANCH  10   9
ATOM      6  N   UNL     1      -1.841  -0.941  25.394  0.00  0.00    -0.161 NA
ATOM      7  C   UNL     1      -1.819  -0.230  24.978  0.00  0.00    +0.344 C 
ATOM      8  O   UNL     1      -2.055  -0.208  24.186  0.00  0.00    -0.249 OA
ATOM      9  N   UNL     1      -1.561   0.460  25.350  0.00  0.00    -0.184 NA
BRANCH   6   5
ATOM      3  C   UNL     1      -3.161  -2.492  24.613  0.00  0.00    +0.140 A 
ATOM      4  C   UNL     1      -2.904  -1.804  24.985  0.00  0.00    +0.054 A 
ATOM      5  C   UNL     1      -2.098  -1.630  25.022  0.00  0.00    +0.078 A 
ATOM     29  C   UNL     1      -1.549  -2.147  24.685  0.00  0.00    +0.017 A 
ATOM     30  C   UNL     1      -1.807  -2.836  24.313  0.00  0.00    +0.004 A 
ATOM     31  C   UNL     1      -2.612  -3.010  24.276  0.00  0.00    +0.037 A 
BRANCH   3   2
ATOM      1  C   UNL     1      -4.371  -2.601  23.861  0.00  0.00    +0.252 C 
ATOM      2  O   UNL     1      -3.967  -2.666  24.576  0.00  0.00    -0.471 OA
ENDBRANCH   3   2
ENDBRANCH   6   5
ENDBRANCH  10   9
ENDBRANCH  11  10
TORSDOF 9
ENDMDL
MODEL 4
REMARK VINA RESULT:      -8.9      1.596      4.746
REMARK  Name = 
REMARK  9 active torsions:
REMARK  status: ('A' for Active; 'I' for Inactive)
REMARK    1  A    between atoms: O_2  and  C_3
REMARK    2  A    between atoms: C_5  and  N_6
REMARK    3  A    between atoms: N_9  and  C_10
REMARK    4  A    between atoms: C_10  and  C_11
REMARK    5  A    between atoms: C_13  and  C_14
REMARK    6  A    between atoms: C_18  and  N_19
REMARK    7  A    between atoms: N_19  and  C_21
REMARK    8  A    between atoms: C_21  and  C_22
REMARK    9  A    between atoms: C_22  and  C_23
REMARK                            x       y       z     vdW  Elec       q    Type
REMARK                         _______ _______ _______ _____ _____    ______ ____
ROOT
ATOM     11  C   UNL     1      -3.342  -1.108  24.812  0.00  0.00    +0.154 C 
ATOM     12  O   UNL     1      -3.929  -1.609  24.519  0.00  0.00    -0.350 OA
ATOM     13  C   UNL     1      -3.580  -2.336  24.347  0.00  0.00    +0.180 C 
ATOM     16  C   UNL     1      -2.777  -2.285  24.534  0.00  0.00    +0.198 C 
ATOM     17  O   UNL     1      -2.221  -2.887  24.449  0.00  0.00    -0.219 OA
ATOM     18  C   UNL     1      -2.631  -1.526  24.821  0.00  0.00    +0.120 C 
ENDROOT
BRANCH  13  14
ATOM     14  C   UNL     1      -3.966  -2.999  24.042  0.00  0.00    +0.214 C 
ATOM     15  O   UNL     1      -4.661  -2.909  23.608  0.00  0.00    -0.218 OA
ENDBRANCH  13  14
BRANCH  18  19
ATOM     19  N   UNL     1      -1.901  -1.235  25.074  0.00  0.00    -0.268 NA
ATOM     20  C   UNL     1      -1.680  -1.308  25.865  0.00  0.00    +0.090 C 
BRANCH  19  21
ATOM     21  C   UNL     1      -1.393  -0.872  24.535  0.00  0.00    +0.079 C 
BRANCH  21  22
ATOM     22  C   UNL     1      -0.660  -0.588  24.787  0.00  0.00    +0.063 C 
BRANCH  22  23
ATOM     23  C   UNL     1      -0.182  -0.162  24.267  0.00  0.00    +0.060 A 
ATOM     24  N   UNL     1       0.270  -0.561  23.703  0.00  0.00    -0.248 NA
ATOM     25  C   UNL     1       0.749  -0.135  23.183  0.00  0.00    +0.098 A 
ATOM     26  C   UNL     1       0.776   0.688  23.227  0.00  0.00    +0.021 A 
ATOM     27  C   UNL     1       0.324   1.086  23.792  0.00  0.00    +0.003 A 
ATOM     28  C   UNL     1      -0.154   0.660  24.311  0.00  0.00    +0.015 A 
ENDBRANCH  22  23
ENDBRANCH  21  22
ENDBRANCH  19  21
ENDBRANCH  18  19
BRANCH  11  10
ATOM     10  C   UNL     1      -3.449  -0.326  25.053  0.00  0.00    +0.148 C 
BRANCH  10   9
ATOM      6  N   UNL     1      -4.816   1.338  24.701  0.00  0.00    -0.161 NA
ATOM      7  C   UNL     1      -4.179   0.901  24.988  0.00  0.00    +0.344 C 
ATOM      8  O   UNL     1      -3.634   1.252  25.499  0.00  0.00    -0.249 OA
ATOM      9  N   UNL     1      -4.086   0.111  24.766  0.00  0.00    -0.184 NA
BRANCH   6   5
ATOM      3  C   UNL     1      -4.566   3.505  24.768  0.00  0.00    +0.140 A 
ATOM      4  C   UNL     1      -4.473   2.716  24.546  0.00  0.00    +0.054 A 
ATOM      5  C   UNL     1      -4.909   2.126  24.923  0.00  0.00    +0.078 A 
ATOM     29  C   UNL     1      -5.439   2.326  25.524  0.00  0.00    +0.017 A 
ATOM     30  C   UNL     1      -5.532   3.115  25.746  0.00  0.00    +0.004 A 
ATOM     31  C   UNL     1      -5.096   3.705  25.369  0.00  0.00    +0.037 A 
BRANCH   3   2
ATOM      1  C   UNL     1      -3.430   4.372  24.729  0.00  0.00    +0.252 C 
ATOM      2  O   UNL     1      -4.129   4.095  24.391  0.00  0.00    -0.471 OA
ENDBRANCH   3   2
ENDBRANCH   6   5
ENDBRANCH  10   9
ENDBRANCH  11  10
TORSDOF 9
ENDMDL
