REMARK  Name = 
REMARK  5 active torsions:
REMARK  status: ('A' for Active; 'I' for Inactive)
REMARK    1  A    between atoms: C_4  and  C_15
REMARK    2  A    between atoms: C_6  and  C_8
REMARK    3  A    between atoms: C_22  and  C_23
REMARK    4  A    between atoms: C_23  and  N_24
REMARK    5  A    between atoms: N_27  and  C_28
REMARK                            x       y       z     vdW  Elec       q    Type
REMARK                         _______ _______ _______ _____ _____    ______ ____
ROOT
ATOM     15  C   UNL     1       1.661  -1.343   0.000  0.00  0.00    +0.056 C 
ATOM     16  C   UNL     1       1.814  -2.106   0.000  0.00  0.00    +0.078 C 
ATOM     17  N   UNL     1       1.065  -1.759   0.000  0.00  0.00    -0.272 NA
ATOM     18  C   UNL     1       1.205  -0.720   0.000  0.00  0.00    +0.072 C 
ATOM     19  C   UNL     1       0.961  -0.114   0.000  0.00  0.00    +0.018 C 
ATOM     20  C   UNL     1       0.923  -1.010   0.000  0.00  0.00    +0.010 C 
ATOM     21  C   UNL     1       0.119  -1.362   0.000  0.00  0.00    +0.018 C 
ATOM     22  C   UNL     1       0.226  -2.118   0.000  0.00  0.00    +0.079 C 
ENDROOT
BRANCH  15   4
ATOM      1  C   UNL     1       4.488  -0.918   0.000  0.00  0.00    +0.074 C 
ATOM      2  C   UNL     1       3.720  -0.616   0.000  0.00  0.00    +0.139 A 
ATOM      3  N   UNL     1       3.075  -1.130   0.000  0.00  0.00    -0.235 NA
ATOM      4  C   UNL     1       2.307  -0.828   0.000  0.00  0.00    +0.063 A 
ATOM      5  C   UNL     1       2.184  -0.013   0.000  0.00  0.00    +0.034 A 
ATOM      6  C   UNL     1       2.829   0.501   0.000  0.00  0.00    +0.084 A 
ATOM      7  N   UNL     1       3.597   0.200   0.000  0.00  0.00    -0.231 NA
BRANCH   6   8
ATOM      8  C   UNL     1       2.707   1.317   0.000  0.00  0.00    +0.024 A 
ATOM      9  C   UNL     1       1.939   1.619   0.000  0.00  0.00    +0.036 A 
ATOM     10 BR   UNL     1       1.294   1.105   0.000  0.00  0.00    -0.049 Br
ATOM     11  C   UNL     1       1.816   2.435   0.000  0.00  0.00    +0.007 A 
ATOM     12  C   UNL     1       2.462   2.949   0.000  0.00  0.00    +0.001 A 
ATOM     13  C   UNL     1       3.229   2.647   0.000  0.00  0.00    +0.000 A 
ATOM     14  C   UNL     1       3.352   1.831   0.000  0.00  0.00    +0.002 A 
ENDBRANCH   6   8
ENDBRANCH  15   4
BRANCH  22  23
ATOM     23  C   UNL     1      -0.179  -2.836   0.000  0.00  0.00    +0.133 C 
BRANCH  23  24
ATOM     24  N   UNL     1       0.241  -3.546   0.000  0.00  0.00    -0.185 NA
ATOM     25  C   UNL     1      -0.163  -4.265   0.000  0.00  0.00    +0.344 C 
ATOM     26  O   UNL     1      -0.988  -4.274   0.000  0.00  0.00    -0.249 OA
ATOM     27  N   UNL     1       0.257  -4.975   0.000  0.00  0.00    -0.161 NA
BRANCH  27  28
ATOM     28  C   UNL     1      -0.148  -5.694   0.000  0.00  0.00    +0.075 A 
ATOM     29  C   UNL     1       0.272  -6.404   0.000  0.00  0.00    +0.017 A 
ATOM     30  C   UNL     1      -0.133  -7.123   0.000  0.00  0.00    +0.001 A 
ATOM     31  C   UNL     1      -0.958  -7.132   0.000  0.00  0.00    +0.000 A 
ATOM     32  C   UNL     1      -1.378  -6.422   0.000  0.00  0.00    +0.001 A 
ATOM     33  C   UNL     1      -0.973  -5.703   0.000  0.00  0.00    +0.017 A 
ENDBRANCH  27  28
ENDBRANCH  23  24
ENDBRANCH  22  23
TORSDOF 5
