MODEL 1
REMARK VINA RESULT:     -12.6      0.000      0.000
REMARK  Name = 
REMARK  5 active torsions:
REMARK  status: ('A' for Active; 'I' for Inactive)
REMARK    1  A    between atoms: C_3  and  C_4
REMARK    2  A    between atoms: C_4  and  N_5
REMARK    3  A    between atoms: C_6  and  C_8
REMARK    4  A    between atoms: C_16  and  N_17
REMARK    5  A    between atoms: N_17  and  C_18
REMARK                            x       y       z     vdW  Elec       q    Type
REMARK                         _______ _______ _______ _____ _____    ______ ____
ROOT
ATOM      1  O   UNL     1      -4.935   1.288  25.424  0.00  0.00    -0.219 OA
ATOM      2  C   UNL     1      -4.279   1.142  24.946  0.00  0.00    +0.199 C 
ATOM      3  C   UNL     1      -3.673   1.676  24.778  0.00  0.00    +0.169 C 
ATOM     14  O   UNL     1      -3.132   1.301  24.280  0.00  0.00    -0.350 OA
ATOM     15  C   UNL     1      -3.404   0.535  24.140  0.00  0.00    +0.162 C 
ATOM     16  C   UNL     1      -4.113   0.436  24.552  0.00  0.00    +0.135 C 
ENDROOT
BRANCH   3   4
ATOM      4  C   UNL     1      -3.617   2.450  25.059  0.00  0.00    +0.148 C 
BRANCH   4   5
ATOM      5  N   UNL     1      -2.921   2.879  24.951  0.00  0.00    -0.199 NA
ATOM      6  C   UNL     1      -2.809   3.591  25.352  0.00  0.00    +0.265 C 
ATOM      7  O   UNL     1      -3.394   3.875  25.861  0.00  0.00    -0.268 OA
BRANCH   6   8
ATOM      8  C   UNL     1      -2.113   4.021  25.244  0.00  0.00    +0.055 A 
ATOM      9  C   UNL     1      -2.145   4.837  25.129  0.00  0.00    +0.005 A 
ATOM     10  C   UNL     1      -1.448   5.266  25.021  0.00  0.00    +0.000 A 
ATOM     11  C   UNL     1      -0.720   4.879  25.029  0.00  0.00    +0.000 A 
ATOM     12  C   UNL     1      -0.688   4.062  25.145  0.00  0.00    +0.000 A 
ATOM     13  C   UNL     1      -1.384   3.633  25.253  0.00  0.00    +0.005 A 
ENDBRANCH   6   8
ENDBRANCH   4   5
ENDBRANCH   3   4
BRANCH  16  17
ATOM     17  N   UNL     1      -4.574  -0.247  24.567  0.00  0.00    -0.216 NA
BRANCH  17  18
ATOM     18  C   UNL     1      -4.213  -0.988  24.588  0.00  0.00    +0.073 C 
ATOM     19  C   UNL     1      -3.832  -1.243  25.274  0.00  0.00    +0.023 C 
ATOM     20  C   UNL     1      -3.471  -1.984  25.295  0.00  0.00    +0.068 C 
ATOM     21  C   UNL     1      -3.492  -2.472  24.630  0.00  0.00    +0.264 C 
ATOM     22  F   UNL     1      -3.066  -2.953  25.148  0.00  0.00    -0.204 F 
ATOM     23  F   UNL     1      -3.364  -3.126  24.145  0.00  0.00    -0.204 F 
ATOM     24  C   UNL     1      -3.873  -2.218  23.944  0.00  0.00    +0.068 C 
ATOM     25  C   UNL     1      -4.233  -1.476  23.923  0.00  0.00    +0.023 C 
ENDBRANCH  17  18
ENDBRANCH  16  17
TORSDOF 5
ENDMDL
MODEL 2
REMARK VINA RESULT:     -12.0      1.772      2.109
REMARK  Name = 
REMARK  5 active torsions:
REMARK  status: ('A' for Active; 'I' for Inactive)
REMARK    1  A    between atoms: C_3  and  C_4
REMARK    2  A    between atoms: C_4  and  N_5
REMARK    3  A    between atoms: C_6  and  C_8
REMARK    4  A    between atoms: C_16  and  N_17
REMARK    5  A    between atoms: N_17  and  C_18
REMARK                            x       y       z     vdW  Elec       q    Type
REMARK                         _______ _______ _______ _____ _____    ______ ____
ROOT
ATOM      1  O   UNL     1      -1.243  -0.153  26.382  0.00  0.00    -0.219 OA
ATOM      2  C   UNL     1      -1.374  -0.042  25.575  0.00  0.00    +0.199 C 
ATOM      3  C   UNL     1      -1.156   0.620  25.135  0.00  0.00    +0.169 C 
ATOM     14  O   UNL     1      -1.394   0.497  24.354  0.00  0.00    -0.350 OA
ATOM     15  C   UNL     1      -1.759  -0.241  24.312  0.00  0.00    +0.162 C 
ATOM     16  C   UNL     1      -1.747  -0.575  25.067  0.00  0.00    +0.135 C 
ENDROOT
BRANCH   3   4
ATOM      4  C   UNL     1      -0.768   1.288  25.424  0.00  0.00    +0.148 C 
BRANCH   4   5
ATOM      5  N   UNL     1      -1.083   2.039  25.291  0.00  0.00    -0.199 NA
ATOM      6  C   UNL     1      -0.697   2.706  25.582  0.00  0.00    +0.265 C 
ATOM      7  O   UNL     1       0.006   2.624  26.007  0.00  0.00    -0.268 OA
BRANCH   6   8
ATOM      8  C   UNL     1      -1.012   3.457  25.449  0.00  0.00    +0.055 A 
ATOM      9  C   UNL     1      -1.747   3.658  25.763  0.00  0.00    +0.005 A 
ATOM     10  C   UNL     1      -2.062   4.409  25.630  0.00  0.00    +0.000 A 
ATOM     11  C   UNL     1      -1.641   4.959  25.182  0.00  0.00    +0.000 A 
ATOM     12  C   UNL     1      -0.905   4.758  24.867  0.00  0.00    +0.000 A 
ATOM     13  C   UNL     1      -0.591   4.007  25.000  0.00  0.00    +0.005 A 
ENDBRANCH   6   8
ENDBRANCH   4   5
ENDBRANCH   3   4
BRANCH  16  17
ATOM     17  N   UNL     1      -2.054  -1.311  25.277  0.00  0.00    -0.216 NA
BRANCH  17  18
ATOM     18  C   UNL     1      -2.715  -1.610  24.884  0.00  0.00    +0.073 C 
ATOM     19  C   UNL     1      -3.433  -1.205  24.916  0.00  0.00    +0.023 C 
ATOM     20  C   UNL     1      -4.094  -1.505  24.523  0.00  0.00    +0.068 C 
ATOM     21  C   UNL     1      -4.037  -2.209  24.098  0.00  0.00    +0.264 C 
ATOM     22  F   UNL     1      -4.831  -2.027  23.967  0.00  0.00    -0.204 F 
ATOM     23  F   UNL     1      -4.255  -2.850  23.628  0.00  0.00    -0.204 F 
ATOM     24  C   UNL     1      -3.319  -2.615  24.066  0.00  0.00    +0.068 C 
ATOM     25  C   UNL     1      -2.658  -2.315  24.459  0.00  0.00    +0.023 C 
ENDBRANCH  17  18
ENDBRANCH  16  17
TORSDOF 5
ENDMDL
MODEL 3
REMARK VINA RESULT:     -12.0      2.892      5.929
REMARK  Name = 
REMARK  5 active torsions:
REMARK  status: ('A' for Active; 'I' for Inactive)
REMARK    1  A    between atoms: C_3  and  C_4
REMARK    2  A    between atoms: C_4  and  N_5
REMARK    3  A    between atoms: C_6  and  C_8
REMARK    4  A    between atoms: C_16  and  N_17
REMARK    5  A    between atoms: N_17  and  C_18
REMARK                            x       y       z     vdW  Elec       q    Type
REMARK                         _______ _______ _______ _____ _____    ______ ____
ROOT
ATOM      1  O   UNL     1      -0.601   1.074  25.875  0.00  0.00    -0.219 OA
ATOM      2  C   UNL     1      -1.248   1.365  25.453  0.00  0.00    +0.199 C 
ATOM      3  C   UNL     1      -1.730   0.931  24.945  0.00  0.00    +0.169 C 
ATOM     14  O   UNL     1      -2.307   1.439  24.644  0.00  0.00    -0.350 OA
ATOM     15  C   UNL     1      -2.180   2.188  24.967  0.00  0.00    +0.162 C 
ATOM     16  C   UNL     1      -1.526   2.142  25.467  0.00  0.00    +0.135 C 
ENDROOT
BRANCH   3   4
ATOM      4  C   UNL     1      -1.650   0.129  24.767  0.00  0.00    +0.148 C 
BRANCH   4   5
ATOM      5  N   UNL     1      -2.321  -0.340  24.664  0.00  0.00    -0.199 NA
ATOM      6  C   UNL     1      -2.241  -1.140  24.484  0.00  0.00    +0.265 C 
ATOM      7  O   UNL     1      -1.490  -1.473  24.407  0.00  0.00    -0.268 OA
BRANCH   6   8
ATOM      8  C   UNL     1      -2.912  -1.610  24.380  0.00  0.00    +0.055 A 
ATOM      9  C   UNL     1      -3.546  -1.330  23.933  0.00  0.00    +0.005 A 
ATOM     10  C   UNL     1      -4.217  -1.799  23.830  0.00  0.00    +0.000 A 
ATOM     11  C   UNL     1      -4.253  -2.548  24.174  0.00  0.00    +0.000 A 
ATOM     12  C   UNL     1      -3.619  -2.828  24.621  0.00  0.00    +0.000 A 
ATOM     13  C   UNL     1      -2.948  -2.359  24.724  0.00  0.00    +0.005 A 
ENDBRANCH   6   8
ENDBRANCH   4   5
ENDBRANCH   3   4
BRANCH  16  17
ATOM     17  N   UNL     1      -1.206   2.763  25.905  0.00  0.00    -0.216 NA
BRANCH  17  18
ATOM     18  C   UNL     1      -1.218   3.531  25.602  0.00  0.00    +0.073 C 
ATOM     19  C   UNL     1      -1.857   4.027  25.760  0.00  0.00    +0.023 C 
ATOM     20  C   UNL     1      -1.869   4.795  25.457  0.00  0.00    +0.068 C 
ATOM     21  C   UNL     1      -1.241   5.065  24.996  0.00  0.00    +0.264 C 
ATOM     22  F   UNL     1      -1.720   5.737  24.994  0.00  0.00    -0.204 F 
ATOM     23  F   UNL     1      -0.780   5.569  24.534  0.00  0.00    -0.204 F 
ATOM     24  C   UNL     1      -0.601   4.569  24.838  0.00  0.00    +0.068 C 
ATOM     25  C   UNL     1      -0.590   3.802  25.141  0.00  0.00    +0.023 C 
ENDBRANCH  17  18
ENDBRANCH  16  17
TORSDOF 5
ENDMDL
