MODEL 1
REMARK VINA RESULT:     -12.7      0.000      0.000
REMARK  Name = 
REMARK  6 active torsions:
REMARK  status: ('A' for Active; 'I' for Inactive)
REMARK    1  A    between atoms: C_2  and  C_3
REMARK    2  A    between atoms: C_2  and  C_25
REMARK    3  A    between atoms: C_10  and  N_11
REMARK    4  A    between atoms: C_12  and  C_14
REMARK    5  A    between atoms: N_27  and  C_28
REMARK    6  A    between atoms: C_28  and  C_29
REMARK                            x       y       z     vdW  Elec       q    Type
REMARK                         _______ _______ _______ _____ _____    ______ ____
ROOT
ATOM      3  C   UNL     1      -4.323   2.900  24.523  0.00  0.00    +0.039 C 
ATOM      4  C   UNL     1      -4.956   2.916  25.053  0.00  0.00    +0.003 C 
ATOM      5  C   UNL     1      -5.283   2.211  25.327  0.00  0.00    +0.000 C 
ATOM      6  C   UNL     1      -4.979   1.489  25.071  0.00  0.00    +0.002 C 
ATOM      7  C   UNL     1      -5.610   1.505  25.601  0.00  0.00    +0.000 C 
ATOM      8  C   UNL     1      -5.306   0.782  25.345  0.00  0.00    +0.002 C 
ATOM      9  C   UNL     1      -5.001   0.060  25.089  0.00  0.00    +0.022 C 
ATOM     10  C   UNL     1      -4.368   0.043  24.559  0.00  0.00    +0.096 C 
ATOM     20  C   UNL     1      -4.042   0.749  24.285  0.00  0.00    +0.022 C 
ATOM     21  C   UNL     1      -3.409   0.732  23.755  0.00  0.00    +0.002 C 
ATOM     22  C   UNL     1      -4.346   1.472  24.541  0.00  0.00    +0.032 C 
ATOM     23  C   UNL     1      -4.019   2.178  24.267  0.00  0.00    +0.152 C 
ATOM     24  O   UNL     1      -3.387   2.161  23.737  0.00  0.00    -0.223 OA
ENDROOT
BRANCH  10  11
ATOM     11  N   UNL     1      -4.064  -0.680  24.303  0.00  0.00    -0.203 NA
ATOM     12  C   UNL     1      -3.806  -1.237  24.853  0.00  0.00    +0.268 C 
ATOM     13  O   UNL     1      -3.852  -1.071  25.661  0.00  0.00    -0.268 OA
BRANCH  12  14
ATOM     14  C   UNL     1      -3.502  -1.960  24.597  0.00  0.00    +0.093 A 
ATOM     15  C   UNL     1      -4.003  -2.525  24.267  0.00  0.00    +0.107 A 
ATOM     16  N   UNL     1      -3.698  -3.248  24.011  0.00  0.00    -0.222 NA
ATOM     17  C   UNL     1      -2.892  -3.406  24.086  0.00  0.00    +0.199 A 
ATOM     18  N   UNL     1      -2.390  -2.840  24.417  0.00  0.00    -0.222 NA
ATOM     19  C   UNL     1      -2.695  -2.117  24.673  0.00  0.00    +0.107 A 
ENDBRANCH  12  14
ENDBRANCH  10  11
BRANCH   3   2
ATOM      1  C   UNL     1      -4.190   3.888  23.498  0.00  0.00    +0.010 C 
ATOM      2  C   UNL     1      -3.996   3.606  24.249  0.00  0.00    +0.081 C 
BRANCH   2  25
ATOM     25  C   UNL     1      -3.475   4.031  24.727  0.00  0.00    +0.241 C 
ATOM     26  O   UNL     1      -3.760   4.633  25.215  0.00  0.00    -0.273 OA
ATOM     27  N   UNL     1      -2.669   3.855  24.717  0.00  0.00    -0.201 NA
BRANCH  27  28
ATOM     28  C   UNL     1      -2.148   4.280  25.194  0.00  0.00    +0.142 C 
BRANCH  28  29
ATOM     29  C   UNL     1      -1.405   3.970  25.372  0.00  0.00    +0.010 A 
ATOM     30  C   UNL     1      -1.341   3.280  25.820  0.00  0.00    -0.002 A 
ATOM     31  C   UNL     1      -0.597   2.971  25.998  0.00  0.00    -0.000 A 
ATOM     32  C   UNL     1       0.083   3.351  25.727  0.00  0.00    +0.001 A 
ATOM     33  C   UNL     1       0.020   4.041  25.279  0.00  0.00    +0.011 A 
ATOM     34  C   UNL     1      -0.725   4.350  25.101  0.00  0.00    +0.055 A 
ATOM     35 CL   UNL     1      -0.789   5.039  24.653  0.00  0.00    -0.083 Cl
ENDBRANCH  28  29
ENDBRANCH  27  28
ENDBRANCH   2  25
ENDBRANCH   3   2
TORSDOF 6
ENDMDL
MODEL 2
REMARK VINA RESULT:     -11.3      2.691      4.548
REMARK  Name = 
REMARK  6 active torsions:
REMARK  status: ('A' for Active; 'I' for Inactive)
REMARK    1  A    between atoms: C_2  and  C_3
REMARK    2  A    between atoms: C_2  and  C_25
REMARK    3  A    between atoms: C_10  and  N_11
REMARK    4  A    between atoms: C_12  and  C_14
REMARK    5  A    between atoms: N_27  and  C_28
REMARK    6  A    between atoms: C_28  and  C_29
REMARK                            x       y       z     vdW  Elec       q    Type
REMARK                         _______ _______ _______ _____ _____    ______ ____
ROOT
ATOM      3  C   UNL     1      -1.799   3.617  25.474  0.00  0.00    +0.039 C 
ATOM      4  C   UNL     1      -1.520   3.487  26.240  0.00  0.00    +0.003 C 
ATOM      5  C   UNL     1      -0.873   2.991  26.364  0.00  0.00    +0.000 C 
ATOM      6  C   UNL     1      -0.504   2.626  25.724  0.00  0.00    +0.002 C 
ATOM      7  C   UNL     1      -0.226   2.496  26.489  0.00  0.00    +0.000 C 
ATOM      8  C   UNL     1       0.143   2.130  25.848  0.00  0.00    +0.002 C 
ATOM      9  C   UNL     1       0.512   1.764  25.207  0.00  0.00    +0.022 C 
ATOM     10  C   UNL     1       0.233   1.895  24.441  0.00  0.00    +0.096 C 
ATOM     20  C   UNL     1      -0.414   2.390  24.317  0.00  0.00    +0.022 C 
ATOM     21  C   UNL     1      -0.693   2.521  23.551  0.00  0.00    +0.002 C 
ATOM     22  C   UNL     1      -0.783   2.756  24.958  0.00  0.00    +0.032 C 
ATOM     23  C   UNL     1      -1.430   3.252  24.833  0.00  0.00    +0.152 C 
ATOM     24  O   UNL     1      -1.709   3.382  24.068  0.00  0.00    -0.223 OA
ENDROOT
BRANCH  10  11
ATOM     11  N   UNL     1       0.602   1.529  23.800  0.00  0.00    -0.203 NA
ATOM     12  C   UNL     1       0.695   0.710  23.790  0.00  0.00    +0.268 C 
ATOM     13  O   UNL     1       0.419   0.255  24.422  0.00  0.00    -0.268 OA
BRANCH  12  14
ATOM     14  C   UNL     1       1.065   0.343  23.149  0.00  0.00    +0.093 A 
ATOM     15  C   UNL     1       1.874   0.441  23.029  0.00  0.00    +0.107 A 
ATOM     16  N   UNL     1       2.244   0.074  22.388  0.00  0.00    -0.222 NA
ATOM     17  C   UNL     1       1.802  -0.389  21.868  0.00  0.00    +0.199 A 
ATOM     18  N   UNL     1       0.991  -0.486  21.988  0.00  0.00    -0.222 NA
ATOM     19  C   UNL     1       0.623  -0.120  22.629  0.00  0.00    +0.107 A 
ENDBRANCH  12  14
ENDBRANCH  10  11
BRANCH   3   2
ATOM      1  C   UNL     1      -2.374   4.774  24.861  0.00  0.00    +0.010 C 
ATOM      2  C   UNL     1      -2.446   4.114  25.350  0.00  0.00    +0.081 C 
BRANCH   2  25
ATOM     25  C   UNL     1      -3.167   3.949  25.716  0.00  0.00    +0.241 C 
ATOM     26  O   UNL     1      -3.344   4.285  26.450  0.00  0.00    -0.273 OA
ATOM     27  N   UNL     1      -3.712   3.449  25.349  0.00  0.00    -0.201 NA
BRANCH  27  28
ATOM     28  C   UNL     1      -4.432   3.285  25.715  0.00  0.00    +0.142 C 
BRANCH  28  29
ATOM     29  C   UNL     1      -4.904   2.667  25.439  0.00  0.00    +0.010 A 
ATOM     30  C   UNL     1      -4.556   1.966  25.178  0.00  0.00    -0.002 A 
ATOM     31  C   UNL     1      -5.028   1.349  24.903  0.00  0.00    -0.000 A 
ATOM     32  C   UNL     1      -5.849   1.432  24.888  0.00  0.00    +0.001 A 
ATOM     33  C   UNL     1      -6.197   2.133  25.149  0.00  0.00    +0.011 A 
ATOM     34  C   UNL     1      -5.725   2.751  25.425  0.00  0.00    +0.055 A 
ATOM     35 CL   UNL     1      -6.072   3.451  25.685  0.00  0.00    -0.083 Cl
ENDBRANCH  28  29
ENDBRANCH  27  28
ENDBRANCH   2  25
ENDBRANCH   3   2
TORSDOF 6
ENDMDL
MODEL 3
REMARK VINA RESULT:     -11.2      1.841      5.196
REMARK  Name = 
REMARK  6 active torsions:
REMARK  status: ('A' for Active; 'I' for Inactive)
REMARK    1  A    between atoms: C_2  and  C_3
REMARK    2  A    between atoms: C_2  and  C_25
REMARK    3  A    between atoms: C_10  and  N_11
REMARK    4  A    between atoms: C_12  and  C_14
REMARK    5  A    between atoms: N_27  and  C_28
REMARK    6  A    between atoms: C_28  and  C_29
REMARK                            x       y       z     vdW  Elec       q    Type
REMARK                         _______ _______ _______ _____ _____    ______ ____
ROOT
ATOM      3  C   UNL     1      -4.269   0.364  24.444  0.00  0.00    +0.039 C 
ATOM      4  C   UNL     1      -4.931   0.522  24.912  0.00  0.00    +0.003 C 
ATOM      5  C   UNL     1      -5.038   1.273  25.234  0.00  0.00    +0.000 C 
ATOM      6  C   UNL     1      -4.484   1.867  25.089  0.00  0.00    +0.002 C 
ATOM      7  C   UNL     1      -5.145   2.025  25.556  0.00  0.00    +0.000 C 
ATOM      8  C   UNL     1      -4.591   2.619  25.411  0.00  0.00    +0.002 C 
ATOM      9  C   UNL     1      -4.038   3.213  25.266  0.00  0.00    +0.022 C 
ATOM     10  C   UNL     1      -3.376   3.055  24.799  0.00  0.00    +0.096 C 
ATOM     20  C   UNL     1      -3.269   2.303  24.477  0.00  0.00    +0.022 C 
ATOM     21  C   UNL     1      -2.607   2.145  24.009  0.00  0.00    +0.002 C 
ATOM     22  C   UNL     1      -3.822   1.709  24.621  0.00  0.00    +0.032 C 
ATOM     23  C   UNL     1      -3.715   0.958  24.300  0.00  0.00    +0.152 C 
ATOM     24  O   UNL     1      -3.054   0.800  23.832  0.00  0.00    -0.223 OA
ENDROOT
BRANCH  10  11
ATOM     11  N   UNL     1      -2.822   3.649  24.654  0.00  0.00    -0.203 NA
ATOM     12  C   UNL     1      -2.414   3.995  25.281  0.00  0.00    +0.268 C 
ATOM     13  O   UNL     1      -2.560   3.747  26.055  0.00  0.00    -0.268 OA
BRANCH  12  14
ATOM     14  C   UNL     1      -1.860   4.590  25.136  0.00  0.00    +0.093 A 
ATOM     15  C   UNL     1      -2.093   5.381  25.140  0.00  0.00    +0.107 A 
ATOM     16  N   UNL     1      -1.540   5.975  24.995  0.00  0.00    -0.222 NA
ATOM     17  C   UNL     1      -0.752   5.778  24.847  0.00  0.00    +0.199 A 
ATOM     18  N   UNL     1      -0.519   4.986  24.844  0.00  0.00    -0.222 NA
ATOM     19  C   UNL     1      -1.073   4.392  24.988  0.00  0.00    +0.107 A 
ENDBRANCH  12  14
ENDBRANCH  10  11
BRANCH   3   2
ATOM      1  C   UNL     1      -4.382  -0.539  23.342  0.00  0.00    +0.010 C 
ATOM      2  C   UNL     1      -4.162  -0.388  24.122  0.00  0.00    +0.081 C 
BRANCH   2  25
ATOM     25  C   UNL     1      -3.834  -0.990  24.582  0.00  0.00    +0.241 C 
ATOM     26  O   UNL     1      -4.304  -1.397  25.125  0.00  0.00    -0.273 OA
ATOM     27  N   UNL     1      -3.037  -1.186  24.499  0.00  0.00    -0.201 NA
BRANCH  27  28
ATOM     28  C   UNL     1      -2.709  -1.787  24.957  0.00  0.00    +0.142 C 
BRANCH  28  29
ATOM     29  C   UNL     1      -1.892  -1.835  25.053  0.00  0.00    +0.010 A 
ATOM     30  C   UNL     1      -1.497  -1.279  25.517  0.00  0.00    -0.002 A 
ATOM     31  C   UNL     1      -0.679  -1.328  25.612  0.00  0.00    -0.000 A 
ATOM     32  C   UNL     1      -0.255  -1.933  25.243  0.00  0.00    +0.001 A 
ATOM     33  C   UNL     1      -0.651  -2.489  24.779  0.00  0.00    +0.011 A 
ATOM     34  C   UNL     1      -1.469  -2.440  24.684  0.00  0.00    +0.055 A 
ATOM     35 CL   UNL     1      -1.864  -2.995  24.220  0.00  0.00    -0.083 Cl
ENDBRANCH  28  29
ENDBRANCH  27  28
ENDBRANCH   2  25
ENDBRANCH   3   2
TORSDOF 6
ENDMDL
MODEL 4
REMARK VINA RESULT:     -11.0      3.060      4.666
REMARK  Name = 
REMARK  6 active torsions:
REMARK  status: ('A' for Active; 'I' for Inactive)
REMARK    1  A    between atoms: C_2  and  C_3
REMARK    2  A    between atoms: C_2  and  C_25
REMARK    3  A    between atoms: C_10  and  N_11
REMARK    4  A    between atoms: C_12  and  C_14
REMARK    5  A    between atoms: N_27  and  C_28
REMARK    6  A    between atoms: C_28  and  C_29
REMARK                            x       y       z     vdW  Elec       q    Type
REMARK                         _______ _______ _______ _____ _____    ______ ____
ROOT
ATOM      3  C   UNL     1      -3.163  -0.251  24.639  0.00  0.00    +0.039 C 
ATOM      4  C   UNL     1      -3.041  -0.791  25.252  0.00  0.00    +0.003 C 
ATOM      5  C   UNL     1      -2.275  -1.015  25.458  0.00  0.00    +0.000 C 
ATOM      6  C   UNL     1      -1.630  -0.700  25.051  0.00  0.00    +0.002 C 
ATOM      7  C   UNL     1      -1.508  -1.238  25.663  0.00  0.00    +0.000 C 
ATOM      8  C   UNL     1      -0.863  -0.923  25.256  0.00  0.00    +0.002 C 
ATOM      9  C   UNL     1      -0.218  -0.608  24.850  0.00  0.00    +0.022 C 
ATOM     10  C   UNL     1      -0.341  -0.068  24.237  0.00  0.00    +0.096 C 
ATOM     20  C   UNL     1      -1.107   0.156  24.032  0.00  0.00    +0.022 C 
ATOM     21  C   UNL     1      -1.229   0.695  23.420  0.00  0.00    +0.002 C 
ATOM     22  C   UNL     1      -1.753  -0.160  24.438  0.00  0.00    +0.032 C 
ATOM     23  C   UNL     1      -2.519   0.064  24.233  0.00  0.00    +0.152 C 
ATOM     24  O   UNL     1      -2.641   0.604  23.621  0.00  0.00    -0.223 OA
ENDROOT
BRANCH  10  11
ATOM     11  N   UNL     1       0.305   0.247  23.831  0.00  0.00    -0.203 NA
ATOM     12  C   UNL     1       0.915  -0.246  23.580  0.00  0.00    +0.268 C 
ATOM     13  O   UNL     1       0.881  -1.057  23.734  0.00  0.00    -0.268 OA
BRANCH  12  14
ATOM     14  C   UNL     1       1.561   0.069  23.173  0.00  0.00    +0.093 A 
ATOM     15  C   UNL     1       1.975   0.708  23.489  0.00  0.00    +0.107 A 
ATOM     16  N   UNL     1       2.621   1.023  23.082  0.00  0.00    -0.222 NA
ATOM     17  C   UNL     1       2.851   0.698  22.360  0.00  0.00    +0.199 A 
ATOM     18  N   UNL     1       2.436   0.058  22.043  0.00  0.00    -0.222 NA
ATOM     19  C   UNL     1       1.791  -0.256  22.451  0.00  0.00    +0.107 A 
ENDBRANCH  12  14
ENDBRANCH  10  11
BRANCH   3   2
ATOM      1  C   UNL     1      -4.242  -0.242  23.701  0.00  0.00    +0.010 C 
ATOM      2  C   UNL     1      -3.931  -0.027  24.434  0.00  0.00    +0.081 C 
BRANCH   2  25
ATOM     25  C   UNL     1      -4.387   0.412  24.963  0.00  0.00    +0.241 C 
ATOM     26  O   UNL     1      -4.741   0.040  25.610  0.00  0.00    -0.273 OA
ATOM     27  N   UNL     1      -4.490   1.223  24.846  0.00  0.00    -0.201 NA
BRANCH  27  28
ATOM     28  C   UNL     1      -4.945   1.661  25.374  0.00  0.00    +0.142 C 
BRANCH  28  29
ATOM     29  C   UNL     1      -4.930   2.485  25.348  0.00  0.00    +0.010 A 
ATOM     30  C   UNL     1      -4.295   2.875  24.992  0.00  0.00    -0.002 A 
ATOM     31  C   UNL     1      -4.280   3.699  24.966  0.00  0.00    -0.000 A 
ATOM     32  C   UNL     1      -4.899   4.134  25.296  0.00  0.00    +0.001 A 
ATOM     33  C   UNL     1      -5.533   3.745  25.652  0.00  0.00    +0.011 A 
ATOM     34  C   UNL     1      -5.549   2.919  25.678  0.00  0.00    +0.055 A 
ATOM     35 CL   UNL     1      -6.182   2.530  26.033  0.00  0.00    -0.083 Cl
ENDBRANCH  28  29
ENDBRANCH  27  28
ENDBRANCH   2  25
ENDBRANCH   3   2
TORSDOF 6
ENDMDL
MODEL 5
REMARK VINA RESULT:     -10.9      2.593      6.360
REMARK  Name = 
REMARK  6 active torsions:
REMARK  status: ('A' for Active; 'I' for Inactive)
REMARK    1  A    between atoms: C_2  and  C_3
REMARK    2  A    between atoms: C_2  and  C_25
REMARK    3  A    between atoms: C_10  and  N_11
REMARK    4  A    between atoms: C_12  and  C_14
REMARK    5  A    between atoms: N_27  and  C_28
REMARK    6  A    between atoms: C_28  and  C_29
REMARK                            x       y       z     vdW  Elec       q    Type
REMARK                         _______ _______ _______ _____ _____    ______ ____
ROOT
ATOM      3  C   UNL     1      -0.493  -0.794  24.864  0.00  0.00    +0.039 C 
ATOM      4  C   UNL     1      -0.046  -0.861  24.172  0.00  0.00    +0.003 C 
ATOM      5  C   UNL     1       0.199  -0.184  23.773  0.00  0.00    +0.000 C 
ATOM      6  C   UNL     1      -0.001   0.562  24.062  0.00  0.00    +0.002 C 
ATOM      7  C   UNL     1       0.445   0.494  23.373  0.00  0.00    +0.000 C 
ATOM      8  C   UNL     1       0.245   1.240  23.662  0.00  0.00    +0.002 C 
ATOM      9  C   UNL     1       0.045   1.986  23.952  0.00  0.00    +0.022 C 
ATOM     10  C   UNL     1      -0.402   2.053  24.644  0.00  0.00    +0.096 C 
ATOM     20  C   UNL     1      -0.648   1.376  25.043  0.00  0.00    +0.022 C 
ATOM     21  C   UNL     1      -1.094   1.443  25.734  0.00  0.00    +0.002 C 
ATOM     22  C   UNL     1      -0.448   0.629  24.754  0.00  0.00    +0.032 C 
ATOM     23  C   UNL     1      -0.693  -0.048  25.154  0.00  0.00    +0.152 C 
ATOM     24  O   UNL     1      -1.140   0.019  25.844  0.00  0.00    -0.223 OA
ENDROOT
BRANCH  10  11
ATOM     11  N   UNL     1      -0.602   2.800  24.933  0.00  0.00    -0.203 NA
ATOM     12  C   UNL     1      -1.020   3.329  24.459  0.00  0.00    +0.268 C 
ATOM     13  O   UNL     1      -1.239   3.111  23.693  0.00  0.00    -0.268 OA
BRANCH  12  14
ATOM     14  C   UNL     1      -1.220   4.075  24.749  0.00  0.00    +0.093 A 
ATOM     15  C   UNL     1      -1.946   4.192  25.121  0.00  0.00    +0.107 A 
ATOM     16  N   UNL     1      -2.146   4.938  25.411  0.00  0.00    -0.222 NA
ATOM     17  C   UNL     1      -1.619   5.568  25.328  0.00  0.00    +0.199 A 
ATOM     18  N   UNL     1      -0.892   5.450  24.954  0.00  0.00    -0.222 NA
ATOM     19  C   UNL     1      -0.693   4.704  24.665  0.00  0.00    +0.107 A 
ENDBRANCH  12  14
ENDBRANCH  10  11
BRANCH   3   2
ATOM      1  C   UNL     1      -0.478  -1.617  26.033  0.00  0.00    +0.010 C 
ATOM      2  C   UNL     1      -0.739  -1.472  25.264  0.00  0.00    +0.081 C 
BRANCH   2  25
ATOM     25  C   UNL     1      -1.247  -2.007  24.894  0.00  0.00    +0.241 C 
ATOM     26  O   UNL     1      -0.943  -2.690  24.543  0.00  0.00    -0.273 OA
ATOM     27  N   UNL     1      -2.059  -1.860  24.874  0.00  0.00    -0.201 NA
BRANCH  27  28
ATOM     28  C   UNL     1      -2.566  -2.394  24.504  0.00  0.00    +0.142 C 
BRANCH  28  29
ATOM     29  C   UNL     1      -3.323  -2.157  24.279  0.00  0.00    +0.010 A 
ATOM     30  C   UNL     1      -3.512  -1.354  24.248  0.00  0.00    -0.002 A 
ATOM     31  C   UNL     1      -4.269  -1.118  24.023  0.00  0.00    -0.000 A 
ATOM     32  C   UNL     1      -4.838  -1.683  23.828  0.00  0.00    +0.001 A 
ATOM     33  C   UNL     1      -4.648  -2.485  23.859  0.00  0.00    +0.011 A 
ATOM     34  C   UNL     1      -3.890  -2.723  24.084  0.00  0.00    +0.055 A 
ATOM     35 CL   UNL     1      -3.701  -3.524  24.115  0.00  0.00    -0.083 Cl
ENDBRANCH  28  29
ENDBRANCH  27  28
ENDBRANCH   2  25
ENDBRANCH   3   2
TORSDOF 6
ENDMDL
MODEL 6
REMARK VINA RESULT:     -10.8      2.940      5.028
REMARK  Name = 
REMARK  6 active torsions:
REMARK  status: ('A' for Active; 'I' for Inactive)
REMARK    1  A    between atoms: C_2  and  C_3
REMARK    2  A    between atoms: C_2  and  C_25
REMARK    3  A    between atoms: C_10  and  N_11
REMARK    4  A    between atoms: C_12  and  C_14
REMARK    5  A    between atoms: N_27  and  C_28
REMARK    6  A    between atoms: C_28  and  C_29
REMARK                            x       y       z     vdW  Elec       q    Type
REMARK                         _______ _______ _______ _____ _____    ______ ____
ROOT
ATOM      3  C   UNL     1      -2.812   2.087  24.593  0.00  0.00    +0.039 C 
ATOM      4  C   UNL     1      -2.629   2.517  25.274  0.00  0.00    +0.003 C 
ATOM      5  C   UNL     1      -1.842   2.674  25.463  0.00  0.00    +0.000 C 
ATOM      6  C   UNL     1      -1.238   2.402  24.973  0.00  0.00    +0.002 C 
ATOM      7  C   UNL     1      -1.055   2.832  25.652  0.00  0.00    +0.000 C 
ATOM      8  C   UNL     1      -0.450   2.560  25.162  0.00  0.00    +0.002 C 
ATOM      9  C   UNL     1       0.155   2.288  24.671  0.00  0.00    +0.022 C 
ATOM     10  C   UNL     1      -0.028   1.857  23.991  0.00  0.00    +0.096 C 
ATOM     20  C   UNL     1      -0.815   1.700  23.801  0.00  0.00    +0.022 C 
ATOM     21  C   UNL     1      -0.998   1.270  23.121  0.00  0.00    +0.002 C 
ATOM     22  C   UNL     1      -1.420   1.972  24.292  0.00  0.00    +0.032 C 
ATOM     23  C   UNL     1      -2.207   1.815  24.103  0.00  0.00    +0.152 C 
ATOM     24  O   UNL     1      -2.390   1.385  23.423  0.00  0.00    -0.223 OA
ENDROOT
BRANCH  10  11
ATOM     11  N   UNL     1       0.577   1.585  23.500  0.00  0.00    -0.203 NA
ATOM     12  C   UNL     1       1.207   1.160  23.819  0.00  0.00    +0.268 C 
ATOM     13  O   UNL     1       1.233   1.006  24.630  0.00  0.00    -0.268 OA
BRANCH  12  14
ATOM     14  C   UNL     1       1.813   0.888  23.328  0.00  0.00    +0.093 A 
ATOM     15  C   UNL     1       1.709   0.200  22.887  0.00  0.00    +0.107 A 
ATOM     16  N   UNL     1       2.314  -0.072  22.397  0.00  0.00    -0.222 NA
ATOM     17  C   UNL     1       3.024   0.345  22.348  0.00  0.00    +0.199 A 
ATOM     18  N   UNL     1       3.128   1.035  22.790  0.00  0.00    -0.222 NA
ATOM     19  C   UNL     1       2.522   1.306  23.280  0.00  0.00    +0.107 A 
ENDBRANCH  12  14
ENDBRANCH  10  11
BRANCH   3   2
ATOM      1  C   UNL     1      -3.985   2.379  23.829  0.00  0.00    +0.010 C 
ATOM      2  C   UNL     1      -3.599   1.930  24.404  0.00  0.00    +0.081 C 
BRANCH   2  25
ATOM     25  C   UNL     1      -4.002   1.322  24.791  0.00  0.00    +0.241 C 
ATOM     26  O   UNL     1      -4.563   1.502  25.370  0.00  0.00    -0.273 OA
ATOM     27  N   UNL     1      -3.845   0.535  24.599  0.00  0.00    -0.201 NA
BRANCH  27  28
ATOM     28  C   UNL     1      -4.248  -0.072  24.986  0.00  0.00    +0.142 C 
BRANCH  28  29
ATOM     29  C   UNL     1      -4.106  -0.858  24.780  0.00  0.00    +0.010 A 
ATOM     30  C   UNL     1      -4.351  -1.144  24.046  0.00  0.00    -0.002 A 
ATOM     31  C   UNL     1      -4.209  -1.930  23.842  0.00  0.00    -0.000 A 
ATOM     32  C   UNL     1      -3.821  -2.431  24.371  0.00  0.00    +0.001 A 
ATOM     33  C   UNL     1      -3.576  -2.145  25.105  0.00  0.00    +0.011 A 
ATOM     34  C   UNL     1      -3.718  -1.358  25.310  0.00  0.00    +0.055 A 
ATOM     35 CL   UNL     1      -3.473  -1.072  26.043  0.00  0.00    -0.083 Cl
ENDBRANCH  28  29
ENDBRANCH  27  28
ENDBRANCH   2  25
ENDBRANCH   3   2
TORSDOF 6
ENDMDL
MODEL 7
REMARK VINA RESULT:     -10.6      2.301      5.524
REMARK  Name = 
REMARK  6 active torsions:
REMARK  status: ('A' for Active; 'I' for Inactive)
REMARK    1  A    between atoms: C_2  and  C_3
REMARK    2  A    between atoms: C_2  and  C_25
REMARK    3  A    between atoms: C_10  and  N_11
REMARK    4  A    between atoms: C_12  and  C_14
REMARK    5  A    between atoms: N_27  and  C_28
REMARK    6  A    between atoms: C_28  and  C_29
REMARK                            x       y       z     vdW  Elec       q    Type
REMARK                         _______ _______ _______ _____ _____    ______ ____
ROOT
ATOM      3  C   UNL     1      -0.702   1.087  24.454  0.00  0.00    +0.039 C 
ATOM      4  C   UNL     1      -0.170   1.425  24.988  0.00  0.00    +0.003 C 
ATOM      5  C   UNL     1      -0.391   2.086  25.428  0.00  0.00    +0.000 C 
ATOM      6  C   UNL     1      -1.144   2.410  25.335  0.00  0.00    +0.002 C 
ATOM      7  C   UNL     1      -0.613   2.747  25.867  0.00  0.00    +0.000 C 
ATOM      8  C   UNL     1      -1.366   3.072  25.774  0.00  0.00    +0.002 C 
ATOM      9  C   UNL     1      -2.118   3.396  25.681  0.00  0.00    +0.022 C 
ATOM     10  C   UNL     1      -2.650   3.059  25.148  0.00  0.00    +0.096 C 
ATOM     20  C   UNL     1      -2.429   2.397  24.708  0.00  0.00    +0.022 C 
ATOM     21  C   UNL     1      -2.960   2.060  24.175  0.00  0.00    +0.002 C 
ATOM     22  C   UNL     1      -1.676   2.072  24.801  0.00  0.00    +0.032 C 
ATOM     23  C   UNL     1      -1.455   1.411  24.361  0.00  0.00    +0.152 C 
ATOM     24  O   UNL     1      -1.986   1.073  23.828  0.00  0.00    -0.223 OA
ENDROOT
BRANCH  10  11
ATOM     11  N   UNL     1      -3.403   3.383  25.055  0.00  0.00    -0.203 NA
ATOM     12  C   UNL     1      -3.885   3.504  25.713  0.00  0.00    +0.268 C 
ATOM     13  O   UNL     1      -3.614   3.299  26.466  0.00  0.00    -0.268 OA
BRANCH  12  14
ATOM     14  C   UNL     1      -4.637   3.829  25.620  0.00  0.00    +0.093 A 
ATOM     15  C   UNL     1      -4.722   4.608  25.365  0.00  0.00    +0.107 A 
ATOM     16  N   UNL     1      -5.475   4.933  25.272  0.00  0.00    -0.222 NA
ATOM     17  C   UNL     1      -6.143   4.477  25.436  0.00  0.00    +0.199 A 
ATOM     18  N   UNL     1      -6.059   3.697  25.692  0.00  0.00    -0.222 NA
ATOM     19  C   UNL     1      -5.306   3.373  25.784  0.00  0.00    +0.107 A 
ENDBRANCH  12  14
ENDBRANCH  10  11
BRANCH   3   2
ATOM      1  C   UNL     1      -0.220   0.513  23.236  0.00  0.00    +0.010 C 
ATOM      2  C   UNL     1      -0.480   0.425  24.015  0.00  0.00    +0.081 C 
BRANCH   2  25
ATOM     25  C   UNL     1      -0.518  -0.327  24.353  0.00  0.00    +0.241 C 
ATOM     26  O   UNL     1       0.153  -0.657  24.701  0.00  0.00    -0.273 OA
ATOM     27  N   UNL     1      -1.229  -0.748  24.345  0.00  0.00    -0.201 NA
BRANCH  27  28
ATOM     28  C   UNL     1      -1.267  -1.498  24.683  0.00  0.00    +0.142 C 
BRANCH  28  29
ATOM     29  C   UNL     1      -1.998  -1.860  24.805  0.00  0.00    +0.010 A 
ATOM     30  C   UNL     1      -2.554  -1.510  25.303  0.00  0.00    -0.002 A 
ATOM     31  C   UNL     1      -3.285  -1.872  25.424  0.00  0.00    -0.000 A 
ATOM     32  C   UNL     1      -3.460  -2.585  25.047  0.00  0.00    +0.001 A 
ATOM     33  C   UNL     1      -2.904  -2.935  24.548  0.00  0.00    +0.011 A 
ATOM     34  C   UNL     1      -2.172  -2.573  24.427  0.00  0.00    +0.055 A 
ATOM     35 CL   UNL     1      -1.616  -2.922  23.929  0.00  0.00    -0.083 Cl
ENDBRANCH  28  29
ENDBRANCH  27  28
ENDBRANCH   2  25
ENDBRANCH   3   2
TORSDOF 6
ENDMDL
MODEL 8
REMARK VINA RESULT:     -10.5      3.628      5.362
REMARK  Name = 
REMARK  6 active torsions:
REMARK  status: ('A' for Active; 'I' for Inactive)
REMARK    1  A    between atoms: C_2  and  C_3
REMARK    2  A    between atoms: C_2  and  C_25
REMARK    3  A    between atoms: C_10  and  N_11
REMARK    4  A    between atoms: C_12  and  C_14
REMARK    5  A    between atoms: N_27  and  C_28
REMARK    6  A    between atoms: C_28  and  C_29
REMARK                            x       y       z     vdW  Elec       q    Type
REMARK                         _______ _______ _______ _____ _____    ______ ____
ROOT
ATOM      3  C   UNL     1       0.155   0.669  23.914  0.00  0.00    +0.039 C 
ATOM      4  C   UNL     1       0.569   1.374  24.030  0.00  0.00    +0.003 C 
ATOM      5  C   UNL     1       0.175   2.041  24.314  0.00  0.00    +0.000 C 
ATOM      6  C   UNL     1      -0.631   2.003  24.481  0.00  0.00    +0.002 C 
ATOM      7  C   UNL     1      -0.219   2.707  24.597  0.00  0.00    +0.000 C 
ATOM      8  C   UNL     1      -1.026   2.670  24.765  0.00  0.00    +0.002 C 
ATOM      9  C   UNL     1      -1.832   2.633  24.932  0.00  0.00    +0.022 C 
ATOM     10  C   UNL     1      -2.246   1.927  24.816  0.00  0.00    +0.096 C 
ATOM     20  C   UNL     1      -1.852   1.261  24.533  0.00  0.00    +0.022 C 
ATOM     21  C   UNL     1      -2.265   0.556  24.417  0.00  0.00    +0.002 C 
ATOM     22  C   UNL     1      -1.045   1.298  24.365  0.00  0.00    +0.032 C 
ATOM     23  C   UNL     1      -0.651   0.631  24.082  0.00  0.00    +0.152 C 
ATOM     24  O   UNL     1      -1.064  -0.074  23.966  0.00  0.00    -0.223 OA
ENDROOT
BRANCH  10  11
ATOM     11  N   UNL     1      -3.053   1.890  24.984  0.00  0.00    -0.203 NA
ATOM     12  C   UNL     1      -3.534   2.544  24.843  0.00  0.00    +0.268 C 
ATOM     13  O   UNL     1      -3.209   3.238  24.533  0.00  0.00    -0.268 OA
BRANCH  12  14
ATOM     14  C   UNL     1      -4.341   2.507  25.011  0.00  0.00    +0.093 A 
ATOM     15  C   UNL     1      -4.834   2.022  24.563  0.00  0.00    +0.107 A 
ATOM     16  N   UNL     1      -5.642   1.985  24.731  0.00  0.00    -0.222 NA
ATOM     17  C   UNL     1      -5.955   2.434  25.348  0.00  0.00    +0.199 A 
ATOM     18  N   UNL     1      -5.461   2.921  25.797  0.00  0.00    -0.222 NA
ATOM     19  C   UNL     1      -4.655   2.957  25.628  0.00  0.00    +0.107 A 
ENDBRANCH  12  14
ENDBRANCH  10  11
BRANCH   3   2
ATOM      1  C   UNL     1       0.350  -0.748  23.911  0.00  0.00    +0.010 C 
ATOM      2  C   UNL     1       0.550   0.002  23.631  0.00  0.00    +0.081 C 
BRANCH   2  25
ATOM     25  C   UNL     1       1.146   0.085  23.066  0.00  0.00    +0.241 C 
ATOM     26  O   UNL     1       0.949   0.190  22.271  0.00  0.00    -0.273 OA
ATOM     27  N   UNL     1       1.938   0.062  23.295  0.00  0.00    -0.201 NA
BRANCH  27  28
ATOM     28  C   UNL     1       2.533   0.145  22.731  0.00  0.00    +0.142 C 
BRANCH  28  29
ATOM     29  C   UNL     1       3.324   0.066  22.950  0.00  0.00    +0.010 A 
ATOM     30  C   UNL     1       3.584  -0.623  23.321  0.00  0.00    -0.002 A 
ATOM     31  C   UNL     1       4.374  -0.701  23.540  0.00  0.00    -0.000 A 
ATOM     32  C   UNL     1       4.908  -0.090  23.389  0.00  0.00    +0.001 A 
ATOM     33  C   UNL     1       4.648   0.600  23.018  0.00  0.00    +0.011 A 
ATOM     34  C   UNL     1       3.856   0.678  22.798  0.00  0.00    +0.055 A 
ATOM     35 CL   UNL     1       3.597   1.367  22.428  0.00  0.00    -0.083 Cl
ENDBRANCH  28  29
ENDBRANCH  27  28
ENDBRANCH   2  25
ENDBRANCH   3   2
TORSDOF 6
ENDMDL
MODEL 9
REMARK VINA RESULT:     -10.2      1.942      3.516
REMARK  Name = 
REMARK  6 active torsions:
REMARK  status: ('A' for Active; 'I' for Inactive)
REMARK    1  A    between atoms: C_2  and  C_3
REMARK    2  A    between atoms: C_2  and  C_25
REMARK    3  A    between atoms: C_10  and  N_11
REMARK    4  A    between atoms: C_12  and  C_14
REMARK    5  A    between atoms: N_27  and  C_28
REMARK    6  A    between atoms: C_28  and  C_29
REMARK                            x       y       z     vdW  Elec       q    Type
REMARK                         _______ _______ _______ _____ _____    ______ ____
ROOT
ATOM      3  C   UNL     1      -0.230   2.073  25.288  0.00  0.00    +0.039 C 
ATOM      4  C   UNL     1       0.261   2.101  24.625  0.00  0.00    +0.003 C 
ATOM      5  C   UNL     1       0.295   1.459  24.110  0.00  0.00    +0.000 C 
ATOM      6  C   UNL     1      -0.162   0.789  24.256  0.00  0.00    +0.002 C 
ATOM      7  C   UNL     1       0.328   0.817  23.594  0.00  0.00    +0.000 C 
ATOM      8  C   UNL     1      -0.129   0.145  23.740  0.00  0.00    +0.002 C 
ATOM      9  C   UNL     1      -0.586  -0.525  23.886  0.00  0.00    +0.022 C 
ATOM     10  C   UNL     1      -1.077  -0.553  24.549  0.00  0.00    +0.096 C 
ATOM     20  C   UNL     1      -1.111   0.089  25.065  0.00  0.00    +0.022 C 
ATOM     21  C   UNL     1      -1.602   0.061  25.727  0.00  0.00    +0.002 C 
ATOM     22  C   UNL     1      -0.654   0.761  24.919  0.00  0.00    +0.032 C 
ATOM     23  C   UNL     1      -0.687   1.403  25.435  0.00  0.00    +0.152 C 
ATOM     24  O   UNL     1      -1.178   1.375  26.097  0.00  0.00    -0.223 OA
ENDROOT
BRANCH  10  11
ATOM     11  N   UNL     1      -1.535  -1.224  24.695  0.00  0.00    -0.203 NA
ATOM     12  C   UNL     1      -2.180  -1.398  24.212  0.00  0.00    +0.268 C 
ATOM     13  O   UNL     1      -2.369  -0.899  23.581  0.00  0.00    -0.268 OA
BRANCH  12  14
ATOM     14  C   UNL     1      -2.637  -2.069  24.358  0.00  0.00    +0.093 A 
ATOM     15  C   UNL     1      -2.272  -2.786  24.537  0.00  0.00    +0.107 A 
ATOM     16  N   UNL     1      -2.729  -3.458  24.683  0.00  0.00    -0.222 NA
ATOM     17  C   UNL     1      -3.552  -3.411  24.650  0.00  0.00    +0.199 A 
ATOM     18  N   UNL     1      -3.918  -2.692  24.471  0.00  0.00    -0.222 NA
ATOM     19  C   UNL     1      -3.460  -2.022  24.325  0.00  0.00    +0.107 A 
ENDBRANCH  12  14
ENDBRANCH  10  11
BRANCH   3   2
ATOM      1  C   UNL     1       0.150   2.696  26.518  0.00  0.00    +0.010 C 
ATOM      2  C   UNL     1      -0.263   2.717  25.804  0.00  0.00    +0.081 C 
BRANCH   2  25
ATOM     25  C   UNL     1      -0.710   3.381  25.605  0.00  0.00    +0.241 C 
ATOM     26  O   UNL     1      -0.338   4.053  25.301  0.00  0.00    -0.273 OA
ATOM     27  N   UNL     1      -1.529   3.376  25.711  0.00  0.00    -0.201 NA
BRANCH  27  28
ATOM     28  C   UNL     1      -1.975   4.039  25.513  0.00  0.00    +0.142 C 
BRANCH  28  29
ATOM     29  C   UNL     1      -2.774   3.959  25.325  0.00  0.00    +0.010 A 
ATOM     30  C   UNL     1      -2.998   3.752  24.558  0.00  0.00    -0.002 A 
ATOM     31  C   UNL     1      -3.797   3.672  24.371  0.00  0.00    -0.000 A 
ATOM     32  C   UNL     1      -4.372   3.799  24.949  0.00  0.00    +0.001 A 
ATOM     33  C   UNL     1      -4.147   4.006  25.715  0.00  0.00    +0.011 A 
ATOM     34  C   UNL     1      -3.347   4.086  25.903  0.00  0.00    +0.055 A 
ATOM     35 CL   UNL     1      -3.123   4.293  26.669  0.00  0.00    -0.083 Cl
ENDBRANCH  28  29
ENDBRANCH  27  28
ENDBRANCH   2  25
ENDBRANCH   3   2
TORSDOF 6
ENDMDL
MODEL 10
REMARK VINA RESULT:     -10.0      2.519      4.757
REMARK  Name = 
REMARK  6 active torsions:
REMARK  status: ('A' for Active; 'I' for Inactive)
REMARK    1  A    between atoms: C_2  and  C_3
REMARK    2  A    between atoms: C_2  and  C_25
REMARK    3  A    between atoms: C_10  and  N_11
REMARK    4  A    between atoms: C_12  and  C_14
REMARK    5  A    between atoms: N_27  and  C_28
REMARK    6  A    between atoms: C_28  and  C_29
REMARK                            x       y       z     vdW  Elec       q    Type
REMARK                         _______ _______ _______ _____ _____    ______ ____
ROOT
ATOM      3  C   UNL     1      -2.078  -1.267  24.713  0.00  0.00    +0.039 C 
ATOM      4  C   UNL     1      -2.577  -1.782  24.304  0.00  0.00    +0.003 C 
ATOM      5  C   UNL     1      -3.369  -1.584  24.189  0.00  0.00    +0.000 C 
ATOM      6  C   UNL     1      -3.662  -0.871  24.482  0.00  0.00    +0.002 C 
ATOM      7  C   UNL     1      -4.161  -1.385  24.074  0.00  0.00    +0.000 C 
ATOM      8  C   UNL     1      -4.455  -0.672  24.367  0.00  0.00    +0.002 C 
ATOM      9  C   UNL     1      -4.748   0.040  24.661  0.00  0.00    +0.022 C 
ATOM     10  C   UNL     1      -4.249   0.555  25.071  0.00  0.00    +0.096 C 
ATOM     20  C   UNL     1      -3.457   0.356  25.186  0.00  0.00    +0.022 C 
ATOM     21  C   UNL     1      -2.958   0.870  25.595  0.00  0.00    +0.002 C 
ATOM     22  C   UNL     1      -3.163  -0.357  24.892  0.00  0.00    +0.032 C 
ATOM     23  C   UNL     1      -2.371  -0.555  25.007  0.00  0.00    +0.152 C 
ATOM     24  O   UNL     1      -1.872  -0.041  25.416  0.00  0.00    -0.223 OA
ENDROOT
BRANCH  10  11
ATOM     11  N   UNL     1      -4.543   1.268  25.364  0.00  0.00    -0.203 NA
ATOM     12  C   UNL     1      -4.847   1.833  24.847  0.00  0.00    +0.268 C 
ATOM     13  O   UNL     1      -4.857   1.687  24.035  0.00  0.00    -0.268 OA
BRANCH  12  14
ATOM     14  C   UNL     1      -5.141   2.546  25.141  0.00  0.00    +0.093 A 
ATOM     15  C   UNL     1      -5.840   2.556  25.579  0.00  0.00    +0.107 A 
ATOM     16  N   UNL     1      -6.134   3.268  25.873  0.00  0.00    -0.222 NA
ATOM     17  C   UNL     1      -5.729   3.972  25.728  0.00  0.00    +0.199 A 
ATOM     18  N   UNL     1      -5.029   3.963  25.289  0.00  0.00    -0.222 NA
ATOM     19  C   UNL     1      -4.736   3.250  24.996  0.00  0.00    +0.107 A 
ENDBRANCH  12  14
ENDBRANCH  10  11
BRANCH   3   2
ATOM      1  C   UNL     1      -1.031  -1.744  25.563  0.00  0.00    +0.010 C 
ATOM      2  C   UNL     1      -1.285  -1.467  24.828  0.00  0.00    +0.081 C 
BRANCH   2  25
ATOM     25  C   UNL     1      -0.747  -1.389  24.208  0.00  0.00    +0.241 C 
ATOM     26  O   UNL     1      -0.698  -1.975  23.628  0.00  0.00    -0.273 OA
ATOM     27  N   UNL     1      -0.257  -0.726  24.167  0.00  0.00    -0.201 NA
BRANCH  27  28
ATOM     28  C   UNL     1       0.281  -0.648  23.548  0.00  0.00    +0.142 C 
BRANCH  28  29
ATOM     29  C   UNL     1       0.743   0.032  23.485  0.00  0.00    +0.010 A 
ATOM     30  C   UNL     1       0.529   0.716  23.893  0.00  0.00    -0.002 A 
ATOM     31  C   UNL     1       0.992   1.395  23.830  0.00  0.00    -0.000 A 
ATOM     32  C   UNL     1       1.669   1.392  23.358  0.00  0.00    +0.001 A 
ATOM     33  C   UNL     1       1.883   0.708  22.950  0.00  0.00    +0.011 A 
ATOM     34  C   UNL     1       1.420   0.027  23.013  0.00  0.00    +0.055 A 
ATOM     35 CL   UNL     1       1.634  -0.656  22.606  0.00  0.00    -0.083 Cl
ENDBRANCH  28  29
ENDBRANCH  27  28
ENDBRANCH   2  25
ENDBRANCH   3   2
TORSDOF 6
ENDMDL
