MODEL 1
REMARK VINA RESULT:     -10.4      0.000      0.000
REMARK  Name = 
REMARK  4 active torsions:
REMARK  status: ('A' for Active; 'I' for Inactive)
REMARK    1  A    between atoms: C_7  and  C_8
REMARK    2  A    between atoms: C_14  and  N_15
REMARK    3  A    between atoms: N_15  and  C_16
REMARK    4  A    between atoms: C_16  and  C_17
REMARK                            x       y       z     vdW  Elec       q    Type
REMARK                         _______ _______ _______ _____ _____    ______ ____
ROOT
ATOM      8  C   UNL     1      -3.885  -0.128  24.920  0.00  0.00    +0.043 C 
ATOM      9  C   UNL     1      -4.622   0.231  25.010  0.00  0.00    +0.041 C 
ATOM     10  C   UNL     1      -4.518   1.047  24.940  0.00  0.00    +0.184 C 
ATOM     11  O   UNL     1      -5.110   1.619  24.993  0.00  0.00    -0.220 OA
ATOM     12  C   UNL     1      -3.716   1.190  24.806  0.00  0.00    +0.198 C 
ATOM     13  O   UNL     1      -3.367   1.931  24.702  0.00  0.00    -0.219 OA
ATOM     14  C   UNL     1      -3.326   0.463  24.794  0.00  0.00    +0.110 C 
ENDROOT
BRANCH   8   7
ATOM      1  C   UNL     1      -4.245  -1.084  23.624  0.00  0.00    +0.031 C 
ATOM      2  C   UNL     1      -3.915  -1.417  24.304  0.00  0.00    -0.026 A 
ATOM      3  C   UNL     1      -3.765  -2.228  24.335  0.00  0.00    -0.005 A 
ATOM      4  C   UNL     1      -3.435  -2.560  25.013  0.00  0.00    -0.000 A 
ATOM      5  C   UNL     1      -3.255  -2.083  25.662  0.00  0.00    -0.000 A 
ATOM      6  C   UNL     1      -3.405  -1.272  25.631  0.00  0.00    -0.005 A 
ATOM      7  C   UNL     1      -3.735  -0.939  24.951  0.00  0.00    -0.025 A 
ENDBRANCH   8   7
BRANCH  14  15
ATOM     15  N   UNL     1      -2.517   0.350  24.676  0.00  0.00    -0.214 NA
BRANCH  15  16
ATOM     16  C   UNL     1      -1.993   0.980  24.769  0.00  0.00    +0.119 C 
BRANCH  16  17
ATOM     17  C   UNL     1      -1.186   0.868  24.643  0.00  0.00    +0.143 C 
ATOM     18  C   UNL     1      -0.378   0.755  24.518  0.00  0.00    +0.034 C 
ATOM     19  C   UNL     1      -1.048   0.958  25.451  0.00  0.00    +0.034 C 
ATOM     20  O   UNL     1      -1.324   0.778  23.835  0.00  0.00    -0.224 OA
ENDBRANCH  16  17
ENDBRANCH  15  16
ENDBRANCH  14  15
TORSDOF 4
ENDMDL
MODEL 2
REMARK VINA RESULT:     -10.0      1.334      2.899
REMARK  Name = 
REMARK  4 active torsions:
REMARK  status: ('A' for Active; 'I' for Inactive)
REMARK    1  A    between atoms: C_7  and  C_8
REMARK    2  A    between atoms: C_14  and  N_15
REMARK    3  A    between atoms: N_15  and  C_16
REMARK    4  A    between atoms: C_16  and  C_17
REMARK                            x       y       z     vdW  Elec       q    Type
REMARK                         _______ _______ _______ _____ _____    ______ ____
ROOT
ATOM      8  C   UNL     1      -3.330   0.682  23.986  0.00  0.00    +0.043 C 
ATOM      9  C   UNL     1      -2.721   0.885  23.468  0.00  0.00    +0.041 C 
ATOM     10  C   UNL     1      -2.815   1.679  23.263  0.00  0.00    +0.184 C 
ATOM     11  O   UNL     1      -2.328   2.111  22.756  0.00  0.00    -0.220 OA
ATOM     12  C   UNL     1      -3.483   1.966  23.655  0.00  0.00    +0.198 C 
ATOM     13  O   UNL     1      -3.780   2.734  23.607  0.00  0.00    -0.219 OA
ATOM     14  C   UNL     1      -3.801   1.349  24.102  0.00  0.00    +0.110 C 
ENDROOT
BRANCH   8   7
ATOM      1  C   UNL     1      -2.352   0.178  25.216  0.00  0.00    +0.031 C 
ATOM      2  C   UNL     1      -2.959  -0.312  24.944  0.00  0.00    -0.026 A 
ATOM      3  C   UNL     1      -3.076  -1.053  25.286  0.00  0.00    -0.005 A 
ATOM      4  C   UNL     1      -3.682  -1.541  25.014  0.00  0.00    -0.000 A 
ATOM      5  C   UNL     1      -4.171  -1.290  24.399  0.00  0.00    -0.000 A 
ATOM      6  C   UNL     1      -4.054  -0.548  24.057  0.00  0.00    -0.005 A 
ATOM      7  C   UNL     1      -3.447  -0.059  24.329  0.00  0.00    -0.025 A 
ENDBRANCH   8   7
BRANCH  14  15
ATOM     15  N   UNL     1      -4.472   1.393  24.579  0.00  0.00    -0.214 NA
BRANCH  15  16
ATOM     16  C   UNL     1      -4.841   2.120  24.706  0.00  0.00    +0.119 C 
BRANCH  16  17
ATOM     17  C   UNL     1      -5.494   2.168  25.209  0.00  0.00    +0.143 C 
ATOM     18  C   UNL     1      -6.145   2.217  25.713  0.00  0.00    +0.034 C 
ATOM     19  C   UNL     1      -5.044   2.600  25.750  0.00  0.00    +0.034 C 
ATOM     20  O   UNL     1      -5.943   1.737  24.668  0.00  0.00    -0.224 OA
ENDBRANCH  16  17
ENDBRANCH  15  16
ENDBRANCH  14  15
TORSDOF 4
ENDMDL
MODEL 3
REMARK VINA RESULT:     -10.0      1.555      3.468
REMARK  Name = 
REMARK  4 active torsions:
REMARK  status: ('A' for Active; 'I' for Inactive)
REMARK    1  A    between atoms: C_7  and  C_8
REMARK    2  A    between atoms: C_14  and  N_15
REMARK    3  A    between atoms: N_15  and  C_16
REMARK    4  A    between atoms: C_16  and  C_17
REMARK                            x       y       z     vdW  Elec       q    Type
REMARK                         _______ _______ _______ _____ _____    ______ ____
ROOT
ATOM      8  C   UNL     1      -3.903   2.029  24.199  0.00  0.00    +0.043 C 
ATOM      9  C   UNL     1      -3.622   2.474  23.563  0.00  0.00    +0.041 C 
ATOM     10  C   UNL     1      -3.015   2.047  23.203  0.00  0.00    +0.184 C 
ATOM     11  O   UNL     1      -2.578   2.285  22.545  0.00  0.00    -0.220 OA
ATOM     12  C   UNL     1      -2.921   1.339  23.616  0.00  0.00    +0.198 C 
ATOM     13  O   UNL     1      -2.374   0.745  23.444  0.00  0.00    -0.219 OA
ATOM     14  C   UNL     1      -3.470   1.328  24.232  0.00  0.00    +0.110 C 
ENDROOT
BRANCH   8   7
ATOM      1  C   UNL     1      -3.647   3.206  25.326  0.00  0.00    +0.031 C 
ATOM      2  C   UNL     1      -4.384   2.836  25.275  0.00  0.00    -0.026 A 
ATOM      3  C   UNL     1      -4.992   3.055  25.788  0.00  0.00    -0.005 A 
ATOM      4  C   UNL     1      -5.727   2.685  25.737  0.00  0.00    -0.000 A 
ATOM      5  C   UNL     1      -5.856   2.097  25.173  0.00  0.00    -0.000 A 
ATOM      6  C   UNL     1      -5.248   1.878  24.660  0.00  0.00    -0.005 A 
ATOM      7  C   UNL     1      -4.511   2.248  24.711  0.00  0.00    -0.025 A 
ENDBRANCH   8   7
BRANCH  14  15
ATOM     15  N   UNL     1      -3.568   0.722  24.783  0.00  0.00    -0.214 NA
BRANCH  15  16
ATOM     16  C   UNL     1      -3.279  -0.034  24.622  0.00  0.00    +0.119 C 
BRANCH  16  17
ATOM     17  C   UNL     1      -3.373  -0.637  25.176  0.00  0.00    +0.143 C 
ATOM     18  C   UNL     1      -3.466  -1.242  25.730  0.00  0.00    +0.034 C 
ATOM     19  C   UNL     1      -3.895  -1.023  24.668  0.00  0.00    +0.034 C 
ATOM     20  O   UNL     1      -2.850  -0.251  25.685  0.00  0.00    -0.224 OA
ENDBRANCH  16  17
ENDBRANCH  15  16
ENDBRANCH  14  15
TORSDOF 4
ENDMDL
MODEL 4
REMARK VINA RESULT:      -9.5      2.374      3.177
REMARK  Name = 
REMARK  4 active torsions:
REMARK  status: ('A' for Active; 'I' for Inactive)
REMARK    1  A    between atoms: C_7  and  C_8
REMARK    2  A    between atoms: C_14  and  N_15
REMARK    3  A    between atoms: N_15  and  C_16
REMARK    4  A    between atoms: C_16  and  C_17
REMARK                            x       y       z     vdW  Elec       q    Type
REMARK                         _______ _______ _______ _____ _____    ______ ____
ROOT
ATOM      8  C   UNL     1      -4.005   2.612  24.621  0.00  0.00    +0.043 C 
ATOM      9  C   UNL     1      -4.812   2.719  24.754  0.00  0.00    +0.041 C 
ATOM     10  C   UNL     1      -4.899   3.283  25.350  0.00  0.00    +0.184 C 
ATOM     11  O   UNL     1      -5.613   3.558  25.658  0.00  0.00    -0.220 OA
ATOM     12  C   UNL     1      -4.145   3.523  25.585  0.00  0.00    +0.198 C 
ATOM     13  O   UNL     1      -3.974   4.081  26.169  0.00  0.00    -0.219 OA
ATOM     14  C   UNL     1      -3.593   3.108  25.134  0.00  0.00    +0.110 C 
ENDROOT
BRANCH   8   7
ATOM      1  C   UNL     1      -3.997   0.987  24.907  0.00  0.00    +0.031 C 
ATOM      2  C   UNL     1      -3.665   1.286  24.212  0.00  0.00    -0.026 A 
ATOM      3  C   UNL     1      -3.329   0.771  23.661  0.00  0.00    -0.005 A 
ATOM      4  C   UNL     1      -2.997   1.070  22.968  0.00  0.00    -0.000 A 
ATOM      5  C   UNL     1      -3.000   1.882  22.825  0.00  0.00    -0.000 A 
ATOM      6  C   UNL     1      -3.336   2.396  23.375  0.00  0.00    -0.005 A 
ATOM      7  C   UNL     1      -3.669   2.098  24.070  0.00  0.00    -0.025 A 
ENDBRANCH   8   7
BRANCH  14  15
ATOM     15  N   UNL     1      -2.772   3.179  25.188  0.00  0.00    -0.214 NA
BRANCH  15  16
ATOM     16  C   UNL     1      -2.437   3.856  25.518  0.00  0.00    +0.119 C 
BRANCH  16  17
ATOM     17  C   UNL     1      -1.617   3.951  25.519  0.00  0.00    +0.143 C 
ATOM     18  C   UNL     1      -0.798   4.047  25.520  0.00  0.00    +0.034 C 
ATOM     19  C   UNL     1      -1.698   4.644  25.079  0.00  0.00    +0.034 C 
ATOM     20  O   UNL     1      -1.537   3.258  25.960  0.00  0.00    -0.224 OA
ENDBRANCH  16  17
ENDBRANCH  15  16
ENDBRANCH  14  15
TORSDOF 4
ENDMDL
MODEL 5
REMARK VINA RESULT:      -9.4      2.440      3.430
REMARK  Name = 
REMARK  4 active torsions:
REMARK  status: ('A' for Active; 'I' for Inactive)
REMARK    1  A    between atoms: C_7  and  C_8
REMARK    2  A    between atoms: C_14  and  N_15
REMARK    3  A    between atoms: N_15  and  C_16
REMARK    4  A    between atoms: C_16  and  C_17
REMARK                            x       y       z     vdW  Elec       q    Type
REMARK                         _______ _______ _______ _____ _____    ______ ____
ROOT
ATOM      8  C   UNL     1      -3.407   2.480  23.970  0.00  0.00    +0.043 C 
ATOM      9  C   UNL     1      -3.560   2.337  23.172  0.00  0.00    +0.041 C 
ATOM     10  C   UNL     1      -2.845   2.151  22.806  0.00  0.00    +0.184 C 
ATOM     11  O   UNL     1      -2.741   1.969  22.007  0.00  0.00    -0.220 OA
ATOM     12  C   UNL     1      -2.251   2.179  23.377  0.00  0.00    +0.198 C 
ATOM     13  O   UNL     1      -1.449   2.029  23.251  0.00  0.00    -0.219 OA
ATOM     14  C   UNL     1      -2.599   2.382  24.097  0.00  0.00    +0.110 C 
ENDROOT
BRANCH   8   7
ATOM      1  C   UNL     1      -4.410   1.327  24.594  0.00  0.00    +0.031 C 
ATOM      2  C   UNL     1      -4.468   2.109  24.853  0.00  0.00    -0.026 A 
ATOM      3  C   UNL     1      -5.027   2.313  25.425  0.00  0.00    -0.005 A 
ATOM      4  C   UNL     1      -5.084   3.094  25.684  0.00  0.00    -0.000 A 
ATOM      5  C   UNL     1      -4.583   3.671  25.373  0.00  0.00    -0.000 A 
ATOM      6  C   UNL     1      -4.024   3.466  24.801  0.00  0.00    -0.005 A 
ATOM      7  C   UNL     1      -3.966   2.684  24.542  0.00  0.00    -0.025 A 
ENDBRANCH   8   7
BRANCH  14  15
ATOM     15  N   UNL     1      -2.205   2.472  24.817  0.00  0.00    -0.214 NA
BRANCH  15  16
ATOM     16  C   UNL     1      -1.384   2.548  24.833  0.00  0.00    +0.119 C 
BRANCH  16  17
ATOM     17  C   UNL     1      -0.992   2.633  25.553  0.00  0.00    +0.143 C 
ATOM     18  C   UNL     1      -0.599   2.719  26.274  0.00  0.00    +0.034 C 
ATOM     19  C   UNL     1      -0.834   3.423  25.374  0.00  0.00    +0.034 C 
ATOM     20  O   UNL     1      -1.150   1.843  25.732  0.00  0.00    -0.224 OA
ENDBRANCH  16  17
ENDBRANCH  15  16
ENDBRANCH  14  15
TORSDOF 4
ENDMDL
MODEL 6
REMARK VINA RESULT:      -9.4      1.494      3.332
REMARK  Name = 
REMARK  4 active torsions:
REMARK  status: ('A' for Active; 'I' for Inactive)
REMARK    1  A    between atoms: C_7  and  C_8
REMARK    2  A    between atoms: C_14  and  N_15
REMARK    3  A    between atoms: N_15  and  C_16
REMARK    4  A    between atoms: C_16  and  C_17
REMARK                            x       y       z     vdW  Elec       q    Type
REMARK                         _______ _______ _______ _____ _____    ______ ____
ROOT
ATOM      8  C   UNL     1      -3.922   2.027  24.416  0.00  0.00    +0.043 C 
ATOM      9  C   UNL     1      -4.357   2.669  24.698  0.00  0.00    +0.041 C 
ATOM     10  C   UNL     1      -5.001   2.374  25.120  0.00  0.00    +0.184 C 
ATOM     11  O   UNL     1      -5.582   2.823  25.497  0.00  0.00    -0.220 OA
ATOM     12  C   UNL     1      -4.963   1.550  25.100  0.00  0.00    +0.198 C 
ATOM     13  O   UNL     1      -5.500   1.031  25.453  0.00  0.00    -0.219 OA
ATOM     14  C   UNL     1      -4.295   1.336  24.664  0.00  0.00    +0.110 C 
ENDROOT
BRANCH   8   7
ATOM      1  C   UNL     1      -2.525   2.584  25.096  0.00  0.00    +0.031 C 
ATOM      2  C   UNL     1      -2.533   2.348  24.305  0.00  0.00    -0.026 A 
ATOM      3  C   UNL     1      -1.844   2.391  23.854  0.00  0.00    -0.005 A 
ATOM      4  C   UNL     1      -1.853   2.156  23.064  0.00  0.00    -0.000 A 
ATOM      5  C   UNL     1      -2.551   1.877  22.724  0.00  0.00    -0.000 A 
ATOM      6  C   UNL     1      -3.240   1.834  23.174  0.00  0.00    -0.005 A 
ATOM      7  C   UNL     1      -3.232   2.070  23.966  0.00  0.00    -0.025 A 
ENDBRANCH   8   7
BRANCH  14  15
ATOM     15  N   UNL     1      -4.047   0.565  24.506  0.00  0.00    -0.214 NA
BRANCH  15  16
ATOM     16  C   UNL     1      -4.276  -0.053  25.002  0.00  0.00    +0.119 C 
BRANCH  16  17
ATOM     17  C   UNL     1      -4.009  -0.820  24.855  0.00  0.00    +0.143 C 
ATOM     18  C   UNL     1      -3.743  -1.587  24.709  0.00  0.00    +0.034 C 
ATOM     19  C   UNL     1      -3.610  -0.819  25.577  0.00  0.00    +0.034 C 
ATOM     20  O   UNL     1      -4.409  -0.820  24.133  0.00  0.00    -0.224 OA
ENDBRANCH  16  17
ENDBRANCH  15  16
ENDBRANCH  14  15
TORSDOF 4
ENDMDL
MODEL 7
REMARK VINA RESULT:      -9.3      1.606      2.736
REMARK  Name = 
REMARK  4 active torsions:
REMARK  status: ('A' for Active; 'I' for Inactive)
REMARK    1  A    between atoms: C_7  and  C_8
REMARK    2  A    between atoms: C_14  and  N_15
REMARK    3  A    between atoms: N_15  and  C_16
REMARK    4  A    between atoms: C_16  and  C_17
REMARK                            x       y       z     vdW  Elec       q    Type
REMARK                         _______ _______ _______ _____ _____    ______ ____
ROOT
ATOM      8  C   UNL     1      -2.449  -0.920  24.725  0.00  0.00    +0.043 C 
ATOM      9  C   UNL     1      -2.393  -1.729  24.573  0.00  0.00    +0.041 C 
ATOM     10  C   UNL     1      -1.599  -1.946  24.644  0.00  0.00    +0.184 C 
ATOM     11  O   UNL     1      -1.293  -2.705  24.538  0.00  0.00    -0.220 OA
ATOM     12  C   UNL     1      -1.167  -1.271  24.840  0.00  0.00    +0.198 C 
ATOM     13  O   UNL     1      -0.351  -1.237  24.964  0.00  0.00    -0.219 OA
ATOM     14  C   UNL     1      -1.693  -0.637  24.890  0.00  0.00    +0.110 C 
ENDROOT
BRANCH   8   7
ATOM      1  C   UNL     1      -3.533  -1.048  25.963  0.00  0.00    +0.031 C 
ATOM      2  C   UNL     1      -3.684  -0.536  25.333  0.00  0.00    -0.026 A 
ATOM      3  C   UNL     1      -4.377  -0.088  25.322  0.00  0.00    -0.005 A 
ATOM      4  C   UNL     1      -4.528   0.422  24.693  0.00  0.00    -0.000 A 
ATOM      5  C   UNL     1      -3.986   0.487  24.074  0.00  0.00    -0.000 A 
ATOM      6  C   UNL     1      -3.293   0.039  24.085  0.00  0.00    -0.005 A 
ATOM      7  C   UNL     1      -3.142  -0.473  24.715  0.00  0.00    -0.025 A 
ENDBRANCH   8   7
BRANCH  14  15
ATOM     15  N   UNL     1      -1.494   0.143  25.073  0.00  0.00    -0.214 NA
BRANCH  15  16
ATOM     16  C   UNL     1      -0.715   0.401  24.993  0.00  0.00    +0.119 C 
BRANCH  16  17
ATOM     17  C   UNL     1      -0.521   1.185  25.159  0.00  0.00    +0.143 C 
ATOM     18  C   UNL     1      -0.327   1.970  25.325  0.00  0.00    +0.034 C 
ATOM     19  C   UNL     1      -0.298   1.296  24.373  0.00  0.00    +0.034 C 
ATOM     20  O   UNL     1      -0.745   1.074  25.946  0.00  0.00    -0.224 OA
ENDBRANCH  16  17
ENDBRANCH  15  16
ENDBRANCH  14  15
TORSDOF 4
ENDMDL
MODEL 8
REMARK VINA RESULT:      -9.3      1.274      3.311
REMARK  Name = 
REMARK  4 active torsions:
REMARK  status: ('A' for Active; 'I' for Inactive)
REMARK    1  A    between atoms: C_7  and  C_8
REMARK    2  A    between atoms: C_14  and  N_15
REMARK    3  A    between atoms: N_15  and  C_16
REMARK    4  A    between atoms: C_16  and  C_17
REMARK                            x       y       z     vdW  Elec       q    Type
REMARK                         _______ _______ _______ _____ _____    ______ ____
ROOT
ATOM      8  C   UNL     1      -3.125   1.177  24.795  0.00  0.00    +0.043 C 
ATOM      9  C   UNL     1      -2.428   1.568  25.001  0.00  0.00    +0.041 C 
ATOM     10  C   UNL     1      -1.806   1.029  24.934  0.00  0.00    +0.184 C 
ATOM     11  O   UNL     1      -1.010   1.186  25.087  0.00  0.00    -0.220 OA
ATOM     12  C   UNL     1      -2.120   0.307  24.688  0.00  0.00    +0.198 C 
ATOM     13  O   UNL     1      -1.692  -0.386  24.552  0.00  0.00    -0.219 OA
ATOM     14  C   UNL     1      -2.935   0.399  24.602  0.00  0.00    +0.110 C 
ENDROOT
BRANCH   8   7
ATOM      1  C   UNL     1      -3.519   2.298  23.650  0.00  0.00    +0.031 C 
ATOM      2  C   UNL     1      -4.078   2.069  24.213  0.00  0.00    -0.026 A 
ATOM      3  C   UNL     1      -4.834   2.400  24.203  0.00  0.00    -0.005 A 
ATOM      4  C   UNL     1      -5.392   2.171  24.765  0.00  0.00    -0.000 A 
ATOM      5  C   UNL     1      -5.195   1.611  25.338  0.00  0.00    -0.000 A 
ATOM      6  C   UNL     1      -4.440   1.280  25.348  0.00  0.00    -0.005 A 
ATOM      7  C   UNL     1      -3.881   1.509  24.785  0.00  0.00    -0.025 A 
ENDBRANCH   8   7
BRANCH  14  15
ATOM     15  N   UNL     1      -3.466  -0.186  24.365  0.00  0.00    -0.214 NA
BRANCH  15  16
ATOM     16  C   UNL     1      -3.230  -0.976  24.348  0.00  0.00    +0.119 C 
BRANCH  16  17
ATOM     17  C   UNL     1      -3.769  -1.563  24.134  0.00  0.00    +0.143 C 
ATOM     18  C   UNL     1      -4.308  -2.151  23.922  0.00  0.00    +0.034 C 
ATOM     19  C   UNL     1      -3.677  -1.915  24.875  0.00  0.00    +0.034 C 
ATOM     20  O   UNL     1      -3.860  -1.211  23.394  0.00  0.00    -0.224 OA
ENDBRANCH  16  17
ENDBRANCH  15  16
ENDBRANCH  14  15
TORSDOF 4
ENDMDL
MODEL 9
REMARK VINA RESULT:      -9.1      1.439      2.860
REMARK  Name = 
REMARK  4 active torsions:
REMARK  status: ('A' for Active; 'I' for Inactive)
REMARK    1  A    between atoms: C_7  and  C_8
REMARK    2  A    between atoms: C_14  and  N_15
REMARK    3  A    between atoms: N_15  and  C_16
REMARK    4  A    between atoms: C_16  and  C_17
REMARK                            x       y       z     vdW  Elec       q    Type
REMARK                         _______ _______ _______ _____ _____    ______ ____
ROOT
ATOM      8  C   UNL     1      -3.642   0.671  24.277  0.00  0.00    +0.043 C 
ATOM      9  C   UNL     1      -4.100   0.015  24.078  0.00  0.00    +0.041 C 
ATOM     10  C   UNL     1      -3.659  -0.663  24.241  0.00  0.00    +0.184 C 
ATOM     11  O   UNL     1      -3.905  -1.442  24.125  0.00  0.00    -0.220 OA
ATOM     12  C   UNL     1      -2.928  -0.425  24.541  0.00  0.00    +0.198 C 
ATOM     13  O   UNL     1      -2.315  -0.924  24.778  0.00  0.00    -0.219 OA
ATOM     14  C   UNL     1      -2.918   0.400  24.563  0.00  0.00    +0.110 C 
ENDROOT
BRANCH   8   7
ATOM      1  C   UNL     1      -4.772   1.304  25.299  0.00  0.00    +0.031 C 
ATOM      2  C   UNL     1      -4.434   1.778  24.713  0.00  0.00    -0.026 A 
ATOM      3  C   UNL     1      -4.660   2.568  24.639  0.00  0.00    -0.005 A 
ATOM      4  C   UNL     1      -4.322   3.040  24.054  0.00  0.00    -0.000 A 
ATOM      5  C   UNL     1      -3.757   2.724  23.543  0.00  0.00    -0.000 A 
ATOM      6  C   UNL     1      -3.530   1.934  23.617  0.00  0.00    -0.005 A 
ATOM      7  C   UNL     1      -3.869   1.461  24.203  0.00  0.00    -0.025 A 
ENDBRANCH   8   7
BRANCH  14  15
ATOM     15  N   UNL     1      -2.293   0.870  24.826  0.00  0.00    -0.214 NA
BRANCH  15  16
ATOM     16  C   UNL     1      -1.527   0.563  24.851  0.00  0.00    +0.119 C 
BRANCH  16  17
ATOM     17  C   UNL     1      -0.897   1.044  25.080  0.00  0.00    +0.143 C 
ATOM     18  C   UNL     1      -0.267   1.525  25.309  0.00  0.00    +0.034 C 
ATOM     19  C   UNL     1      -0.560   0.957  24.333  0.00  0.00    +0.034 C 
ATOM     20  O   UNL     1      -1.236   1.131  25.828  0.00  0.00    -0.224 OA
ENDBRANCH  16  17
ENDBRANCH  15  16
ENDBRANCH  14  15
TORSDOF 4
ENDMDL
