REMARK  Name = 
REMARK  5 active torsions:
REMARK  status: ('A' for Active; 'I' for Inactive)
REMARK    1  A    between atoms: C_4  and  C_14
REMARK    2  A    between atoms: N_5  and  C_6
REMARK    3  A    between atoms: C_6  and  C_7
REMARK    4  A    between atoms: C_16  and  C_19
REMARK    5  A    between atoms: C_23  and  N_25
REMARK                            x       y       z     vdW  Elec       q    Type
REMARK                         _______ _______ _______ _____ _____    ______ ____
ROOT
ATOM     14  C   UNL     1       0.302  -4.977   0.000  0.00  0.00    +0.251 A 
ATOM     15  N   UNL     1       1.127  -4.977   0.000  0.00  0.00    -0.190 NA
ATOM     16  C   UNL     1       1.382  -5.762   0.000  0.00  0.00    +0.203 A 
ATOM     17  N   UNL     1       0.715  -6.247   0.000  0.00  0.00    -0.056 NA
ATOM     18  O   UNL     1       0.047  -5.762   0.000  0.00  0.00    -0.336 OA
ENDROOT
BRANCH  14   4
ATOM      1  O   UNL     1      -0.596  -2.216   0.000  0.00  0.00    -0.222 OA
ATOM      2  C   UNL     1      -0.596  -3.041   0.000  0.00  0.00    +0.170 C 
ATOM      3  C   UNL     1       0.072  -3.525   0.000  0.00  0.00    +0.060 C 
ATOM      4  C   UNL     1      -0.183  -4.310   0.000  0.00  0.00    +0.140 C 
ATOM      5  N   UNL     1      -1.008  -4.310   0.000  0.00  0.00    -0.260 NA
ATOM     13  C   UNL     1      -1.263  -3.525   0.000  0.00  0.00    +0.106 C 
BRANCH   5   6
ATOM      6  C   UNL     1      -1.493  -4.977   0.000  0.00  0.00    +0.100 C 
BRANCH   6   7
ATOM      7  C   UNL     1      -2.313  -4.891   0.000  0.00  0.00    -0.003 A 
ATOM      8  C   UNL     1      -2.798  -5.559   0.000  0.00  0.00    +0.018 A 
ATOM      9  C   UNL     1      -3.619  -5.472   0.000  0.00  0.00    +0.099 A 
ATOM     10  N   UNL     1      -3.954  -4.719   0.000  0.00  0.00    -0.242 NA
ATOM     11  C   UNL     1      -3.469  -4.051   0.000  0.00  0.00    +0.099 A 
ATOM     12  C   UNL     1      -2.649  -4.138   0.000  0.00  0.00    +0.018 A 
ENDBRANCH   6   7
ENDBRANCH   5   6
ENDBRANCH  14   4
BRANCH  16  19
ATOM     19  C   UNL     1       2.167  -6.017   0.000  0.00  0.00    +0.041 A 
ATOM     20  C   UNL     1       2.780  -5.465   0.000  0.00  0.00    +0.003 A 
ATOM     21  C   UNL     1       3.564  -5.720   0.000  0.00  0.00    +0.002 A 
ATOM     22  C   UNL     1       3.736  -6.527   0.000  0.00  0.00    +0.024 A 
ATOM     23  C   UNL     1       3.123  -7.079   0.000  0.00  0.00    +0.143 A 
ATOM     24  C   UNL     1       2.338  -6.824   0.000  0.00  0.00    +0.027 A 
BRANCH  23  25
ATOM     25  N   UNL     1       3.294  -7.886   0.000  0.00  0.00    +0.058 N 
ATOM     26  O   UNL     1       4.079  -8.141   0.000  0.00  0.00    -0.126 OA
ATOM     27  O   UNL     1       2.681  -8.438   0.000  0.00  0.00    -0.126 OA
ENDBRANCH  23  25
ENDBRANCH  16  19
TORSDOF 5
