MODEL 1
REMARK VINA RESULT:      -9.7      0.000      0.000
REMARK  Name = 
REMARK  5 active torsions:
REMARK  status: ('A' for Active; 'I' for Inactive)
REMARK    1  A    between atoms: O_2  and  C_3
REMARK    2  A    between atoms: C_3  and  C_4
REMARK    3  A    between atoms: N_6  and  C_7
REMARK    4  A    between atoms: C_13  and  C_14
REMARK    5  A    between atoms: C_17  and  O_18
REMARK                            x       y       z     vdW  Elec       q    Type
REMARK                         _______ _______ _______ _____ _____    ______ ____
ROOT
ATOM      7  C   UNL     1      -3.785   1.165  24.307  0.00  0.00    +0.132 C 
ATOM      8  C   UNL     1      -4.171   1.889  24.391  0.00  0.00    +0.202 C 
ATOM      9  O   UNL     1      -3.897   2.618  24.120  0.00  0.00    -0.219 OA
ATOM     10  C   UNL     1      -4.878   1.756  24.795  0.00  0.00    +0.184 C 
ATOM     11  O   UNL     1      -5.435   2.330  24.998  0.00  0.00    -0.220 OA
ATOM     12  C   UNL     1      -4.929   0.949  24.960  0.00  0.00    +0.042 C 
ATOM     13  C   UNL     1      -4.254   0.584  24.658  0.00  0.00    +0.048 C 
ENDROOT
BRANCH  13  14
ATOM     14  C   UNL     1      -4.078  -0.221  24.700  0.00  0.00    -0.020 A 
ATOM     15  C   UNL     1      -3.771  -0.540  25.397  0.00  0.00    -0.001 A 
ATOM     16  C   UNL     1      -3.596  -1.346  25.438  0.00  0.00    +0.037 A 
ATOM     17  C   UNL     1      -3.728  -1.832  24.784  0.00  0.00    +0.139 A 
ATOM     20  C   UNL     1      -4.036  -1.512  24.088  0.00  0.00    +0.037 A 
ATOM     21  C   UNL     1      -4.211  -0.707  24.047  0.00  0.00    -0.001 A 
BRANCH  17  18
ATOM     18  O   UNL     1      -3.554  -2.636  24.826  0.00  0.00    -0.471 OA
ATOM     19  C   UNL     1      -2.823  -2.913  24.561  0.00  0.00    +0.252 C 
ENDBRANCH  17  18
ENDBRANCH  13  14
BRANCH   7   6
ATOM      4  C   UNL     1      -2.394   1.466  24.181  0.00  0.00    +0.272 C 
ATOM      5  O   UNL     1      -2.457   2.013  24.796  0.00  0.00    -0.271 OA
ATOM      6  N   UNL     1      -3.058   1.042  23.936  0.00  0.00    -0.202 NA
BRANCH   4   3
ATOM      3  C   UNL     1      -1.667   1.344  23.809  0.00  0.00    +0.229 C 
BRANCH   3   2
ATOM      1  C   UNL     1      -0.294   0.962  23.914  0.00  0.00    +0.175 C 
ATOM      2  O   UNL     1      -0.985   1.248  24.263  0.00  0.00    -0.342 OA
ENDBRANCH   3   2
ENDBRANCH   4   3
ENDBRANCH   7   6
TORSDOF 5
ENDMDL
MODEL 2
REMARK VINA RESULT:      -9.0      1.208      3.286
REMARK  Name = 
REMARK  5 active torsions:
REMARK  status: ('A' for Active; 'I' for Inactive)
REMARK    1  A    between atoms: O_2  and  C_3
REMARK    2  A    between atoms: C_3  and  C_4
REMARK    3  A    between atoms: N_6  and  C_7
REMARK    4  A    between atoms: C_13  and  C_14
REMARK    5  A    between atoms: C_17  and  O_18
REMARK                            x       y       z     vdW  Elec       q    Type
REMARK                         _______ _______ _______ _____ _____    ______ ____
ROOT
ATOM      7  C   UNL     1      -3.227  -0.856  24.896  0.00  0.00    +0.132 C 
ATOM      8  C   UNL     1      -3.196  -1.659  24.713  0.00  0.00    +0.202 C 
ATOM      9  O   UNL     1      -2.620  -2.192  24.966  0.00  0.00    -0.219 OA
ATOM     10  C   UNL     1      -3.843  -1.837  24.233  0.00  0.00    +0.184 C 
ATOM     11  O   UNL     1      -4.027  -2.579  23.922  0.00  0.00    -0.220 OA
ATOM     12  C   UNL     1      -4.273  -1.142  24.120  0.00  0.00    +0.042 C 
ATOM     13  C   UNL     1      -3.892  -0.536  24.529  0.00  0.00    +0.048 C 
ENDROOT
BRANCH  13  14
ATOM     14  C   UNL     1      -4.135   0.252  24.565  0.00  0.00    -0.020 A 
ATOM     15  C   UNL     1      -4.605   0.511  25.192  0.00  0.00    -0.001 A 
ATOM     16  C   UNL     1      -4.847   1.300  25.227  0.00  0.00    +0.037 A 
ATOM     17  C   UNL     1      -4.620   1.828  24.635  0.00  0.00    +0.139 A 
ATOM     20  C   UNL     1      -4.150   1.568  24.008  0.00  0.00    +0.037 A 
ATOM     21  C   UNL     1      -3.908   0.781  23.973  0.00  0.00    -0.001 A 
BRANCH  17  18
ATOM     18  O   UNL     1      -4.862   2.615  24.670  0.00  0.00    -0.471 OA
ATOM     19  C   UNL     1      -4.441   3.156  25.129  0.00  0.00    +0.252 C 
ENDBRANCH  17  18
ENDBRANCH  13  14
BRANCH   7   6
ATOM      4  C   UNL     1      -1.884  -0.452  25.171  0.00  0.00    +0.272 C 
ATOM      5  O   UNL     1      -1.622  -0.873  24.511  0.00  0.00    -0.271 OA
ATOM      6  N   UNL     1      -2.686  -0.443  25.364  0.00  0.00    -0.202 NA
BRANCH   4   3
ATOM      3  C   UNL     1      -1.343  -0.040  25.639  0.00  0.00    +0.229 C 
BRANCH   3   2
ATOM      1  C   UNL     1      -0.560   1.155  25.679  0.00  0.00    +0.175 C 
ATOM      2  O   UNL     1      -0.798   0.470  25.287  0.00  0.00    -0.342 OA
ENDBRANCH   3   2
ENDBRANCH   4   3
ENDBRANCH   7   6
TORSDOF 5
ENDMDL
MODEL 3
REMARK VINA RESULT:      -8.9      1.202      2.646
REMARK  Name = 
REMARK  5 active torsions:
REMARK  status: ('A' for Active; 'I' for Inactive)
REMARK    1  A    between atoms: O_2  and  C_3
REMARK    2  A    between atoms: C_3  and  C_4
REMARK    3  A    between atoms: N_6  and  C_7
REMARK    4  A    between atoms: C_13  and  C_14
REMARK    5  A    between atoms: C_17  and  O_18
REMARK                            x       y       z     vdW  Elec       q    Type
REMARK                         _______ _______ _______ _____ _____    ______ ____
ROOT
ATOM      7  C   UNL     1      -3.544   1.633  24.205  0.00  0.00    +0.132 C 
ATOM      8  C   UNL     1      -3.306   2.217  23.674  0.00  0.00    +0.202 C 
ATOM      9  O   UNL     1      -3.467   3.023  23.737  0.00  0.00    -0.219 OA
ATOM     10  C   UNL     1      -2.879   1.853  23.070  0.00  0.00    +0.184 C 
ATOM     11  O   UNL     1      -2.537   2.232  22.421  0.00  0.00    -0.220 OA
ATOM     12  C   UNL     1      -2.854   1.043  23.228  0.00  0.00    +0.042 C 
ATOM     13  C   UNL     1      -3.265   0.907  23.930  0.00  0.00    +0.048 C 
ENDROOT
BRANCH  13  14
ATOM     14  C   UNL     1      -3.377   0.174  24.292  0.00  0.00    -0.020 A 
ATOM     15  C   UNL     1      -3.938  -0.352  23.993  0.00  0.00    -0.001 A 
ATOM     16  C   UNL     1      -4.049  -1.085  24.356  0.00  0.00    +0.037 A 
ATOM     17  C   UNL     1      -3.600  -1.291  25.016  0.00  0.00    +0.139 A 
ATOM     20  C   UNL     1      -3.039  -0.764  25.315  0.00  0.00    +0.037 A 
ATOM     21  C   UNL     1      -2.928  -0.032  24.952  0.00  0.00    -0.001 A 
BRANCH  17  18
ATOM     18  O   UNL     1      -3.711  -2.023  25.378  0.00  0.00    -0.471 OA
ATOM     19  C   UNL     1      -3.423  -2.708  25.020  0.00  0.00    +0.252 C 
ENDBRANCH  17  18
ENDBRANCH  13  14
BRANCH   7   6
ATOM      4  C   UNL     1      -4.704   2.156  24.856  0.00  0.00    +0.272 C 
ATOM      5  O   UNL     1      -4.982   2.439  24.133  0.00  0.00    -0.271 OA
ATOM      6  N   UNL     1      -3.986   1.753  24.893  0.00  0.00    -0.202 NA
BRANCH   4   3
ATOM      3  C   UNL     1      -5.146   2.275  25.543  0.00  0.00    +0.229 C 
BRANCH   3   2
ATOM      1  C   UNL     1      -6.351   2.044  26.275  0.00  0.00    +0.175 C 
ATOM      2  O   UNL     1      -5.948   2.083  25.557  0.00  0.00    -0.342 OA
ENDBRANCH   3   2
ENDBRANCH   4   3
ENDBRANCH   7   6
TORSDOF 5
ENDMDL
MODEL 4
REMARK VINA RESULT:      -8.7      2.363      3.949
REMARK  Name = 
REMARK  5 active torsions:
REMARK  status: ('A' for Active; 'I' for Inactive)
REMARK    1  A    between atoms: O_2  and  C_3
REMARK    2  A    between atoms: C_3  and  C_4
REMARK    3  A    between atoms: N_6  and  C_7
REMARK    4  A    between atoms: C_13  and  C_14
REMARK    5  A    between atoms: C_17  and  O_18
REMARK                            x       y       z     vdW  Elec       q    Type
REMARK                         _______ _______ _______ _____ _____    ______ ____
ROOT
ATOM      7  C   UNL     1      -1.786   3.333  24.910  0.00  0.00    +0.132 C 
ATOM      8  C   UNL     1      -1.112   3.807  24.924  0.00  0.00    +0.202 C 
ATOM      9  O   UNL     1      -0.336   3.550  24.812  0.00  0.00    -0.219 OA
ATOM     10  C   UNL     1      -1.348   4.584  25.071  0.00  0.00    +0.184 C 
ATOM     11  O   UNL     1      -0.850   5.239  25.131  0.00  0.00    -0.220 OA
ATOM     12  C   UNL     1      -2.170   4.589  25.147  0.00  0.00    +0.042 C 
ATOM     13  C   UNL     1      -2.441   3.816  25.047  0.00  0.00    +0.048 C 
ENDROOT
BRANCH  13  14
ATOM     14  C   UNL     1      -3.228   3.570  25.080  0.00  0.00    -0.020 A 
ATOM     15  C   UNL     1      -3.623   3.550  25.803  0.00  0.00    -0.001 A 
ATOM     16  C   UNL     1      -4.411   3.304  25.834  0.00  0.00    +0.037 A 
ATOM     17  C   UNL     1      -4.801   3.079  25.143  0.00  0.00    +0.139 A 
ATOM     20  C   UNL     1      -4.405   3.099  24.420  0.00  0.00    +0.037 A 
ATOM     21  C   UNL     1      -3.618   3.345  24.388  0.00  0.00    -0.001 A 
BRANCH  17  18
ATOM     18  O   UNL     1      -5.587   2.833  25.175  0.00  0.00    -0.471 OA
ATOM     19  C   UNL     1      -5.769   2.028  25.159  0.00  0.00    +0.252 C 
ENDBRANCH  17  18
ENDBRANCH  13  14
BRANCH   7   6
ATOM      4  C   UNL     1      -1.344   2.017  25.246  0.00  0.00    +0.272 C 
ATOM      5  O   UNL     1      -0.866   2.329  25.841  0.00  0.00    -0.271 OA
ATOM      6  N   UNL     1      -1.804   2.518  24.780  0.00  0.00    -0.202 NA
BRANCH   4   3
ATOM      3  C   UNL     1      -1.362   1.201  25.116  0.00  0.00    +0.229 C 
BRANCH   3   2
ATOM      1  C   UNL     1      -1.281  -0.133  25.623  0.00  0.00    +0.175 C 
ATOM      2  O   UNL     1      -1.227   0.682  25.743  0.00  0.00    -0.342 OA
ENDBRANCH   3   2
ENDBRANCH   4   3
ENDBRANCH   7   6
TORSDOF 5
ENDMDL
MODEL 5
REMARK VINA RESULT:      -8.5      1.969      3.888
REMARK  Name = 
REMARK  5 active torsions:
REMARK  status: ('A' for Active; 'I' for Inactive)
REMARK    1  A    between atoms: O_2  and  C_3
REMARK    2  A    between atoms: C_3  and  C_4
REMARK    3  A    between atoms: N_6  and  C_7
REMARK    4  A    between atoms: C_13  and  C_14
REMARK    5  A    between atoms: C_17  and  O_18
REMARK                            x       y       z     vdW  Elec       q    Type
REMARK                         _______ _______ _______ _____ _____    ______ ____
ROOT
ATOM      7  C   UNL     1      -4.153   2.021  24.790  0.00  0.00    +0.132 C 
ATOM      8  C   UNL     1      -4.898   1.671  24.833  0.00  0.00    +0.202 C 
ATOM      9  O   UNL     1      -5.097   0.918  24.562  0.00  0.00    -0.219 OA
ATOM     10  C   UNL     1      -5.411   2.207  25.195  0.00  0.00    +0.184 C 
ATOM     11  O   UNL     1      -6.212   2.084  25.348  0.00  0.00    -0.220 OA
ATOM     12  C   UNL     1      -4.981   2.888  25.375  0.00  0.00    +0.042 C 
ATOM     13  C   UNL     1      -4.203   2.773  25.125  0.00  0.00    +0.048 C 
ENDROOT
BRANCH  13  14
ATOM     14  C   UNL     1      -3.585   3.315  25.197  0.00  0.00    -0.020 A 
ATOM     15  C   UNL     1      -3.325   3.733  24.536  0.00  0.00    -0.001 A 
ATOM     16  C   UNL     1      -2.706   4.275  24.609  0.00  0.00    +0.037 A 
ATOM     17  C   UNL     1      -2.350   4.398  25.343  0.00  0.00    +0.139 A 
ATOM     20  C   UNL     1      -2.611   3.979  26.004  0.00  0.00    +0.037 A 
ATOM     21  C   UNL     1      -3.229   3.438  25.931  0.00  0.00    -0.001 A 
BRANCH  17  18
ATOM     18  O   UNL     1      -1.733   4.939  25.416  0.00  0.00    -0.471 OA
ATOM     19  C   UNL     1      -1.013   4.798  25.037  0.00  0.00    +0.252 C 
ENDBRANCH  17  18
ENDBRANCH  13  14
BRANCH   7   6
ATOM      4  C   UNL     1      -3.230   0.932  24.721  0.00  0.00    +0.272 C 
ATOM      5  O   UNL     1      -3.664   0.528  25.295  0.00  0.00    -0.271 OA
ATOM      6  N   UNL     1      -3.474   1.678  24.468  0.00  0.00    -0.202 NA
BRANCH   4   3
ATOM      3  C   UNL     1      -2.551   0.589  24.399  0.00  0.00    +0.229 C 
BRANCH   3   2
ATOM      1  C   UNL     1      -1.297  -0.070  24.588  0.00  0.00    +0.175 C 
ATOM      2  O   UNL     1      -2.023   0.185  24.887  0.00  0.00    -0.342 OA
ENDBRANCH   3   2
ENDBRANCH   4   3
ENDBRANCH   7   6
TORSDOF 5
ENDMDL
