MODEL 1
REMARK VINA RESULT:     -10.7      0.000      0.000
REMARK  Name = 
REMARK  7 active torsions:
REMARK  status: ('A' for Active; 'I' for Inactive)
REMARK    1  A    between atoms: C_2  and  C_5
REMARK    2  A    between atoms: C_5  and  C_6
REMARK    3  A    between atoms: N_8  and  C_9
REMARK    4  A    between atoms: C_9  and  C_10
REMARK    5  A    between atoms: C_13  and  N_14
REMARK    6  A    between atoms: N_14  and  C_15
REMARK    7  A    between atoms: C_15  and  C_16
REMARK                            x       y       z     vdW  Elec       q    Type
REMARK                         _______ _______ _______ _____ _____    ______ ____
ROOT
ATOM     10  C   UNL     1      -3.703   2.076  24.609  0.00  0.00    +0.169 C 
ATOM     11  O   UNL     1      -4.291   1.881  25.153  0.00  0.00    -0.350 OA
ATOM     12  C   UNL     1      -4.438   1.072  25.092  0.00  0.00    +0.162 C 
ATOM     13  C   UNL     1      -3.941   0.766  24.508  0.00  0.00    +0.135 C 
ATOM     22  C   UNL     1      -3.486   1.386  24.210  0.00  0.00    +0.199 C 
ATOM     23  O   UNL     1      -2.916   1.328  23.617  0.00  0.00    -0.219 OA
ENDROOT
BRANCH  10   9
ATOM      9  C   UNL     1      -3.386   2.827  24.484  0.00  0.00    +0.147 C 
BRANCH   9   8
ATOM      6  C   UNL     1      -2.563   3.911  24.920  0.00  0.00    +0.241 C 
ATOM      7  O   UNL     1      -2.809   4.358  24.273  0.00  0.00    -0.273 OA
ATOM      8  N   UNL     1      -2.852   3.144  25.026  0.00  0.00    -0.203 NA
BRANCH   6   5
ATOM      5  C   UNL     1      -2.028   4.228  25.463  0.00  0.00    +0.087 C 
BRANCH   5   2
ATOM      1  C   UNL     1      -0.786   5.178  24.937  0.00  0.00    +0.000 C 
ATOM      2  C   UNL     1      -1.407   4.703  25.200  0.00  0.00    +0.009 C 
ATOM      3  C   UNL     1      -0.917   4.040  25.160  0.00  0.00    +0.000 C 
ATOM      4  C   UNL     1      -1.897   5.365  25.239  0.00  0.00    +0.000 C 
ENDBRANCH   5   2
ENDBRANCH   6   5
ENDBRANCH   9   8
ENDBRANCH  10   9
BRANCH  13  14
ATOM     14  N   UNL     1      -3.905  -0.022  24.266  0.00  0.00    -0.209 NA
BRANCH  14  15
ATOM     15  C   UNL     1      -4.162  -0.621  24.773  0.00  0.00    +0.115 C 
BRANCH  15  16
ATOM     16  C   UNL     1      -3.978  -1.408  24.607  0.00  0.00    -0.005 A 
ATOM     17  C   UNL     1      -3.486  -1.833  25.115  0.00  0.00    -0.003 A 
ATOM     18  C   UNL     1      -3.303  -2.620  24.949  0.00  0.00    -0.000 A 
ATOM     19  C   UNL     1      -3.611  -2.982  24.274  0.00  0.00    -0.000 A 
ATOM     20  C   UNL     1      -4.102  -2.556  23.766  0.00  0.00    -0.000 A 
ATOM     21  C   UNL     1      -4.286  -1.770  23.932  0.00  0.00    -0.003 A 
ENDBRANCH  15  16
ENDBRANCH  14  15
ENDBRANCH  13  14
TORSDOF 7
ENDMDL
MODEL 2
REMARK VINA RESULT:     -10.2      1.648      5.870
REMARK  Name = 
REMARK  7 active torsions:
REMARK  status: ('A' for Active; 'I' for Inactive)
REMARK    1  A    between atoms: C_2  and  C_5
REMARK    2  A    between atoms: C_5  and  C_6
REMARK    3  A    between atoms: N_8  and  C_9
REMARK    4  A    between atoms: C_9  and  C_10
REMARK    5  A    between atoms: C_13  and  N_14
REMARK    6  A    between atoms: N_14  and  C_15
REMARK    7  A    between atoms: C_15  and  C_16
REMARK                            x       y       z     vdW  Elec       q    Type
REMARK                         _______ _______ _______ _____ _____    ______ ____
ROOT
ATOM     10  C   UNL     1      -1.424   0.318  24.954  0.00  0.00    +0.169 C 
ATOM     11  O   UNL     1      -1.097   0.453  25.699  0.00  0.00    -0.350 OA
ATOM     12  C   UNL     1      -0.936   1.259  25.764  0.00  0.00    +0.162 C 
ATOM     13  C   UNL     1      -1.163   1.622  25.059  0.00  0.00    +0.135 C 
ATOM     22  C   UNL     1      -1.465   1.041  24.558  0.00  0.00    +0.199 C 
ATOM     23  O   UNL     1      -1.756   1.161  23.797  0.00  0.00    -0.219 OA
ENDROOT
BRANCH  10   9
ATOM      9  C   UNL     1      -1.669  -0.412  24.657  0.00  0.00    +0.147 C 
BRANCH   9   8
ATOM      6  C   UNL     1      -2.589  -1.506  24.673  0.00  0.00    +0.241 C 
ATOM      7  O   UNL     1      -2.080  -1.941  24.192  0.00  0.00    -0.273 OA
ATOM      8  N   UNL     1      -2.383  -0.740  24.906  0.00  0.00    -0.203 NA
BRANCH   6   5
ATOM      5  C   UNL     1      -3.304  -1.834  24.922  0.00  0.00    +0.087 C 
BRANCH   5   2
ATOM      1  C   UNL     1      -4.192  -2.758  23.883  0.00  0.00    +0.000 C 
ATOM      2  C   UNL     1      -3.748  -2.296  24.402  0.00  0.00    +0.009 C 
ATOM      3  C   UNL     1      -3.371  -2.974  24.683  0.00  0.00    +0.000 C 
ATOM      4  C   UNL     1      -4.125  -1.618  24.122  0.00  0.00    +0.000 C 
ENDBRANCH   5   2
ENDBRANCH   6   5
ENDBRANCH   9   8
ENDBRANCH  10   9
BRANCH  13  14
ATOM     14  N   UNL     1      -1.099   2.427  24.885  0.00  0.00    -0.209 NA
BRANCH  14  15
ATOM     15  C   UNL     1      -1.072   2.980  25.497  0.00  0.00    +0.115 C 
BRANCH  15  16
ATOM     16  C   UNL     1      -1.185   3.780  25.334  0.00  0.00    -0.005 A 
ATOM     17  C   UNL     1      -1.894   4.148  25.542  0.00  0.00    -0.003 A 
ATOM     18  C   UNL     1      -2.007   4.948  25.378  0.00  0.00    -0.000 A 
ATOM     19  C   UNL     1      -1.411   5.382  25.007  0.00  0.00    -0.000 A 
ATOM     20  C   UNL     1      -0.702   5.014  24.799  0.00  0.00    -0.000 A 
ATOM     21  C   UNL     1      -0.589   4.214  24.963  0.00  0.00    -0.003 A 
ENDBRANCH  15  16
ENDBRANCH  14  15
ENDBRANCH  13  14
TORSDOF 7
ENDMDL
MODEL 3
REMARK VINA RESULT:     -10.0      1.569      1.798
REMARK  Name = 
REMARK  7 active torsions:
REMARK  status: ('A' for Active; 'I' for Inactive)
REMARK    1  A    between atoms: C_2  and  C_5
REMARK    2  A    between atoms: C_5  and  C_6
REMARK    3  A    between atoms: N_8  and  C_9
REMARK    4  A    between atoms: C_9  and  C_10
REMARK    5  A    between atoms: C_13  and  N_14
REMARK    6  A    between atoms: N_14  and  C_15
REMARK    7  A    between atoms: C_15  and  C_16
REMARK                            x       y       z     vdW  Elec       q    Type
REMARK                         _______ _______ _______ _____ _____    ______ ____
ROOT
ATOM     10  C   UNL     1      -1.122   1.240  24.902  0.00  0.00    +0.169 C 
ATOM     11  O   UNL     1      -1.057   0.878  25.640  0.00  0.00    -0.350 OA
ATOM     12  C   UNL     1      -1.422   0.140  25.596  0.00  0.00    +0.162 C 
ATOM     13  C   UNL     1      -1.714   0.046  24.830  0.00  0.00    +0.135 C 
ATOM     22  C   UNL     1      -1.529   0.725  24.401  0.00  0.00    +0.199 C 
ATOM     23  O   UNL     1      -1.716   0.865  23.610  0.00  0.00    -0.219 OA
ENDROOT
BRANCH  10   9
ATOM      9  C   UNL     1      -0.832   1.985  24.699  0.00  0.00    +0.147 C 
BRANCH   9   8
ATOM      6  C   UNL     1      -0.790   3.392  24.948  0.00  0.00    +0.241 C 
ATOM      7  O   UNL     1      -0.524   3.520  24.178  0.00  0.00    -0.273 OA
ATOM      8  N   UNL     1      -0.945   2.623  25.209  0.00  0.00    -0.203 NA
BRANCH   6   5
ATOM      5  C   UNL     1      -0.903   4.030  25.458  0.00  0.00    +0.087 C 
BRANCH   5   2
ATOM      1  C   UNL     1      -1.670   5.389  24.921  0.00  0.00    +0.000 C 
ATOM      2  C   UNL     1      -1.286   4.710  25.189  0.00  0.00    +0.009 C 
ATOM      3  C   UNL     1      -0.583   4.971  24.847  0.00  0.00    +0.000 C 
ATOM      4  C   UNL     1      -1.990   4.448  25.532  0.00  0.00    +0.000 C 
ENDBRANCH   5   2
ENDBRANCH   6   5
ENDBRANCH   9   8
ENDBRANCH  10   9
BRANCH  13  14
ATOM     14  N   UNL     1      -2.120  -0.614  24.544  0.00  0.00    -0.209 NA
BRANCH  14  15
ATOM     15  C   UNL     1      -2.726  -0.951  24.991  0.00  0.00    +0.115 C 
BRANCH  15  16
ATOM     16  C   UNL     1      -3.191  -1.551  24.669  0.00  0.00    -0.005 A 
ATOM     17  C   UNL     1      -2.984  -2.342  24.786  0.00  0.00    -0.003 A 
ATOM     18  C   UNL     1      -3.449  -2.941  24.463  0.00  0.00    -0.000 A 
ATOM     19  C   UNL     1      -4.121  -2.752  24.023  0.00  0.00    -0.000 A 
ATOM     20  C   UNL     1      -4.327  -1.962  23.907  0.00  0.00    -0.000 A 
ATOM     21  C   UNL     1      -3.862  -1.362  24.229  0.00  0.00    -0.003 A 
ENDBRANCH  15  16
ENDBRANCH  14  15
ENDBRANCH  13  14
TORSDOF 7
ENDMDL
