MODEL 1
REMARK VINA RESULT:     -16.8      0.000      0.000
REMARK  Name = 
REMARK  3 active torsions:
REMARK  status: ('A' for Active; 'I' for Inactive)
REMARK    1  A    between atoms: S_2  and  C_3
REMARK    2  A    between atoms: C_3  and  C_4
REMARK    3  A    between atoms: C_15  and  C_20
REMARK                            x       y       z     vdW  Elec       q    Type
REMARK                         _______ _______ _______ _____ _____    ______ ____
ROOT
ATOM      4  C   UNL     1      -2.905   1.989  24.439  0.00  0.00    +0.237 C 
ATOM      5  O   UNL     1      -2.136   1.968  24.143  0.00  0.00    -0.274 OA
ATOM      6  N   UNL     1      -3.292   2.712  24.533  0.00  0.00    -0.278 N 
ATOM      7  C   UNL     1      -3.414   3.539  24.515  0.00  0.00    +0.095 C 
ATOM      8  C   UNL     1      -4.336   3.577  24.869  0.00  0.00    +0.043 C 
ATOM      9  C   UNL     1      -5.078   3.777  25.140  0.00  0.00    +0.011 C 
ATOM     10  C   UNL     1      -4.702   3.193  25.040  0.00  0.00    +0.058 C 
ATOM     11  C   UNL     1      -3.811   3.172  24.697  0.00  0.00    +0.099 C 
ATOM     12  C   UNL     1      -4.752   2.280  25.130  0.00  0.00    +0.041 A 
ATOM     13  C   UNL     1      -5.270   1.688  25.377  0.00  0.00    +0.013 A 
ATOM     14  C   UNL     1      -5.037   0.897  25.348  0.00  0.00    +0.006 A 
ATOM     15  C   UNL     1      -4.285   0.698  25.073  0.00  0.00    +0.056 A 
ATOM     16  C   UNL     1      -3.766   1.290  24.826  0.00  0.00    +0.261 A 
ATOM     17  O   UNL     1      -3.255   0.660  24.678  0.00  0.00    -0.267 OA
ATOM     18  N   UNL     1      -4.000   2.081  24.855  0.00  0.00    -0.299 N 
ATOM     19  C   UNL     1      -4.379   2.623  24.959  0.00  0.00    +0.110 C 
ENDROOT
BRANCH  15  20
ATOM     20  C   UNL     1      -4.053  -0.092  25.044  0.00  0.00    +0.005 A 
ATOM     21  C   UNL     1      -3.576  -0.403  25.641  0.00  0.00    +0.000 A 
ATOM     22  C   UNL     1      -3.343  -1.194  25.614  0.00  0.00    +0.000 A 
ATOM     23  C   UNL     1      -3.587  -1.674  24.989  0.00  0.00    +0.000 A 
ATOM     24  C   UNL     1      -3.354  -2.466  24.961  0.00  0.00    +0.000 A 
ATOM     25  C   UNL     1      -3.599  -2.946  24.335  0.00  0.00    +0.000 A 
ATOM     26  C   UNL     1      -4.075  -2.635  23.739  0.00  0.00    +0.000 A 
ATOM     27  C   UNL     1      -4.308  -1.844  23.767  0.00  0.00    +0.000 A 
ATOM     28  C   UNL     1      -4.064  -1.364  24.391  0.00  0.00    +0.000 A 
ATOM     29  C   UNL     1      -4.297  -0.572  24.419  0.00  0.00    +0.000 A 
ENDBRANCH  15  20
BRANCH   4   3
ATOM      3  C   UNL     1      -3.289   1.287  24.642  0.00  0.00    +0.143 C 
BRANCH   3   2
ATOM      1  C   UNL     1      -2.097   0.553  24.354  0.00  0.00    +0.070 C 
ATOM      2  S   UNL     1      -2.883   0.570  24.602  0.00  0.00    -0.130 S 
ENDBRANCH   3   2
ENDBRANCH   4   3
TORSDOF 3
ENDMDL
MODEL 2
REMARK VINA RESULT:     -15.5      1.289      4.151
REMARK  Name = 
REMARK  3 active torsions:
REMARK  status: ('A' for Active; 'I' for Inactive)
REMARK    1  A    between atoms: S_2  and  C_3
REMARK    2  A    between atoms: C_3  and  C_4
REMARK    3  A    between atoms: C_15  and  C_20
REMARK                            x       y       z     vdW  Elec       q    Type
REMARK                         _______ _______ _______ _____ _____    ______ ____
ROOT
ATOM      4  C   UNL     1      -1.987  -0.683  25.016  0.00  0.00    +0.237 C 
ATOM      5  O   UNL     1      -1.275  -0.411  25.330  0.00  0.00    -0.274 OA
ATOM      6  N   UNL     1      -2.126  -1.494  24.951  0.00  0.00    -0.278 N 
ATOM      7  C   UNL     1      -1.986  -2.316  25.009  0.00  0.00    +0.095 C 
ATOM      8  C   UNL     1      -2.835  -2.655  24.635  0.00  0.00    +0.043 C 
ATOM      9  C   UNL     1      -3.467  -3.088  24.355  0.00  0.00    +0.011 C 
ATOM     10  C   UNL     1      -3.295  -2.412  24.434  0.00  0.00    +0.058 C 
ATOM     11  C   UNL     1      -2.469  -2.099  24.798  0.00  0.00    +0.099 C 
ATOM     12  C   UNL     1      -3.622  -1.564  24.294  0.00  0.00    +0.041 A 
ATOM     13  C   UNL     1      -4.288  -1.175  24.003  0.00  0.00    +0.013 A 
ATOM     14  C   UNL     1      -4.313  -0.350  23.996  0.00  0.00    +0.006 A 
ATOM     15  C   UNL     1      -3.672   0.085  24.279  0.00  0.00    +0.056 A 
ATOM     16  C   UNL     1      -3.006  -0.305  24.570  0.00  0.00    +0.261 A 
ATOM     17  O   UNL     1      -2.722   0.459  24.698  0.00  0.00    -0.267 OA
ATOM     18  N   UNL     1      -2.981  -1.129  24.578  0.00  0.00    -0.299 N 
ATOM     19  C   UNL     1      -3.168  -1.766  24.492  0.00  0.00    +0.110 C 
ENDROOT
BRANCH  15  20
ATOM     20  C   UNL     1      -3.698   0.909  24.272  0.00  0.00    +0.005 A 
ATOM     21  C   UNL     1      -3.278   1.329  23.699  0.00  0.00    +0.000 A 
ATOM     22  C   UNL     1      -3.303   2.153  23.691  0.00  0.00    +0.000 A 
ATOM     23  C   UNL     1      -3.748   2.558  24.255  0.00  0.00    +0.000 A 
ATOM     24  C   UNL     1      -3.774   3.383  24.247  0.00  0.00    +0.000 A 
ATOM     25  C   UNL     1      -4.219   3.787  24.812  0.00  0.00    +0.000 A 
ATOM     26  C   UNL     1      -4.639   3.368  25.384  0.00  0.00    +0.000 A 
ATOM     27  C   UNL     1      -4.614   2.543  25.392  0.00  0.00    +0.000 A 
ATOM     28  C   UNL     1      -4.168   2.139  24.828  0.00  0.00    +0.000 A 
ATOM     29  C   UNL     1      -4.143   1.313  24.836  0.00  0.00    +0.000 A 
ENDBRANCH  15  20
BRANCH   4   3
ATOM      3  C   UNL     1      -2.561  -0.145  24.766  0.00  0.00    +0.143 C 
BRANCH   3   2
ATOM      1  C   UNL     1      -1.729   0.938  25.188  0.00  0.00    +0.070 C 
ATOM      2  S   UNL     1      -2.429   0.665  24.849  0.00  0.00    -0.130 S 
ENDBRANCH   3   2
ENDBRANCH   4   3
TORSDOF 3
ENDMDL
MODEL 3
REMARK VINA RESULT:     -15.4      1.163      2.045
REMARK  Name = 
REMARK  3 active torsions:
REMARK  status: ('A' for Active; 'I' for Inactive)
REMARK    1  A    between atoms: S_2  and  C_3
REMARK    2  A    between atoms: C_3  and  C_4
REMARK    3  A    between atoms: C_15  and  C_20
REMARK                            x       y       z     vdW  Elec       q    Type
REMARK                         _______ _______ _______ _____ _____    ______ ____
ROOT
ATOM      4  C   UNL     1      -4.157   2.740  25.319  0.00  0.00    +0.237 C 
ATOM      5  O   UNL     1      -4.972   2.777  25.441  0.00  0.00    -0.274 OA
ATOM      6  N   UNL     1      -3.688   3.405  25.463  0.00  0.00    -0.278 N 
ATOM      7  C   UNL     1      -3.491   4.187  25.680  0.00  0.00    +0.095 C 
ATOM      8  C   UNL     1      -2.514   4.157  25.537  0.00  0.00    +0.043 C 
ATOM      9  C   UNL     1      -1.714   4.294  25.471  0.00  0.00    +0.011 C 
ATOM     10  C   UNL     1      -2.159   3.762  25.366  0.00  0.00    +0.058 C 
ATOM     11  C   UNL     1      -3.102   3.807  25.508  0.00  0.00    +0.099 C 
ATOM     12  C   UNL     1      -2.182   2.885  25.095  0.00  0.00    +0.041 A 
ATOM     13  C   UNL     1      -1.683   2.280  24.838  0.00  0.00    +0.013 A 
ATOM     14  C   UNL     1      -1.995   1.540  24.649  0.00  0.00    +0.006 A 
ATOM     15  C   UNL     1      -2.806   1.405  24.717  0.00  0.00    +0.056 A 
ATOM     16  C   UNL     1      -3.305   2.009  24.974  0.00  0.00    +0.261 A 
ATOM     17  O   UNL     1      -3.897   1.443  24.878  0.00  0.00    -0.267 OA
ATOM     18  N   UNL     1      -2.993   2.749  25.163  0.00  0.00    -0.299 N 
ATOM     19  C   UNL     1      -2.548   3.240  25.255  0.00  0.00    +0.110 C 
ENDROOT
BRANCH  15  20
ATOM     20  C   UNL     1      -3.117   0.665  24.529  0.00  0.00    +0.005 A 
ATOM     21  C   UNL     1      -3.516   0.555  23.815  0.00  0.00    +0.000 A 
ATOM     22  C   UNL     1      -3.828  -0.185  23.625  0.00  0.00    +0.000 A 
ATOM     23  C   UNL     1      -3.740  -0.815  24.149  0.00  0.00    +0.000 A 
ATOM     24  C   UNL     1      -4.052  -1.556  23.960  0.00  0.00    +0.000 A 
ATOM     25  C   UNL     1      -3.964  -2.187  24.485  0.00  0.00    +0.000 A 
ATOM     26  C   UNL     1      -3.565  -2.078  25.198  0.00  0.00    +0.000 A 
ATOM     27  C   UNL     1      -3.254  -1.338  25.387  0.00  0.00    +0.000 A 
ATOM     28  C   UNL     1      -3.341  -0.707  24.863  0.00  0.00    +0.000 A 
ATOM     29  C   UNL     1      -3.030   0.034  25.053  0.00  0.00    +0.000 A 
ENDBRANCH  15  20
BRANCH   4   3
ATOM      3  C   UNL     1      -3.810   2.040  25.053  0.00  0.00    +0.143 C 
BRANCH   3   2
ATOM      1  C   UNL     1      -5.100   1.430  24.975  0.00  0.00    +0.070 C 
ATOM      2  S   UNL     1      -4.283   1.389  24.872  0.00  0.00    -0.130 S 
ENDBRANCH   3   2
ENDBRANCH   4   3
TORSDOF 3
ENDMDL
MODEL 4
REMARK VINA RESULT:     -13.8      1.857      4.404
REMARK  Name = 
REMARK  3 active torsions:
REMARK  status: ('A' for Active; 'I' for Inactive)
REMARK    1  A    between atoms: S_2  and  C_3
REMARK    2  A    between atoms: C_3  and  C_4
REMARK    3  A    between atoms: C_15  and  C_20
REMARK                            x       y       z     vdW  Elec       q    Type
REMARK                         _______ _______ _______ _____ _____    ______ ____
ROOT
ATOM      4  C   UNL     1      -3.565  -0.141  24.133  0.00  0.00    +0.237 C 
ATOM      5  O   UNL     1      -4.067   0.470  23.899  0.00  0.00    -0.274 OA
ATOM      6  N   UNL     1      -3.843  -0.917  24.158  0.00  0.00    -0.278 N 
ATOM      7  C   UNL     1      -4.377  -1.556  24.090  0.00  0.00    +0.095 C 
ATOM      8  C   UNL     1      -3.785  -2.297  24.368  0.00  0.00    +0.043 C 
ATOM      9  C   UNL     1      -3.435  -3.004  24.569  0.00  0.00    +0.011 C 
ATOM     10  C   UNL     1      -3.252  -2.328  24.529  0.00  0.00    +0.058 C 
ATOM     11  C   UNL     1      -3.837  -1.623  24.258  0.00  0.00    +0.099 C 
ATOM     12  C   UNL     1      -2.538  -1.765  24.662  0.00  0.00    +0.041 A 
ATOM     13  C   UNL     1      -1.748  -1.777  24.897  0.00  0.00    +0.013 A 
ATOM     14  C   UNL     1      -1.315  -1.075  24.926  0.00  0.00    +0.006 A 
ATOM     15  C   UNL     1      -1.674  -0.361  24.721  0.00  0.00    +0.056 A 
ATOM     16  C   UNL     1      -2.464  -0.348  24.486  0.00  0.00    +0.261 A 
ATOM     17  O   UNL     1      -2.339   0.463  24.410  0.00  0.00    -0.267 OA
ATOM     18  N   UNL     1      -2.896  -1.050  24.456  0.00  0.00    -0.299 N 
ATOM     19  C   UNL     1      -3.045  -1.701  24.503  0.00  0.00    +0.110 C 
ENDROOT
BRANCH  15  20
ATOM     20  C   UNL     1      -1.241   0.340  24.751  0.00  0.00    +0.005 A 
ATOM     21  C   UNL     1      -0.904   0.647  24.063  0.00  0.00    +0.000 A 
ATOM     22  C   UNL     1      -0.471   1.348  24.092  0.00  0.00    +0.000 A 
ATOM     23  C   UNL     1      -0.374   1.743  24.810  0.00  0.00    +0.000 A 
ATOM     24  C   UNL     1       0.059   2.446  24.840  0.00  0.00    +0.000 A 
ATOM     25  C   UNL     1       0.156   2.840  25.558  0.00  0.00    +0.000 A 
ATOM     26  C   UNL     1      -0.180   2.534  26.246  0.00  0.00    +0.000 A 
ATOM     27  C   UNL     1      -0.613   1.832  26.216  0.00  0.00    +0.000 A 
ATOM     28  C   UNL     1      -0.710   1.438  25.499  0.00  0.00    +0.000 A 
ATOM     29  C   UNL     1      -1.144   0.735  25.469  0.00  0.00    +0.000 A 
ENDBRANCH  15  20
BRANCH   4   3
ATOM      3  C   UNL     1      -2.783   0.024  24.340  0.00  0.00    +0.143 C 
BRANCH   3   2
ATOM      1  C   UNL     1      -2.949   1.372  23.896  0.00  0.00    +0.070 C 
ATOM      2  S   UNL     1      -2.477   0.781  24.223  0.00  0.00    -0.130 S 
ENDBRANCH   3   2
ENDBRANCH   4   3
TORSDOF 3
ENDMDL
