MODEL 1
REMARK VINA RESULT:     -13.1      0.000      0.000
REMARK  Name = 
REMARK  8 active torsions:
REMARK  status: ('A' for Active; 'I' for Inactive)
REMARK    1  A    between atoms: O_2  and  C_3
REMARK    2  A    between atoms: C_3  and  C_5
REMARK    3  A    between atoms: C_18  and  N_33
REMARK    4  A    between atoms: C_20  and  C_22
REMARK    5  A    between atoms: C_25  and  O_26
REMARK    6  A    between atoms: O_26  and  C_27
REMARK    7  A    between atoms: N_33  and  C_34
REMARK    8  A    between atoms: C_34  and  C_35
REMARK                            x       y       z     vdW  Elec       q    Type
REMARK                         _______ _______ _______ _____ _____    ______ ____
ROOT
ATOM      5  C   UNL     1      -2.412   1.315  24.750  0.00  0.00    +0.162 C 
ATOM      6  C   UNL     1      -1.830   1.899  24.751  0.00  0.00    +0.055 C 
ATOM      7  C   UNL     1      -2.038   2.688  24.876  0.00  0.00    -0.004 A 
ATOM      8  C   UNL     1      -2.828   2.892  25.000  0.00  0.00    +0.070 A 
ATOM      9  N   UNL     1      -2.866   3.709  25.107  0.00  0.00    -0.249 NA
ATOM     10  C   UNL     1      -2.101   4.011  25.049  0.00  0.00    +0.081 A 
ATOM     11  C   UNL     1      -1.589   3.379  24.907  0.00  0.00    +0.015 A 
ATOM     12  C   UNL     1      -0.779   3.515  24.823  0.00  0.00    +0.001 A 
ATOM     13  C   UNL     1      -0.482   4.283  24.882  0.00  0.00    +0.000 A 
ATOM     14  C   UNL     1      -0.994   4.914  25.025  0.00  0.00    +0.002 A 
ATOM     15  C   UNL     1      -1.804   4.778  25.109  0.00  0.00    +0.019 A 
ATOM     16  C   UNL     1      -3.410   2.307  24.999  0.00  0.00    +0.100 C 
ATOM     17  C   UNL     1      -4.200   2.510  25.122  0.00  0.00    +0.040 C 
ATOM     18  C   UNL     1      -4.781   1.926  25.121  0.00  0.00    +0.076 C 
ATOM     19  C   UNL     1      -4.573   1.137  24.997  0.00  0.00    +0.038 C 
ATOM     20  C   UNL     1      -3.783   0.934  24.873  0.00  0.00    +0.082 C 
ATOM     21  N   UNL     1      -3.202   1.518  24.874  0.00  0.00    -0.258 NA
ENDROOT
BRANCH  20  22
ATOM     22  C   UNL     1      -3.576   0.145  24.748  0.00  0.00    -0.008 A 
ATOM     23  C   UNL     1      -3.569  -0.164  23.984  0.00  0.00    +0.000 A 
ATOM     24  C   UNL     1      -3.361  -0.953  23.860  0.00  0.00    +0.037 A 
ATOM     25  C   UNL     1      -3.161  -1.433  24.502  0.00  0.00    +0.147 A 
ATOM     31  C   UNL     1      -3.169  -1.124  25.266  0.00  0.00    +0.037 A 
ATOM     32  C   UNL     1      -3.376  -0.335  25.390  0.00  0.00    +0.000 A 
BRANCH  25  26
ATOM     26  O   UNL     1      -2.954  -2.222  24.377  0.00  0.00    -0.404 OA
BRANCH  26  27
ATOM     27  C   UNL     1      -3.513  -2.818  24.487  0.00  0.00    +0.575 C 
ATOM     28  F   UNL     1      -4.073  -3.415  24.597  0.00  0.00    -0.133 F 
ATOM     29  F   UNL     1      -3.776  -2.714  23.711  0.00  0.00    -0.133 F 
ATOM     30  F   UNL     1      -3.250  -2.922  25.262  0.00  0.00    -0.133 F 
ENDBRANCH  26  27
ENDBRANCH  25  26
ENDBRANCH  20  22
BRANCH   5   3
ATOM      3  C   UNL     1      -2.204   0.526  24.626  0.00  0.00    +0.332 C 
ATOM      4  O   UNL     1      -2.282  -0.234  24.314  0.00  0.00    -0.249 OA
BRANCH   3   2
ATOM      1  C   UNL     1      -0.830   0.143  24.549  0.00  0.00    +0.256 C 
ATOM      2  O   UNL     1      -1.528   0.216  24.983  0.00  0.00    -0.443 OA
ENDBRANCH   3   2
ENDBRANCH   5   3
BRANCH  18  33
ATOM     33  N   UNL     1      -5.571   2.129  25.245  0.00  0.00    -0.217 NA
BRANCH  33  34
ATOM     34  C   UNL     1      -5.843   2.281  26.009  0.00  0.00    +0.124 C 
BRANCH  34  35
ATOM     35  C   UNL     1      -6.626   2.113  26.209  0.00  0.00    +0.201 C 
ATOM     36  O   UNL     1      -6.839   2.025  27.002  0.00  0.00    -0.219 OA
ENDBRANCH  34  35
ENDBRANCH  33  34
ENDBRANCH  18  33
TORSDOF 8
ENDMDL
MODEL 2
REMARK VINA RESULT:     -13.0      1.443      3.324
REMARK  Name = 
REMARK  8 active torsions:
REMARK  status: ('A' for Active; 'I' for Inactive)
REMARK    1  A    between atoms: O_2  and  C_3
REMARK    2  A    between atoms: C_3  and  C_5
REMARK    3  A    between atoms: C_18  and  N_33
REMARK    4  A    between atoms: C_20  and  C_22
REMARK    5  A    between atoms: C_25  and  O_26
REMARK    6  A    between atoms: O_26  and  C_27
REMARK    7  A    between atoms: N_33  and  C_34
REMARK    8  A    between atoms: C_34  and  C_35
REMARK                            x       y       z     vdW  Elec       q    Type
REMARK                         _______ _______ _______ _____ _____    ______ ____
ROOT
ATOM      5  C   UNL     1      -2.464   1.508  24.793  0.00  0.00    +0.162 C 
ATOM      6  C   UNL     1      -2.555   2.312  24.952  0.00  0.00    +0.055 C 
ATOM      7  C   UNL     1      -1.908   2.820  24.891  0.00  0.00    -0.004 A 
ATOM      8  C   UNL     1      -1.170   2.525  24.671  0.00  0.00    +0.070 A 
ATOM      9  N   UNL     1      -0.637   3.154  24.657  0.00  0.00    -0.249 NA
ATOM     10  C   UNL     1      -1.045   3.840  24.869  0.00  0.00    +0.081 A 
ATOM     11  C   UNL     1      -1.831   3.633  25.014  0.00  0.00    +0.015 A 
ATOM     12  C   UNL     1      -2.375   4.211  25.238  0.00  0.00    +0.001 A 
ATOM     13  C   UNL     1      -2.133   4.997  25.318  0.00  0.00    +0.000 A 
ATOM     14  C   UNL     1      -1.346   5.203  25.173  0.00  0.00    +0.002 A 
ATOM     15  C   UNL     1      -0.803   4.624  24.948  0.00  0.00    +0.019 A 
ATOM     16  C   UNL     1      -1.079   1.720  24.512  0.00  0.00    +0.100 C 
ATOM     17  C   UNL     1      -0.342   1.424  24.292  0.00  0.00    +0.040 C 
ATOM     18  C   UNL     1      -0.251   0.620  24.132  0.00  0.00    +0.076 C 
ATOM     19  C   UNL     1      -0.898   0.112  24.193  0.00  0.00    +0.038 C 
ATOM     20  C   UNL     1      -1.635   0.408  24.414  0.00  0.00    +0.082 C 
ATOM     21  N   UNL     1      -1.726   1.212  24.573  0.00  0.00    -0.258 NA
ENDROOT
BRANCH  20  22
ATOM     22  C   UNL     1      -2.282  -0.101  24.474  0.00  0.00    -0.008 A 
ATOM     23  C   UNL     1      -2.780  -0.214  23.828  0.00  0.00    +0.000 A 
ATOM     24  C   UNL     1      -3.427  -0.723  23.889  0.00  0.00    +0.037 A 
ATOM     25  C   UNL     1      -3.574  -1.119  24.598  0.00  0.00    +0.147 A 
ATOM     31  C   UNL     1      -3.075  -1.006  25.245  0.00  0.00    +0.037 A 
ATOM     32  C   UNL     1      -2.429  -0.497  25.183  0.00  0.00    +0.000 A 
BRANCH  25  26
ATOM     26  O   UNL     1      -4.221  -1.629  24.659  0.00  0.00    -0.404 OA
BRANCH  26  27
ATOM     27  C   UNL     1      -4.188  -2.380  24.321  0.00  0.00    +0.575 C 
ATOM     28  F   UNL     1      -4.155  -3.132  23.983  0.00  0.00    -0.133 F 
ATOM     29  F   UNL     1      -4.552  -2.089  23.640  0.00  0.00    -0.133 F 
ATOM     30  F   UNL     1      -3.824  -2.670  25.002  0.00  0.00    -0.133 F 
ENDBRANCH  26  27
ENDBRANCH  25  26
ENDBRANCH  20  22
BRANCH   5   3
ATOM      3  C   UNL     1      -3.111   1.000  24.854  0.00  0.00    +0.332 C 
ATOM      4  O   UNL     1      -3.510   0.310  25.067  0.00  0.00    -0.249 OA
BRANCH   3   2
ATOM      1  C   UNL     1      -4.427   1.518  25.056  0.00  0.00    +0.256 C 
ATOM      2  O   UNL     1      -3.844   1.226  24.550  0.00  0.00    -0.443 OA
ENDBRANCH   3   2
ENDBRANCH   5   3
BRANCH  18  33
ATOM     33  N   UNL     1       0.488   0.324  23.912  0.00  0.00    -0.217 NA
BRANCH  33  34
ATOM     34  C   UNL     1       0.662   0.201  23.115  0.00  0.00    +0.124 C 
BRANCH  34  35
ATOM     35  C   UNL     1       1.423  -0.023  22.889  0.00  0.00    +0.201 C 
ATOM     36  O   UNL     1       1.601  -0.130  22.090  0.00  0.00    -0.219 OA
ENDBRANCH  34  35
ENDBRANCH  33  34
ENDBRANCH  18  33
TORSDOF 8
ENDMDL
MODEL 3
REMARK VINA RESULT:     -12.6      2.650      4.617
REMARK  Name = 
REMARK  8 active torsions:
REMARK  status: ('A' for Active; 'I' for Inactive)
REMARK    1  A    between atoms: O_2  and  C_3
REMARK    2  A    between atoms: C_3  and  C_5
REMARK    3  A    between atoms: C_18  and  N_33
REMARK    4  A    between atoms: C_20  and  C_22
REMARK    5  A    between atoms: C_25  and  O_26
REMARK    6  A    between atoms: O_26  and  C_27
REMARK    7  A    between atoms: N_33  and  C_34
REMARK    8  A    between atoms: C_34  and  C_35
REMARK                            x       y       z     vdW  Elec       q    Type
REMARK                         _______ _______ _______ _____ _____    ______ ____
ROOT
ATOM      5  C   UNL     1      -2.180   0.809  24.784  0.00  0.00    +0.162 C 
ATOM      6  C   UNL     1      -2.027   0.002  24.707  0.00  0.00    +0.055 C 
ATOM      7  C   UNL     1      -2.652  -0.535  24.680  0.00  0.00    -0.004 A 
ATOM      8  C   UNL     1      -3.430  -0.266  24.731  0.00  0.00    +0.070 A 
ATOM      9  N   UNL     1      -3.930  -0.921  24.689  0.00  0.00    -0.249 NA
ATOM     10  C   UNL     1      -3.462  -1.596  24.613  0.00  0.00    +0.081 A 
ATOM     11  C   UNL     1      -2.671  -1.357  24.608  0.00  0.00    +0.015 A 
ATOM     12  C   UNL     1      -2.071  -1.919  24.537  0.00  0.00    +0.001 A 
ATOM     13  C   UNL     1      -2.261  -2.720  24.472  0.00  0.00    +0.000 A 
ATOM     14  C   UNL     1      -3.052  -2.958  24.478  0.00  0.00    +0.002 A 
ATOM     15  C   UNL     1      -3.652  -2.396  24.548  0.00  0.00    +0.019 A 
ATOM     16  C   UNL     1      -3.583   0.541  24.808  0.00  0.00    +0.100 C 
ATOM     17  C   UNL     1      -4.361   0.811  24.859  0.00  0.00    +0.040 C 
ATOM     18  C   UNL     1      -4.514   1.617  24.936  0.00  0.00    +0.076 C 
ATOM     19  C   UNL     1      -3.888   2.155  24.962  0.00  0.00    +0.038 C 
ATOM     20  C   UNL     1      -3.111   1.885  24.912  0.00  0.00    +0.082 C 
ATOM     21  N   UNL     1      -2.958   1.078  24.835  0.00  0.00    -0.258 NA
ENDROOT
BRANCH  20  22
ATOM     22  C   UNL     1      -2.486   2.423  24.938  0.00  0.00    -0.008 A 
ATOM     23  C   UNL     1      -2.204   2.764  24.242  0.00  0.00    +0.000 A 
ATOM     24  C   UNL     1      -1.580   3.302  24.270  0.00  0.00    +0.037 A 
ATOM     25  C   UNL     1      -1.236   3.499  24.994  0.00  0.00    +0.147 A 
ATOM     31  C   UNL     1      -1.517   3.158  25.690  0.00  0.00    +0.037 A 
ATOM     32  C   UNL     1      -2.142   2.620  25.663  0.00  0.00    +0.000 A 
BRANCH  25  26
ATOM     26  O   UNL     1      -0.611   4.038  25.021  0.00  0.00    -0.404 OA
BRANCH  26  27
ATOM     27  C   UNL     1      -0.751   4.839  24.889  0.00  0.00    +0.575 C 
ATOM     28  F   UNL     1      -0.891   5.642  24.758  0.00  0.00    -0.133 F 
ATOM     29  F   UNL     1      -0.386   4.782  24.151  0.00  0.00    -0.133 F 
ATOM     30  F   UNL     1      -1.115   4.897  25.628  0.00  0.00    -0.133 F 
ENDBRANCH  26  27
ENDBRANCH  25  26
ENDBRANCH  20  22
BRANCH   5   3
ATOM      3  C   UNL     1      -1.554   1.346  24.810  0.00  0.00    +0.332 C 
ATOM      4  O   UNL     1      -1.136   2.003  25.084  0.00  0.00    -0.249 OA
BRANCH   3   2
ATOM      1  C   UNL     1      -0.218   0.910  24.558  0.00  0.00    +0.256 C 
ATOM      2  O   UNL     1      -0.916   1.263  24.295  0.00  0.00    -0.443 OA
ENDBRANCH   3   2
ENDBRANCH   5   3
BRANCH  18  33
ATOM     33  N   UNL     1      -5.292   1.887  24.986  0.00  0.00    -0.217 NA
BRANCH  33  34
ATOM     34  C   UNL     1      -5.589   2.156  25.708  0.00  0.00    +0.124 C 
BRANCH  34  35
ATOM     35  C   UNL     1      -6.405   2.189  25.831  0.00  0.00    +0.201 C 
ATOM     36  O   UNL     1      -6.704   2.260  26.597  0.00  0.00    -0.219 OA
ENDBRANCH  34  35
ENDBRANCH  33  34
ENDBRANCH  18  33
TORSDOF 8
ENDMDL
MODEL 4
REMARK VINA RESULT:     -12.2      3.055      5.784
REMARK  Name = 
REMARK  8 active torsions:
REMARK  status: ('A' for Active; 'I' for Inactive)
REMARK    1  A    between atoms: O_2  and  C_3
REMARK    2  A    between atoms: C_3  and  C_5
REMARK    3  A    between atoms: C_18  and  N_33
REMARK    4  A    between atoms: C_20  and  C_22
REMARK    5  A    between atoms: C_25  and  O_26
REMARK    6  A    between atoms: O_26  and  C_27
REMARK    7  A    between atoms: N_33  and  C_34
REMARK    8  A    between atoms: C_34  and  C_35
REMARK                            x       y       z     vdW  Elec       q    Type
REMARK                         _______ _______ _______ _____ _____    ______ ____
ROOT
ATOM      5  C   UNL     1      -2.138   0.926  24.887  0.00  0.00    +0.162 C 
ATOM      6  C   UNL     1      -2.695   0.322  24.956  0.00  0.00    +0.055 C 
ATOM      7  C   UNL     1      -2.495  -0.449  24.741  0.00  0.00    -0.004 A 
ATOM      8  C   UNL     1      -1.740  -0.616  24.456  0.00  0.00    +0.070 A 
ATOM      9  N   UNL     1      -1.703  -1.423  24.288  0.00  0.00    -0.249 NA
ATOM     10  C   UNL     1      -2.436  -1.756  24.469  0.00  0.00    +0.081 A 
ATOM     11  C   UNL     1      -2.926  -1.153  24.749  0.00  0.00    +0.015 A 
ATOM     12  C   UNL     1      -3.701  -1.324  24.975  0.00  0.00    +0.001 A 
ATOM     13  C   UNL     1      -3.986  -2.097  24.921  0.00  0.00    +0.000 A 
ATOM     14  C   UNL     1      -3.495  -2.699  24.641  0.00  0.00    +0.002 A 
ATOM     15  C   UNL     1      -2.720  -2.528  24.415  0.00  0.00    +0.019 A 
ATOM     16  C   UNL     1      -1.182  -0.012  24.386  0.00  0.00    +0.100 C 
ATOM     17  C   UNL     1      -0.426  -0.178  24.101  0.00  0.00    +0.040 C 
ATOM     18  C   UNL     1       0.130   0.426  24.032  0.00  0.00    +0.076 C 
ATOM     19  C   UNL     1      -0.069   1.198  24.247  0.00  0.00    +0.038 C 
ATOM     20  C   UNL     1      -0.825   1.363  24.532  0.00  0.00    +0.082 C 
ATOM     21  N   UNL     1      -1.381   0.759  24.601  0.00  0.00    -0.258 NA
ENDROOT
BRANCH  20  22
ATOM     22  C   UNL     1      -1.023   2.135  24.747  0.00  0.00    -0.008 A 
ATOM     23  C   UNL     1      -1.336   2.653  24.187  0.00  0.00    +0.000 A 
ATOM     24  C   UNL     1      -1.535   3.424  24.403  0.00  0.00    +0.037 A 
ATOM     25  C   UNL     1      -1.419   3.677  25.180  0.00  0.00    +0.147 A 
ATOM     31  C   UNL     1      -1.106   3.160  25.740  0.00  0.00    +0.037 A 
ATOM     32  C   UNL     1      -0.908   2.389  25.524  0.00  0.00    +0.000 A 
BRANCH  25  26
ATOM     26  O   UNL     1      -1.617   4.449  25.395  0.00  0.00    -0.404 OA
BRANCH  26  27
ATOM     27  C   UNL     1      -1.233   5.088  25.044  0.00  0.00    +0.575 C 
ATOM     28  F   UNL     1      -0.847   5.727  24.691  0.00  0.00    -0.133 F 
ATOM     29  F   UNL     1      -0.543   4.899  25.456  0.00  0.00    -0.133 F 
ATOM     30  F   UNL     1      -1.922   5.276  24.631  0.00  0.00    -0.133 F 
ENDBRANCH  26  27
ENDBRANCH  25  26
ENDBRANCH  20  22
BRANCH   5   3
ATOM      3  C   UNL     1      -2.337   1.697  25.102  0.00  0.00    +0.332 C 
ATOM      4  O   UNL     1      -2.232   2.427  25.472  0.00  0.00    -0.249 OA
BRANCH   3   2
ATOM      1  C   UNL     1      -3.703   2.042  25.340  0.00  0.00    +0.256 C 
ATOM      2  O   UNL     1      -3.046   2.029  24.841  0.00  0.00    -0.443 OA
ENDBRANCH   3   2
ENDBRANCH   5   3
BRANCH  18  33
ATOM     33  N   UNL     1       0.887   0.260  23.746  0.00  0.00    -0.217 NA
BRANCH  33  34
ATOM     34  C   UNL     1       1.005   0.136  22.939  0.00  0.00    +0.124 C 
BRANCH  34  35
ATOM     35  C   UNL     1       1.771   0.051  22.643  0.00  0.00    +0.201 C 
ATOM     36  O   UNL     1       1.887  -0.177  21.859  0.00  0.00    -0.219 OA
ENDBRANCH  34  35
ENDBRANCH  33  34
ENDBRANCH  18  33
TORSDOF 8
ENDMDL
MODEL 5
REMARK VINA RESULT:     -11.0      2.768      5.161
REMARK  Name = 
REMARK  8 active torsions:
REMARK  status: ('A' for Active; 'I' for Inactive)
REMARK    1  A    between atoms: O_2  and  C_3
REMARK    2  A    between atoms: C_3  and  C_5
REMARK    3  A    between atoms: C_18  and  N_33
REMARK    4  A    between atoms: C_20  and  C_22
REMARK    5  A    between atoms: C_25  and  O_26
REMARK    6  A    between atoms: O_26  and  C_27
REMARK    7  A    between atoms: N_33  and  C_34
REMARK    8  A    between atoms: C_34  and  C_35
REMARK                            x       y       z     vdW  Elec       q    Type
REMARK                         _______ _______ _______ _____ _____    ______ ____
ROOT
ATOM      5  C   UNL     1      -3.763   0.590  24.685  0.00  0.00    +0.162 C 
ATOM      6  C   UNL     1      -3.886  -0.221  24.611  0.00  0.00    +0.055 C 
ATOM      7  C   UNL     1      -3.243  -0.738  24.616  0.00  0.00    -0.004 A 
ATOM      8  C   UNL     1      -2.477  -0.443  24.695  0.00  0.00    +0.070 A 
ATOM      9  N   UNL     1      -1.955  -1.082  24.681  0.00  0.00    -0.249 NA
ATOM     10  C   UNL     1      -2.398  -1.772  24.594  0.00  0.00    +0.081 A 
ATOM     11  C   UNL     1      -3.195  -1.560  24.553  0.00  0.00    +0.015 A 
ATOM     12  C   UNL     1      -3.772  -2.142  24.465  0.00  0.00    +0.001 A 
ATOM     13  C   UNL     1      -3.554  -2.936  24.417  0.00  0.00    +0.000 A 
ATOM     14  C   UNL     1      -2.757  -3.148  24.457  0.00  0.00    +0.002 A 
ATOM     15  C   UNL     1      -2.179  -2.566  24.546  0.00  0.00    +0.019 A 
ATOM     16  C   UNL     1      -2.354   0.369  24.769  0.00  0.00    +0.100 C 
ATOM     17  C   UNL     1      -1.588   0.665  24.848  0.00  0.00    +0.040 C 
ATOM     18  C   UNL     1      -1.465   1.477  24.923  0.00  0.00    +0.076 C 
ATOM     19  C   UNL     1      -2.108   1.994  24.918  0.00  0.00    +0.038 C 
ATOM     20  C   UNL     1      -2.874   1.698  24.839  0.00  0.00    +0.082 C 
ATOM     21  N   UNL     1      -2.997   0.886  24.765  0.00  0.00    -0.258 NA
ENDROOT
BRANCH  20  22
ATOM     22  C   UNL     1      -3.517   2.216  24.834  0.00  0.00    -0.008 A 
ATOM     23  C   UNL     1      -3.786   2.533  24.122  0.00  0.00    +0.000 A 
ATOM     24  C   UNL     1      -4.429   3.050  24.119  0.00  0.00    +0.037 A 
ATOM     25  C   UNL     1      -4.802   3.250  24.827  0.00  0.00    +0.147 A 
ATOM     31  C   UNL     1      -4.533   2.933  25.539  0.00  0.00    +0.037 A 
ATOM     32  C   UNL     1      -3.890   2.415  25.543  0.00  0.00    +0.000 A 
BRANCH  25  26
ATOM     26  O   UNL     1      -5.445   3.768  24.822  0.00  0.00    -0.404 OA
BRANCH  26  27
ATOM     27  C   UNL     1      -5.507   4.354  25.399  0.00  0.00    +0.575 C 
ATOM     28  F   UNL     1      -5.570   4.940  25.976  0.00  0.00    -0.133 F 
ATOM     29  F   UNL     1      -4.931   4.799  25.009  0.00  0.00    -0.133 F 
ATOM     30  F   UNL     1      -6.083   3.909  25.789  0.00  0.00    -0.133 F 
ENDBRANCH  26  27
ENDBRANCH  25  26
ENDBRANCH  20  22
BRANCH   5   3
ATOM      3  C   UNL     1      -4.406   1.107  24.681  0.00  0.00    +0.332 C 
ATOM      4  O   UNL     1      -4.831   1.780  24.461  0.00  0.00    -0.249 OA
BRANCH   3   2
ATOM      1  C   UNL     1      -5.751   0.634  24.774  0.00  0.00    +0.256 C 
ATOM      2  O   UNL     1      -5.074   0.940  25.135  0.00  0.00    -0.443 OA
ENDBRANCH   3   2
ENDBRANCH   5   3
BRANCH  18  33
ATOM     33  N   UNL     1      -0.698   1.773  25.002  0.00  0.00    -0.217 NA
BRANCH  33  34
ATOM     34  C   UNL     1      -0.420   2.004  25.743  0.00  0.00    +0.124 C 
BRANCH  34  35
ATOM     35  C   UNL     1       0.308   2.388  25.809  0.00  0.00    +0.201 C 
ATOM     36  O   UNL     1       0.585   2.621  26.551  0.00  0.00    -0.219 OA
ENDBRANCH  34  35
ENDBRANCH  33  34
ENDBRANCH  18  33
TORSDOF 8
ENDMDL
MODEL 6
REMARK VINA RESULT:     -10.7      2.133      3.741
REMARK  Name = 
REMARK  8 active torsions:
REMARK  status: ('A' for Active; 'I' for Inactive)
REMARK    1  A    between atoms: O_2  and  C_3
REMARK    2  A    between atoms: C_3  and  C_5
REMARK    3  A    between atoms: C_18  and  N_33
REMARK    4  A    between atoms: C_20  and  C_22
REMARK    5  A    between atoms: C_25  and  O_26
REMARK    6  A    between atoms: O_26  and  C_27
REMARK    7  A    between atoms: N_33  and  C_34
REMARK    8  A    between atoms: C_34  and  C_35
REMARK                            x       y       z     vdW  Elec       q    Type
REMARK                         _______ _______ _______ _____ _____    ______ ____
ROOT
ATOM      5  C   UNL     1      -2.672   1.661  24.687  0.00  0.00    +0.162 C 
ATOM      6  C   UNL     1      -3.117   2.310  24.935  0.00  0.00    +0.055 C 
ATOM      7  C   UNL     1      -3.934   2.239  25.024  0.00  0.00    -0.004 A 
ATOM      8  C   UNL     1      -4.306   1.521  24.865  0.00  0.00    +0.070 A 
ATOM      9  N   UNL     1      -5.114   1.616  25.001  0.00  0.00    -0.249 NA
ATOM     10  C   UNL     1      -5.242   2.394  25.245  0.00  0.00    +0.081 A 
ATOM     11  C   UNL     1      -4.512   2.779  25.259  0.00  0.00    +0.015 A 
ATOM     12  C   UNL     1      -4.469   3.572  25.483  0.00  0.00    +0.001 A 
ATOM     13  C   UNL     1      -5.155   3.980  25.694  0.00  0.00    +0.000 A 
ATOM     14  C   UNL     1      -5.885   3.593  25.679  0.00  0.00    +0.002 A 
ATOM     15  C   UNL     1      -5.928   2.801  25.455  0.00  0.00    +0.019 A 
ATOM     16  C   UNL     1      -3.861   0.872  24.617  0.00  0.00    +0.100 C 
ATOM     17  C   UNL     1      -4.232   0.153  24.458  0.00  0.00    +0.040 C 
ATOM     18  C   UNL     1      -3.787  -0.496  24.210  0.00  0.00    +0.076 C 
ATOM     19  C   UNL     1      -2.970  -0.425  24.121  0.00  0.00    +0.038 C 
ATOM     20  C   UNL     1      -2.599   0.294  24.280  0.00  0.00    +0.082 C 
ATOM     21  N   UNL     1      -3.044   0.942  24.528  0.00  0.00    -0.258 NA
ENDROOT
BRANCH  20  22
ATOM     22  C   UNL     1      -1.781   0.364  24.191  0.00  0.00    -0.008 A 
ATOM     23  C   UNL     1      -1.280   0.182  24.820  0.00  0.00    +0.000 A 
ATOM     24  C   UNL     1      -0.463   0.252  24.730  0.00  0.00    +0.037 A 
ATOM     25  C   UNL     1      -0.147   0.504  24.010  0.00  0.00    +0.147 A 
ATOM     31  C   UNL     1      -0.648   0.685  23.381  0.00  0.00    +0.037 A 
ATOM     32  C   UNL     1      -1.465   0.615  23.471  0.00  0.00    +0.000 A 
BRANCH  25  26
ATOM     26  O   UNL     1       0.671   0.573  23.921  0.00  0.00    -0.404 OA
BRANCH  26  27
ATOM     27  C   UNL     1       1.058   0.157  23.323  0.00  0.00    +0.575 C 
ATOM     28  F   UNL     1       1.445  -0.259  22.725  0.00  0.00    -0.133 F 
ATOM     29  F   UNL     1       0.957  -0.544  23.746  0.00  0.00    -0.133 F 
ATOM     30  F   UNL     1       1.158   0.859  22.900  0.00  0.00    -0.133 F 
ENDBRANCH  26  27
ENDBRANCH  25  26
ENDBRANCH  20  22
BRANCH   5   3
ATOM      3  C   UNL     1      -1.855   1.732  24.599  0.00  0.00    +0.332 C 
ATOM      4  O   UNL     1      -1.067   1.493  24.656  0.00  0.00    -0.249 OA
BRANCH   3   2
ATOM      1  C   UNL     1      -1.217   3.002  24.740  0.00  0.00    +0.256 C 
ATOM      2  O   UNL     1      -1.533   2.411  24.258  0.00  0.00    -0.443 OA
ENDBRANCH   3   2
ENDBRANCH   5   3
BRANCH  18  33
ATOM     33  N   UNL     1      -4.159  -1.215  24.050  0.00  0.00    -0.217 NA
BRANCH  33  34
ATOM     34  C   UNL     1      -3.848  -1.916  24.354  0.00  0.00    +0.124 C 
BRANCH  34  35
ATOM     35  C   UNL     1      -4.115  -2.643  24.070  0.00  0.00    +0.201 C 
ATOM     36  O   UNL     1      -3.802  -3.345  24.371  0.00  0.00    -0.219 OA
ENDBRANCH  34  35
ENDBRANCH  33  34
ENDBRANCH  18  33
TORSDOF 8
ENDMDL
MODEL 7
REMARK VINA RESULT:     -10.5      2.074      3.917
REMARK  Name = 
REMARK  8 active torsions:
REMARK  status: ('A' for Active; 'I' for Inactive)
REMARK    1  A    between atoms: O_2  and  C_3
REMARK    2  A    between atoms: C_3  and  C_5
REMARK    3  A    between atoms: C_18  and  N_33
REMARK    4  A    between atoms: C_20  and  C_22
REMARK    5  A    between atoms: C_25  and  O_26
REMARK    6  A    between atoms: O_26  and  C_27
REMARK    7  A    between atoms: N_33  and  C_34
REMARK    8  A    between atoms: C_34  and  C_35
REMARK                            x       y       z     vdW  Elec       q    Type
REMARK                         _______ _______ _______ _____ _____    ______ ____
ROOT
ATOM      5  C   UNL     1      -2.823   1.201  24.606  0.00  0.00    +0.162 C 
ATOM      6  C   UNL     1      -3.640   1.123  24.688  0.00  0.00    +0.055 C 
ATOM      7  C   UNL     1      -4.087   1.753  24.978  0.00  0.00    -0.004 A 
ATOM      8  C   UNL     1      -3.719   2.460  25.186  0.00  0.00    +0.070 A 
ATOM      9  N   UNL     1      -4.299   2.981  25.454  0.00  0.00    -0.249 NA
ATOM     10  C   UNL     1      -5.027   2.597  25.412  0.00  0.00    +0.081 A 
ATOM     11  C   UNL     1      -4.896   1.836  25.118  0.00  0.00    +0.015 A 
ATOM     12  C   UNL     1      -5.531   1.319  25.015  0.00  0.00    +0.001 A 
ATOM     13  C   UNL     1      -6.296   1.562  25.206  0.00  0.00    +0.000 A 
ATOM     14  C   UNL     1      -6.427   2.322  25.501  0.00  0.00    +0.002 A 
ATOM     15  C   UNL     1      -5.792   2.839  25.604  0.00  0.00    +0.019 A 
ATOM     16  C   UNL     1      -2.901   2.539  25.104  0.00  0.00    +0.100 C 
ATOM     17  C   UNL     1      -2.531   3.246  25.312  0.00  0.00    +0.040 C 
ATOM     18  C   UNL     1      -1.715   3.324  25.230  0.00  0.00    +0.076 C 
ATOM     19  C   UNL     1      -1.267   2.695  24.941  0.00  0.00    +0.038 C 
ATOM     20  C   UNL     1      -1.637   1.988  24.733  0.00  0.00    +0.082 C 
ATOM     21  N   UNL     1      -2.453   1.909  24.815  0.00  0.00    -0.258 NA
ENDROOT
BRANCH  20  22
ATOM     22  C   UNL     1      -1.188   1.358  24.443  0.00  0.00    -0.008 A 
ATOM     23  C   UNL     1      -0.870   0.804  24.963  0.00  0.00    +0.000 A 
ATOM     24  C   UNL     1      -0.422   0.175  24.673  0.00  0.00    +0.037 A 
ATOM     25  C   UNL     1      -0.292   0.101  23.861  0.00  0.00    +0.147 A 
ATOM     31  C   UNL     1      -0.610   0.656  23.341  0.00  0.00    +0.037 A 
ATOM     32  C   UNL     1      -1.058   1.284  23.631  0.00  0.00    +0.000 A 
BRANCH  25  26
ATOM     26  O   UNL     1       0.157  -0.528  23.571  0.00  0.00    -0.404 OA
BRANCH  26  27
ATOM     27  C   UNL     1       0.903  -0.390  23.250  0.00  0.00    +0.575 C 
ATOM     28  F   UNL     1       1.650  -0.251  22.927  0.00  0.00    -0.133 F 
ATOM     29  F   UNL     1       0.566  -0.315  22.500  0.00  0.00    -0.133 F 
ATOM     30  F   UNL     1       1.240  -0.465  23.999  0.00  0.00    -0.133 F 
ENDBRANCH  26  27
ENDBRANCH  25  26
ENDBRANCH  20  22
BRANCH   5   3
ATOM      3  C   UNL     1      -2.376   0.572  24.317  0.00  0.00    +0.332 C 
ATOM      4  O   UNL     1      -1.795   0.209  23.856  0.00  0.00    -0.249 OA
BRANCH   3   2
ATOM      1  C   UNL     1      -2.993  -0.705  24.146  0.00  0.00    +0.256 C 
ATOM      2  O   UNL     1      -2.517  -0.195  24.587  0.00  0.00    -0.443 OA
ENDBRANCH   3   2
ENDBRANCH   5   3
BRANCH  18  33
ATOM     33  N   UNL     1      -1.345   4.032  25.439  0.00  0.00    -0.217 NA
BRANCH  33  34
ATOM     34  C   UNL     1      -1.439   4.701  24.965  0.00  0.00    +0.124 C 
BRANCH  34  35
ATOM     35  C   UNL     1      -0.904   5.327  25.025  0.00  0.00    +0.201 C 
ATOM     36  O   UNL     1      -1.161   6.102  24.902  0.00  0.00    -0.219 OA
ENDBRANCH  34  35
ENDBRANCH  33  34
ENDBRANCH  18  33
TORSDOF 8
ENDMDL
