MODEL 1
REMARK VINA RESULT:      -8.9      0.000      0.000
REMARK  Name = 
REMARK  7 active torsions:
REMARK  status: ('A' for Active; 'I' for Inactive)
REMARK    1  A    between atoms: N_6  and  C_7
REMARK    2  A    between atoms: C_7  and  C_8
REMARK    3  A    between atoms: C_18  and  C_19
REMARK    4  A    between atoms: C_19  and  C_20
REMARK    5  A    between atoms: C_20  and  C_21
REMARK    6  A    between atoms: N_23  and  C_24
REMARK    7  A    between atoms: C_24  and  C_25
REMARK                            x       y       z     vdW  Elec       q    Type
REMARK                         _______ _______ _______ _____ _____    ______ ____
ROOT
ATOM      1  C   UNL     1      -1.408  -0.259  24.564  0.00  0.00    +0.090 C 
ATOM      2  N   UNL     1      -1.551   0.506  24.290  0.00  0.00    -0.271 NA
ATOM      3  C   UNL     1      -2.289   0.822  24.481  0.00  0.00    +0.083 C 
ATOM      4  C   UNL     1      -2.860   0.415  24.915  0.00  0.00    +0.035 C 
ATOM      5  C   UNL     1      -3.518   0.905  24.994  0.00  0.00    +0.074 C 
ATOM      6  N   UNL     1      -3.355   1.616  24.607  0.00  0.00    -0.261 NA
ATOM     13  C   UNL     1      -2.595   1.565  24.290  0.00  0.00    +0.151 C 
ATOM     14  C   UNL     1      -2.239   2.173  23.863  0.00  0.00    +0.257 C 
ATOM     15  O   UNL     1      -2.693   2.855  23.765  0.00  0.00    -0.272 OA
ATOM     16  N   UNL     1      -1.489   2.191  23.519  0.00  0.00    -0.203 NA
ATOM     17  C   UNL     1      -0.910   1.603  23.520  0.00  0.00    +0.131 C 
ATOM     18  C   UNL     1      -0.937   0.854  23.862  0.00  0.00    +0.080 C 
ENDROOT
BRANCH   6   7
ATOM      7  C   UNL     1      -3.862   2.264  24.548  0.00  0.00    +0.106 C 
BRANCH   7   8
ATOM      8  C   UNL     1      -4.604   2.240  24.908  0.00  0.00    +0.023 A 
ATOM      9  C   UNL     1      -5.254   1.802  24.652  0.00  0.00    +0.004 A 
ATOM     10  C   UNL     1      -5.878   1.942  25.174  0.00  0.00    +0.007 A 
ATOM     11  C   UNL     1      -5.612   2.467  25.754  0.00  0.00    +0.035 A 
ATOM     12  S   UNL     1      -4.825   2.651  25.589  0.00  0.00    -0.089 S 
ENDBRANCH   7   8
ENDBRANCH   6   7
BRANCH  18  19
ATOM     19  C   UNL     1      -0.262   0.389  23.765  0.00  0.00    +0.027 C 
BRANCH  19  20
ATOM     20  C   UNL     1       0.429   0.724  23.464  0.00  0.00    +0.088 C 
BRANCH  20  21
ATOM     21  C   UNL     1       1.003   0.243  23.117  0.00  0.00    +0.242 C 
ATOM     22  O   UNL     1       0.786  -0.471  22.767  0.00  0.00    -0.273 OA
ATOM     23  N   UNL     1       1.794   0.477  23.119  0.00  0.00    -0.201 NA
BRANCH  23  24
ATOM     24  C   UNL     1       2.368  -0.003  22.772  0.00  0.00    +0.141 C 
BRANCH  24  25
ATOM     25  C   UNL     1       3.168   0.168  22.877  0.00  0.00    -0.001 A 
ATOM     26  C   UNL     1       3.476   0.882  22.605  0.00  0.00    -0.003 A 
ATOM     27  C   UNL     1       4.277   1.054  22.710  0.00  0.00    -0.000 A 
ATOM     28  C   UNL     1       4.768   0.509  23.087  0.00  0.00    -0.000 A 
ATOM     29  C   UNL     1       4.460  -0.207  23.359  0.00  0.00    -0.000 A 
ATOM     30  C   UNL     1       3.660  -0.377  23.254  0.00  0.00    -0.003 A 
ENDBRANCH  24  25
ENDBRANCH  23  24
ENDBRANCH  20  21
ENDBRANCH  19  20
ENDBRANCH  18  19
TORSDOF 7
ENDMDL
MODEL 2
REMARK VINA RESULT:      -8.4      3.221      4.948
REMARK  Name = 
REMARK  7 active torsions:
REMARK  status: ('A' for Active; 'I' for Inactive)
REMARK    1  A    between atoms: N_6  and  C_7
REMARK    2  A    between atoms: C_7  and  C_8
REMARK    3  A    between atoms: C_18  and  C_19
REMARK    4  A    between atoms: C_19  and  C_20
REMARK    5  A    between atoms: C_20  and  C_21
REMARK    6  A    between atoms: N_23  and  C_24
REMARK    7  A    between atoms: C_24  and  C_25
REMARK                            x       y       z     vdW  Elec       q    Type
REMARK                         _______ _______ _______ _____ _____    ______ ____
ROOT
ATOM      1  C   UNL     1      -0.763   0.781  23.636  0.00  0.00    +0.090 C 
ATOM      2  N   UNL     1      -0.711   1.075  24.405  0.00  0.00    -0.271 NA
ATOM      3  C   UNL     1      -0.728   1.897  24.476  0.00  0.00    +0.083 C 
ATOM      4  C   UNL     1      -0.793   2.408  23.832  0.00  0.00    +0.035 C 
ATOM      5  C   UNL     1      -0.792   3.181  24.118  0.00  0.00    +0.074 C 
ATOM      6  N   UNL     1      -0.727   3.149  24.940  0.00  0.00    -0.261 NA
ATOM     13  C   UNL     1      -0.687   2.355  25.161  0.00  0.00    +0.151 C 
ATOM     14  C   UNL     1      -0.619   2.104  25.944  0.00  0.00    +0.257 C 
ATOM     15  O   UNL     1      -0.591   2.703  26.511  0.00  0.00    -0.272 OA
ATOM     16  N   UNL     1      -0.574   1.334  26.236  0.00  0.00    -0.203 NA
ATOM     17  C   UNL     1      -0.588   0.624  25.815  0.00  0.00    +0.131 C 
ATOM     18  C   UNL     1      -0.648   0.508  25.002  0.00  0.00    +0.080 C 
ENDROOT
BRANCH   6   7
ATOM      7  C   UNL     1      -0.705   3.796  25.451  0.00  0.00    +0.106 C 
BRANCH   7   8
ATOM      8  C   UNL     1      -1.036   4.515  25.219  0.00  0.00    +0.023 A 
ATOM      9  C   UNL     1      -0.645   5.127  24.828  0.00  0.00    +0.004 A 
ATOM     10  C   UNL     1      -1.186   5.738  24.705  0.00  0.00    +0.007 A 
ATOM     11  C   UNL     1      -1.912   5.503  25.020  0.00  0.00    +0.035 A 
ATOM     12  S   UNL     1      -1.820   4.748  25.337  0.00  0.00    -0.089 S 
ENDBRANCH   7   8
ENDBRANCH   6   7
BRANCH  18  19
ATOM     19  C   UNL     1      -0.646  -0.277  24.749  0.00  0.00    +0.027 C 
BRANCH  19  20
ATOM     20  C   UNL     1      -0.818  -0.882  25.282  0.00  0.00    +0.088 C 
BRANCH  20  21
ATOM     21  C   UNL     1      -1.161  -1.584  25.014  0.00  0.00    +0.242 C 
ATOM     22  O   UNL     1      -0.687  -2.241  24.859  0.00  0.00    -0.273 OA
ATOM     23  N   UNL     1      -1.977  -1.628  24.902  0.00  0.00    -0.201 NA
BRANCH  23  24
ATOM     24  C   UNL     1      -2.320  -2.329  24.635  0.00  0.00    +0.141 C 
BRANCH  24  25
ATOM     25  C   UNL     1      -3.097  -2.330  24.360  0.00  0.00    -0.001 A 
ATOM     26  C   UNL     1      -3.466  -3.042  24.169  0.00  0.00    -0.003 A 
ATOM     27  C   UNL     1      -4.244  -3.044  23.894  0.00  0.00    -0.000 A 
ATOM     28  C   UNL     1      -4.653  -2.332  23.811  0.00  0.00    -0.000 A 
ATOM     29  C   UNL     1      -4.284  -1.619  24.003  0.00  0.00    -0.000 A 
ATOM     30  C   UNL     1      -3.506  -1.619  24.278  0.00  0.00    -0.003 A 
ENDBRANCH  24  25
ENDBRANCH  23  24
ENDBRANCH  20  21
ENDBRANCH  19  20
ENDBRANCH  18  19
TORSDOF 7
ENDMDL
MODEL 3
REMARK VINA RESULT:      -7.6      3.935      5.176
REMARK  Name = 
REMARK  7 active torsions:
REMARK  status: ('A' for Active; 'I' for Inactive)
REMARK    1  A    between atoms: N_6  and  C_7
REMARK    2  A    between atoms: C_7  and  C_8
REMARK    3  A    between atoms: C_18  and  C_19
REMARK    4  A    between atoms: C_19  and  C_20
REMARK    5  A    between atoms: C_20  and  C_21
REMARK    6  A    between atoms: N_23  and  C_24
REMARK    7  A    between atoms: C_24  and  C_25
REMARK                            x       y       z     vdW  Elec       q    Type
REMARK                         _______ _______ _______ _____ _____    ______ ____
ROOT
ATOM      1  C   UNL     1      -3.468   1.783  23.344  0.00  0.00    +0.090 C 
ATOM      2  N   UNL     1      -3.842   1.417  23.981  0.00  0.00    -0.271 NA
ATOM      3  C   UNL     1      -3.751   0.598  24.027  0.00  0.00    +0.083 C 
ATOM      4  C   UNL     1      -3.317   0.157  23.481  0.00  0.00    +0.035 C 
ATOM      5  C   UNL     1      -3.351  -0.635  23.708  0.00  0.00    +0.074 C 
ATOM      6  N   UNL     1      -3.807  -0.685  24.394  0.00  0.00    -0.261 NA
ATOM     13  C   UNL     1      -4.054   0.078  24.592  0.00  0.00    +0.151 C 
ATOM     14  C   UNL     1      -4.522   0.248  25.248  0.00  0.00    +0.257 C 
ATOM     15  O   UNL     1      -4.738  -0.400  25.712  0.00  0.00    -0.272 OA
ATOM     16  N   UNL     1      -4.804   0.979  25.504  0.00  0.00    -0.203 NA
ATOM     17  C   UNL     1      -4.687   1.723  25.165  0.00  0.00    +0.131 C 
ATOM     18  C   UNL     1      -4.259   1.917  24.488  0.00  0.00    +0.080 C 
ENDROOT
BRANCH   6   7
ATOM      7  C   UNL     1      -3.984  -1.375  24.810  0.00  0.00    +0.106 C 
BRANCH   7   8
ATOM      8  C   UNL     1      -3.615  -2.084  24.607  0.00  0.00    +0.023 A 
ATOM      9  C   UNL     1      -3.925  -2.669  24.116  0.00  0.00    +0.004 A 
ATOM     10  C   UNL     1      -3.371  -3.279  24.065  0.00  0.00    +0.007 A 
ATOM     11  C   UNL     1      -2.719  -3.070  24.526  0.00  0.00    +0.035 A 
ATOM     12  S   UNL     1      -2.869  -2.332  24.861  0.00  0.00    -0.089 S 
ENDBRANCH   7   8
ENDBRANCH   6   7
BRANCH  18  19
ATOM     19  C   UNL     1      -4.245   2.718  24.290  0.00  0.00    +0.027 C 
BRANCH  19  20
ATOM     20  C   UNL     1      -4.329   3.290  24.877  0.00  0.00    +0.088 C 
BRANCH  20  21
ATOM     21  C   UNL     1      -3.874   3.979  24.851  0.00  0.00    +0.242 C 
ATOM     22  O   UNL     1      -4.175   4.657  24.491  0.00  0.00    -0.273 OA
ATOM     23  N   UNL     1      -3.121   3.988  25.185  0.00  0.00    -0.201 NA
BRANCH  23  24
ATOM     24  C   UNL     1      -2.666   4.677  25.160  0.00  0.00    +0.141 C 
BRANCH  24  25
ATOM     25  C   UNL     1      -1.844   4.628  25.135  0.00  0.00    -0.001 A 
ATOM     26  C   UNL     1      -1.461   3.959  25.427  0.00  0.00    -0.003 A 
ATOM     27  C   UNL     1      -0.638   3.909  25.403  0.00  0.00    -0.000 A 
ATOM     28  C   UNL     1      -0.197   4.530  25.085  0.00  0.00    -0.000 A 
ATOM     29  C   UNL     1      -0.580   5.200  24.792  0.00  0.00    -0.000 A 
ATOM     30  C   UNL     1      -1.403   5.249  24.817  0.00  0.00    -0.003 A 
ENDBRANCH  24  25
ENDBRANCH  23  24
ENDBRANCH  20  21
ENDBRANCH  19  20
ENDBRANCH  18  19
TORSDOF 7
ENDMDL
MODEL 4
REMARK VINA RESULT:      -6.8     14.546     15.071
REMARK  Name = 
REMARK  7 active torsions:
REMARK  status: ('A' for Active; 'I' for Inactive)
REMARK    1  A    between atoms: N_6  and  C_7
REMARK    2  A    between atoms: C_7  and  C_8
REMARK    3  A    between atoms: C_18  and  C_19
REMARK    4  A    between atoms: C_19  and  C_20
REMARK    5  A    between atoms: C_20  and  C_21
REMARK    6  A    between atoms: N_23  and  C_24
REMARK    7  A    between atoms: C_24  and  C_25
REMARK                            x       y       z     vdW  Elec       q    Type
REMARK                         _______ _______ _______ _____ _____    ______ ____
ROOT
ATOM      1  C   UNL     1      -5.479  -9.797  16.633  0.00  0.00    +0.090 C 
ATOM      2  N   UNL     1      -6.098  -9.880  16.095  0.00  0.00    -0.271 NA
ATOM      3  C   UNL     1      -6.848  -9.684  16.378  0.00  0.00    +0.083 C 
ATOM      4  C   UNL     1      -6.988  -9.420  17.147  0.00  0.00    +0.035 C 
ATOM      5  C   UNL     1      -7.798  -9.280  17.224  0.00  0.00    +0.074 C 
ATOM      6  N   UNL     1      -8.158  -9.458  16.503  0.00  0.00    -0.261 NA
ATOM     13  C   UNL     1      -7.571  -9.708  15.980  0.00  0.00    +0.151 C 
ATOM     14  C   UNL     1      -7.722  -9.934  15.202  0.00  0.00    +0.257 C 
ATOM     15  O   UNL     1      -8.511  -9.897  14.965  0.00  0.00    -0.272 OA
ATOM     16  N   UNL     1      -7.188 -10.192  14.628  0.00  0.00    -0.203 NA
ATOM     17  C   UNL     1      -6.371 -10.288  14.692  0.00  0.00    +0.131 C 
ATOM     18  C   UNL     1      -5.886 -10.149  15.344  0.00  0.00    +0.080 C 
ENDROOT
BRANCH   6   7
ATOM      7  C   UNL     1      -8.963  -9.397  16.335  0.00  0.00    +0.106 C 
BRANCH   7   8
ATOM      8  C   UNL     1      -9.461  -8.987  16.850  0.00  0.00    +0.023 A 
ATOM      9  C   UNL     1      -9.570  -8.170  16.871  0.00  0.00    +0.004 A 
ATOM     10  C   UNL     1     -10.114  -8.001  17.468  0.00  0.00    +0.007 A 
ATOM     11  C   UNL     1     -10.342  -8.714  17.815  0.00  0.00    +0.035 A 
ATOM     12  S   UNL     1      -9.938  -9.324  17.433  0.00  0.00    -0.089 S 
ENDBRANCH   7   8
ENDBRANCH   6   7
BRANCH  18  19
ATOM     19  C   UNL     1      -5.082 -10.299  15.231  0.00  0.00    +0.027 C 
BRANCH  19  20
ATOM     20  C   UNL     1      -4.811 -10.574  14.503  0.00  0.00    +0.088 C 
BRANCH  20  21
ATOM     21  C   UNL     1      -4.001 -10.623  14.355  0.00  0.00    +0.242 C 
ATOM     22  O   UNL     1      -3.478 -10.781  14.974  0.00  0.00    -0.273 OA
ATOM     23  N   UNL     1      -3.713 -10.513  13.591  0.00  0.00    -0.201 NA
BRANCH  23  24
ATOM     24  C   UNL     1      -2.903 -10.562  13.443  0.00  0.00    +0.141 C 
BRANCH  24  25
ATOM     25  C   UNL     1      -2.608 -10.377  12.696  0.00  0.00    -0.001 A 
ATOM     26  C   UNL     1      -1.810 -10.191  12.602  0.00  0.00    -0.003 A 
ATOM     27  C   UNL     1      -1.514 -10.006  11.854  0.00  0.00    -0.000 A 
ATOM     28  C   UNL     1      -2.017 -10.006  11.200  0.00  0.00    -0.000 A 
ATOM     29  C   UNL     1      -2.816 -10.191  11.294  0.00  0.00    -0.000 A 
ATOM     30  C   UNL     1      -3.111 -10.376  12.042  0.00  0.00    -0.003 A 
ENDBRANCH  24  25
ENDBRANCH  23  24
ENDBRANCH  20  21
ENDBRANCH  19  20
ENDBRANCH  18  19
TORSDOF 7
ENDMDL
MODEL 5
REMARK VINA RESULT:      -6.1     15.254     16.834
REMARK  Name = 
REMARK  7 active torsions:
REMARK  status: ('A' for Active; 'I' for Inactive)
REMARK    1  A    between atoms: N_6  and  C_7
REMARK    2  A    between atoms: C_7  and  C_8
REMARK    3  A    between atoms: C_18  and  C_19
REMARK    4  A    between atoms: C_19  and  C_20
REMARK    5  A    between atoms: C_20  and  C_21
REMARK    6  A    between atoms: N_23  and  C_24
REMARK    7  A    between atoms: C_24  and  C_25
REMARK                            x       y       z     vdW  Elec       q    Type
REMARK                         _______ _______ _______ _____ _____    ______ ____
ROOT
ATOM      1  C   UNL     1      -5.059 -10.367  15.031  0.00  0.00    +0.090 C 
ATOM      2  N   UNL     1      -5.521 -10.197  14.369  0.00  0.00    -0.271 NA
ATOM      3  C   UNL     1      -5.134 -10.236  13.642  0.00  0.00    +0.083 C 
ATOM      4  C   UNL     1      -4.336 -10.432  13.561  0.00  0.00    +0.035 C 
ATOM      5  C   UNL     1      -4.149 -10.415  12.758  0.00  0.00    +0.074 C 
ATOM      6  N   UNL     1      -4.831 -10.209  12.342  0.00  0.00    -0.261 NA
ATOM     13  C   UNL     1      -5.440 -10.098  12.888  0.00  0.00    +0.151 C 
ATOM     14  C   UNL     1      -6.208  -9.887  12.676  0.00  0.00    +0.257 C 
ATOM     15  O   UNL     1      -6.342  -9.788  11.868  0.00  0.00    -0.272 OA
ATOM     16  N   UNL     1      -6.861  -9.761  13.164  0.00  0.00    -0.203 NA
ATOM     17  C   UNL     1      -6.905  -9.815  13.987  0.00  0.00    +0.131 C 
ATOM     18  C   UNL     1      -6.310 -10.009  14.522  0.00  0.00    +0.080 C 
ENDROOT
BRANCH   6   7
ATOM      7  C   UNL     1      -4.894 -10.127  11.523  0.00  0.00    +0.106 C 
BRANCH   7   8
ATOM      8  C   UNL     1      -4.213 -10.120  11.057  0.00  0.00    +0.023 A 
ATOM      9  C   UNL     1      -3.757  -9.458  10.873  0.00  0.00    +0.004 A 
ATOM     10  C   UNL     1      -3.131  -9.703  10.395  0.00  0.00    +0.007 A 
ATOM     11  C   UNL     1      -3.200 -10.518  10.284  0.00  0.00    +0.035 A 
ATOM     12  S   UNL     1      -3.869 -10.776  10.693  0.00  0.00    -0.089 S 
ENDBRANCH   7   8
ENDBRANCH   6   7
BRANCH  18  19
ATOM     19  C   UNL     1      -6.531 -10.017  15.317  0.00  0.00    +0.027 C 
BRANCH  19  20
ATOM     20  C   UNL     1      -7.329 -10.030  15.524  0.00  0.00    +0.088 C 
BRANCH  20  21
ATOM     21  C   UNL     1      -7.560  -9.836  16.292  0.00  0.00    +0.242 C 
ATOM     22  O   UNL     1      -7.078 -10.036  16.931  0.00  0.00    -0.273 OA
ATOM     23  N   UNL     1      -8.273  -9.441  16.421  0.00  0.00    -0.201 NA
BRANCH  23  24
ATOM     24  C   UNL     1      -8.504  -9.247  17.189  0.00  0.00    +0.141 C 
BRANCH  24  25
ATOM     25  C   UNL     1      -9.242  -8.906  17.325  0.00  0.00    -0.001 A 
ATOM     26  C   UNL     1      -9.838  -9.343  17.691  0.00  0.00    -0.003 A 
ATOM     27  C   UNL     1     -10.577  -9.001  17.827  0.00  0.00    -0.000 A 
ATOM     28  C   UNL     1     -10.720  -8.223  17.595  0.00  0.00    -0.000 A 
ATOM     29  C   UNL     1     -10.124  -7.785  17.227  0.00  0.00    -0.000 A 
ATOM     30  C   UNL     1      -9.385  -8.127  17.092  0.00  0.00    -0.003 A 
ENDBRANCH  24  25
ENDBRANCH  23  24
ENDBRANCH  20  21
ENDBRANCH  19  20
ENDBRANCH  18  19
TORSDOF 7
ENDMDL
MODEL 6
REMARK VINA RESULT:      -5.8     15.778     16.969
REMARK  Name = 
REMARK  7 active torsions:
REMARK  status: ('A' for Active; 'I' for Inactive)
REMARK    1  A    between atoms: N_6  and  C_7
REMARK    2  A    between atoms: C_7  and  C_8
REMARK    3  A    between atoms: C_18  and  C_19
REMARK    4  A    between atoms: C_19  and  C_20
REMARK    5  A    between atoms: C_20  and  C_21
REMARK    6  A    between atoms: N_23  and  C_24
REMARK    7  A    between atoms: C_24  and  C_25
REMARK                            x       y       z     vdW  Elec       q    Type
REMARK                         _______ _______ _______ _____ _____    ______ ____
ROOT
ATOM      1  C   UNL     1      -7.375  -9.653  12.908  0.00  0.00    +0.090 C 
ATOM      2  N   UNL     1      -6.574  -9.844  12.853  0.00  0.00    -0.271 NA
ATOM      3  C   UNL     1      -6.252  -9.827  12.094  0.00  0.00    +0.083 C 
ATOM      4  C   UNL     1      -6.688  -9.633  11.420  0.00  0.00    +0.035 C 
ATOM      5  C   UNL     1      -6.183  -9.675  10.770  0.00  0.00    +0.074 C 
ATOM      6  N   UNL     1      -5.435  -9.894  11.041  0.00  0.00    -0.261 NA
ATOM     13  C   UNL     1      -5.478  -9.988  11.859  0.00  0.00    +0.151 C 
ATOM     14  C   UNL     1      -4.834 -10.206  12.326  0.00  0.00    +0.257 C 
ATOM     15  O   UNL     1      -4.125 -10.330  11.923  0.00  0.00    -0.272 OA
ATOM     16  N   UNL     1      -4.805 -10.318  13.143  0.00  0.00    -0.203 NA
ATOM     17  C   UNL     1      -5.414 -10.238  13.695  0.00  0.00    +0.131 C 
ATOM     18  C   UNL     1      -6.200 -10.028  13.566  0.00  0.00    +0.080 C 
ENDROOT
BRANCH   6   7
ATOM      7  C   UNL     1      -4.762 -10.001  10.575  0.00  0.00    +0.106 C 
BRANCH   7   8
ATOM      8  C   UNL     1      -4.803  -9.882   9.759  0.00  0.00    +0.023 A 
ATOM      9  C   UNL     1      -4.664  -9.172   9.364  0.00  0.00    +0.004 A 
ATOM     10  C   UNL     1      -4.765  -9.306   8.557  0.00  0.00    +0.007 A 
ATOM     11  C   UNL     1      -4.967 -10.099   8.453  0.00  0.00    +0.035 A 
ATOM     12  S   UNL     1      -4.991 -10.456   9.196  0.00  0.00    -0.089 S 
ENDBRANCH   7   8
ENDBRANCH   6   7
BRANCH  18  19
ATOM     19  C   UNL     1      -6.677  -9.996  14.238  0.00  0.00    +0.027 C 
BRANCH  19  20
ATOM     20  C   UNL     1      -6.336  -9.903  14.983  0.00  0.00    +0.088 C 
BRANCH  20  21
ATOM     21  C   UNL     1      -6.814  -9.871  15.655  0.00  0.00    +0.242 C 
ATOM     22  O   UNL     1      -7.588  -9.594  15.598  0.00  0.00    -0.273 OA
ATOM     23  N   UNL     1      -6.517 -10.117  16.384  0.00  0.00    -0.201 NA
BRANCH  23  24
ATOM     24  C   UNL     1      -6.994 -10.085  17.057  0.00  0.00    +0.141 C 
BRANCH  24  25
ATOM     25  C   UNL     1      -6.693 -10.316  17.788  0.00  0.00    -0.001 A 
ATOM     26  C   UNL     1      -7.207 -10.497  18.407  0.00  0.00    -0.003 A 
ATOM     27  C   UNL     1      -6.905 -10.729  19.140  0.00  0.00    -0.000 A 
ATOM     28  C   UNL     1      -6.090 -10.779  19.253  0.00  0.00    -0.000 A 
ATOM     29  C   UNL     1      -5.575 -10.597  18.633  0.00  0.00    -0.000 A 
ATOM     30  C   UNL     1      -5.877 -10.366  17.901  0.00  0.00    -0.003 A 
ENDBRANCH  24  25
ENDBRANCH  23  24
ENDBRANCH  20  21
ENDBRANCH  19  20
ENDBRANCH  18  19
TORSDOF 7
ENDMDL
