MODEL 1
REMARK VINA RESULT:     -11.1      0.000      0.000
REMARK  Name = 
REMARK  6 active torsions:
REMARK  status: ('A' for Active; 'I' for Inactive)
REMARK    1  A    between atoms: N_2  and  C_4
REMARK    2  A    between atoms: C_7  and  C_10
REMARK    3  A    between atoms: N_12  and  C_13
REMARK    4  A    between atoms: C_13  and  C_14
REMARK    5  A    between atoms: C_16  and  C_17
REMARK    6  A    between atoms: C_21  and  N_22
REMARK                            x       y       z     vdW  Elec       q    Type
REMARK                         _______ _______ _______ _____ _____    ______ ____
ROOT
ATOM     14  C   UNL     1      -4.517   2.175  25.014  0.00  0.00    +0.154 C 
ATOM     15  O   UNL     1      -5.254   1.954  25.311  0.00  0.00    -0.350 OA
ATOM     16  C   UNL     1      -5.544   2.579  25.764  0.00  0.00    +0.180 C 
ATOM     19  C   UNL     1      -4.987   3.187  25.748  0.00  0.00    +0.198 C 
ATOM     20  O   UNL     1      -5.054   3.916  26.128  0.00  0.00    -0.219 OA
ATOM     21  C   UNL     1      -4.352   2.937  25.284  0.00  0.00    +0.120 C 
ENDROOT
BRANCH  21  22
ATOM     22  N   UNL     1      -3.672   3.373  25.119  0.00  0.00    -0.266 NA
ATOM     23  C   UNL     1      -3.674   3.923  24.502  0.00  0.00    +0.077 C 
ATOM     24  C   UNL     1      -2.993   4.360  24.338  0.00  0.00    +0.043 C 
ATOM     25  C   UNL     1      -2.310   4.247  24.788  0.00  0.00    -0.023 A 
ATOM     26  C   UNL     1      -2.309   3.697  25.405  0.00  0.00    -0.010 A 
ATOM     27  C   UNL     1      -2.990   3.261  25.569  0.00  0.00    +0.099 C 
ATOM     28  C   UNL     1      -1.627   3.585  25.855  0.00  0.00    -0.003 A 
ATOM     29  C   UNL     1      -0.948   4.021  25.690  0.00  0.00    -0.000 A 
ATOM     30  C   UNL     1      -0.949   4.571  25.073  0.00  0.00    -0.000 A 
ATOM     31  C   UNL     1      -1.630   4.683  24.623  0.00  0.00    -0.004 A 
ENDBRANCH  21  22
BRANCH  16  17
ATOM     17  C   UNL     1      -6.266   2.593  26.164  0.00  0.00    +0.214 C 
ATOM     18  O   UNL     1      -6.567   1.901  26.497  0.00  0.00    -0.218 OA
ENDBRANCH  16  17
BRANCH  14  13
ATOM     13  C   UNL     1      -4.030   1.716  24.532  0.00  0.00    +0.146 C 
BRANCH  13  12
ATOM     10  C   UNL     1      -3.627   0.427  24.066  0.00  0.00    +0.265 C 
ATOM     11  O   UNL     1      -3.249   0.778  23.422  0.00  0.00    -0.268 OA
ATOM     12  N   UNL     1      -4.018   0.896  24.621  0.00  0.00    -0.199 NA
BRANCH  10   7
ATOM      4  C   UNL     1      -3.590  -2.034  24.332  0.00  0.00    +0.048 A 
ATOM      5  C   UNL     1      -2.995  -1.573  24.671  0.00  0.00    +0.015 A 
ATOM      6  C   UNL     1      -3.008  -0.753  24.582  0.00  0.00    +0.006 A 
ATOM      7  C   UNL     1      -3.615  -0.393  24.155  0.00  0.00    +0.055 A 
ATOM      8  C   UNL     1      -4.210  -0.853  23.816  0.00  0.00    +0.006 A 
ATOM      9  C   UNL     1      -4.198  -1.674  23.905  0.00  0.00    +0.015 A 
BRANCH   4   2
ATOM      1  C   UNL     1      -3.203  -3.192  25.073  0.00  0.00    +0.112 C 
ATOM      2  N   UNL     1      -3.578  -2.854  24.421  0.00  0.00    -0.304 N 
ATOM      3  C   UNL     1      -3.941  -3.335  23.858  0.00  0.00    +0.112 C 
ENDBRANCH   4   2
ENDBRANCH  10   7
ENDBRANCH  13  12
ENDBRANCH  14  13
TORSDOF 6
ENDMDL
MODEL 2
REMARK VINA RESULT:      -9.7      2.292      3.728
REMARK  Name = 
REMARK  6 active torsions:
REMARK  status: ('A' for Active; 'I' for Inactive)
REMARK    1  A    between atoms: N_2  and  C_4
REMARK    2  A    between atoms: C_7  and  C_10
REMARK    3  A    between atoms: N_12  and  C_13
REMARK    4  A    between atoms: C_13  and  C_14
REMARK    5  A    between atoms: C_16  and  C_17
REMARK    6  A    between atoms: C_21  and  N_22
REMARK                            x       y       z     vdW  Elec       q    Type
REMARK                         _______ _______ _______ _____ _____    ______ ____
ROOT
ATOM     14  C   UNL     1      -0.457   0.801  24.732  0.00  0.00    +0.154 C 
ATOM     15  O   UNL     1       0.093   0.406  24.259  0.00  0.00    -0.350 OA
ATOM     16  C   UNL     1       0.564   0.974  23.889  0.00  0.00    +0.180 C 
ATOM     19  C   UNL     1       0.305   1.719  24.132  0.00  0.00    +0.198 C 
ATOM     20  O   UNL     1       0.622   2.443  23.895  0.00  0.00    -0.219 OA
ATOM     21  C   UNL     1      -0.326   1.612  24.653  0.00  0.00    +0.120 C 
ENDROOT
BRANCH  21  22
ATOM     22  N   UNL     1      -0.751   2.210  25.028  0.00  0.00    -0.266 NA
ATOM     23  C   UNL     1      -0.496   2.502  25.757  0.00  0.00    +0.077 C 
ATOM     24  C   UNL     1      -0.921   3.101  26.133  0.00  0.00    +0.043 C 
ATOM     25  C   UNL     1      -1.601   3.409  25.780  0.00  0.00    -0.023 A 
ATOM     26  C   UNL     1      -1.856   3.117  25.051  0.00  0.00    -0.010 A 
ATOM     27  C   UNL     1      -1.431   2.518  24.676  0.00  0.00    +0.099 C 
ATOM     28  C   UNL     1      -2.535   3.424  24.699  0.00  0.00    -0.003 A 
ATOM     29  C   UNL     1      -2.960   4.023  25.074  0.00  0.00    -0.000 A 
ATOM     30  C   UNL     1      -2.705   4.315  25.803  0.00  0.00    -0.000 A 
ATOM     31  C   UNL     1      -2.026   4.008  26.156  0.00  0.00    -0.004 A 
ENDBRANCH  21  22
BRANCH  16  17
ATOM     17  C   UNL     1       1.185   0.822  23.367  0.00  0.00    +0.214 C 
ATOM     18  O   UNL     1       1.271   0.072  23.036  0.00  0.00    -0.218 OA
ENDBRANCH  16  17
BRANCH  14  13
ATOM     13  C   UNL     1      -1.037   0.447  25.201  0.00  0.00    +0.146 C 
BRANCH  13  12
ATOM     10  C   UNL     1      -1.992  -0.603  25.357  0.00  0.00    +0.265 C 
ATOM     11  O   UNL     1      -1.907  -0.558  26.176  0.00  0.00    -0.268 OA
ATOM     12  N   UNL     1      -1.557  -0.101  24.868  0.00  0.00    -0.199 NA
BRANCH  10   7
ATOM      4  C   UNL     1      -3.553  -2.247  24.363  0.00  0.00    +0.048 A 
ATOM      5  C   UNL     1      -3.797  -1.468  24.484  0.00  0.00    +0.015 A 
ATOM      6  C   UNL     1      -3.276  -0.920  24.816  0.00  0.00    +0.006 A 
ATOM      7  C   UNL     1      -2.513  -1.151  25.025  0.00  0.00    +0.055 A 
ATOM      8  C   UNL     1      -2.269  -1.930  24.904  0.00  0.00    +0.006 A 
ATOM      9  C   UNL     1      -2.790  -2.478  24.573  0.00  0.00    +0.015 A 
BRANCH   4   2
ATOM      1  C   UNL     1      -3.928  -3.603  24.112  0.00  0.00    +0.112 C 
ATOM      2  N   UNL     1      -4.074  -2.795  24.031  0.00  0.00    -0.304 N 
ATOM      3  C   UNL     1      -4.740  -2.535  23.620  0.00  0.00    +0.112 C 
ENDBRANCH   4   2
ENDBRANCH  10   7
ENDBRANCH  13  12
ENDBRANCH  14  13
TORSDOF 6
ENDMDL
MODEL 3
REMARK VINA RESULT:      -9.7      1.284      5.135
REMARK  Name = 
REMARK  6 active torsions:
REMARK  status: ('A' for Active; 'I' for Inactive)
REMARK    1  A    between atoms: N_2  and  C_4
REMARK    2  A    between atoms: C_7  and  C_10
REMARK    3  A    between atoms: N_12  and  C_13
REMARK    4  A    between atoms: C_13  and  C_14
REMARK    5  A    between atoms: C_16  and  C_17
REMARK    6  A    between atoms: C_21  and  N_22
REMARK                            x       y       z     vdW  Elec       q    Type
REMARK                         _______ _______ _______ _____ _____    ______ ____
ROOT
ATOM     14  C   UNL     1      -4.111   1.378  25.032  0.00  0.00    +0.154 C 
ATOM     15  O   UNL     1      -4.618   2.006  25.206  0.00  0.00    -0.350 OA
ATOM     16  C   UNL     1      -5.392   1.722  25.190  0.00  0.00    +0.180 C 
ATOM     19  C   UNL     1      -5.365   0.918  25.007  0.00  0.00    +0.198 C 
ATOM     20  O   UNL     1      -6.015   0.415  24.934  0.00  0.00    -0.219 OA
ATOM     21  C   UNL     1      -4.574   0.705  24.910  0.00  0.00    +0.120 C 
ENDROOT
BRANCH  21  22
ATOM     22  N   UNL     1      -4.294  -0.048  24.722  0.00  0.00    -0.266 NA
ATOM     23  C   UNL     1      -4.268  -0.294  23.935  0.00  0.00    +0.077 C 
ATOM     24  C   UNL     1      -3.988  -1.048  23.748  0.00  0.00    +0.043 C 
ATOM     25  C   UNL     1      -3.734  -1.555  24.347  0.00  0.00    -0.023 A 
ATOM     26  C   UNL     1      -3.759  -1.308  25.135  0.00  0.00    -0.010 A 
ATOM     27  C   UNL     1      -4.039  -0.555  25.322  0.00  0.00    +0.099 C 
ATOM     28  C   UNL     1      -3.505  -1.815  25.733  0.00  0.00    -0.003 A 
ATOM     29  C   UNL     1      -3.226  -2.567  25.546  0.00  0.00    -0.000 A 
ATOM     30  C   UNL     1      -3.200  -2.814  24.758  0.00  0.00    -0.000 A 
ATOM     31  C   UNL     1      -3.454  -2.308  24.160  0.00  0.00    -0.004 A 
ENDBRANCH  21  22
BRANCH  16  17
ATOM     17  C   UNL     1      -6.074   2.164  25.333  0.00  0.00    +0.214 C 
ATOM     18  O   UNL     1      -6.011   2.947  25.586  0.00  0.00    -0.218 OA
ENDBRANCH  16  17
BRANCH  14  13
ATOM     13  C   UNL     1      -3.288   1.415  24.989  0.00  0.00    +0.146 C 
BRANCH  13  12
ATOM     10  C   UNL     1      -2.108   2.215  25.070  0.00  0.00    +0.265 C 
ATOM     11  O   UNL     1      -1.678   1.555  25.318  0.00  0.00    -0.268 OA
ATOM     12  N   UNL     1      -2.913   2.145  24.906  0.00  0.00    -0.199 NA
BRANCH  10   7
ATOM      4  C   UNL     1      -0.981   4.404  24.821  0.00  0.00    +0.048 A 
ATOM      5  C   UNL     1      -0.753   3.767  24.348  0.00  0.00    +0.015 A 
ATOM      6  C   UNL     1      -1.129   3.037  24.431  0.00  0.00    +0.006 A 
ATOM      7  C   UNL     1      -1.732   2.945  24.987  0.00  0.00    +0.055 A 
ATOM      8  C   UNL     1      -1.959   3.581  25.460  0.00  0.00    +0.006 A 
ATOM      9  C   UNL     1      -1.583   4.311  25.376  0.00  0.00    +0.015 A 
BRANCH   4   2
ATOM      1  C   UNL     1       0.162   5.170  24.435  0.00  0.00    +0.112 C 
ATOM      2  N   UNL     1      -0.605   5.134  24.737  0.00  0.00    -0.304 N 
ATOM      3  C   UNL     1      -0.996   5.827  24.956  0.00  0.00    +0.112 C 
ENDBRANCH   4   2
ENDBRANCH  10   7
ENDBRANCH  13  12
ENDBRANCH  14  13
TORSDOF 6
ENDMDL
MODEL 4
REMARK VINA RESULT:      -9.4      2.533      6.292
REMARK  Name = 
REMARK  6 active torsions:
REMARK  status: ('A' for Active; 'I' for Inactive)
REMARK    1  A    between atoms: N_2  and  C_4
REMARK    2  A    between atoms: C_7  and  C_10
REMARK    3  A    between atoms: N_12  and  C_13
REMARK    4  A    between atoms: C_13  and  C_14
REMARK    5  A    between atoms: C_16  and  C_17
REMARK    6  A    between atoms: C_21  and  N_22
REMARK                            x       y       z     vdW  Elec       q    Type
REMARK                         _______ _______ _______ _____ _____    ______ ____
ROOT
ATOM     14  C   UNL     1      -0.335   0.296  24.432  0.00  0.00    +0.154 C 
ATOM     15  O   UNL     1       0.325   0.514  23.986  0.00  0.00    -0.350 OA
ATOM     16  C   UNL     1       0.485  -0.096  23.454  0.00  0.00    +0.180 C 
ATOM     19  C   UNL     1      -0.075  -0.691  23.570  0.00  0.00    +0.198 C 
ATOM     20  O   UNL     1      -0.120  -1.402  23.155  0.00  0.00    -0.219 OA
ATOM     21  C   UNL     1      -0.582  -0.448  24.175  0.00  0.00    +0.120 C 
ENDROOT
BRANCH  21  22
ATOM     22  N   UNL     1      -1.223  -0.875  24.469  0.00  0.00    -0.266 NA
ATOM     23  C   UNL     1      -1.112  -1.414  25.085  0.00  0.00    +0.077 C 
ATOM     24  C   UNL     1      -1.753  -1.841  25.380  0.00  0.00    +0.043 C 
ATOM     25  C   UNL     1      -2.506  -1.730  25.060  0.00  0.00    -0.023 A 
ATOM     26  C   UNL     1      -2.617  -1.190  24.445  0.00  0.00    -0.010 A 
ATOM     27  C   UNL     1      -1.975  -0.764  24.150  0.00  0.00    +0.099 C 
ATOM     28  C   UNL     1      -3.369  -1.079  24.125  0.00  0.00    -0.003 A 
ATOM     29  C   UNL     1      -4.010  -1.506  24.420  0.00  0.00    -0.000 A 
ATOM     30  C   UNL     1      -3.898  -2.045  25.036  0.00  0.00    -0.000 A 
ATOM     31  C   UNL     1      -3.147  -2.156  25.355  0.00  0.00    -0.004 A 
ENDBRANCH  21  22
BRANCH  16  17
ATOM     17  C   UNL     1       1.099  -0.109  22.903  0.00  0.00    +0.214 C 
ATOM     18  O   UNL     1       1.708   0.446  22.951  0.00  0.00    -0.218 OA
ENDBRANCH  16  17
BRANCH  14  13
ATOM     13  C   UNL     1      -0.686   0.744  25.030  0.00  0.00    +0.146 C 
BRANCH  13  12
ATOM     10  C   UNL     1      -0.951   2.042  25.562  0.00  0.00    +0.265 C 
ATOM     11  O   UNL     1      -0.939   1.731  26.326  0.00  0.00    -0.268 OA
ATOM     12  N   UNL     1      -0.825   1.549  24.913  0.00  0.00    -0.199 NA
BRANCH  10   7
ATOM      4  C   UNL     1      -1.369   4.457  25.215  0.00  0.00    +0.048 A 
ATOM      5  C   UNL     1      -0.595   4.171  25.236  0.00  0.00    +0.015 A 
ATOM      6  C   UNL     1      -0.456   3.366  25.352  0.00  0.00    +0.006 A 
ATOM      7  C   UNL     1      -1.091   2.847  25.446  0.00  0.00    +0.055 A 
ATOM      8  C   UNL     1      -1.864   3.133  25.425  0.00  0.00    +0.006 A 
ATOM      9  C   UNL     1      -2.003   3.938  25.310  0.00  0.00    +0.015 A 
BRANCH   4   2
ATOM      1  C   UNL     1      -0.935   5.731  24.736  0.00  0.00    +0.112 C 
ATOM      2  N   UNL     1      -1.508   5.262  25.100  0.00  0.00    -0.304 N 
ATOM      3  C   UNL     1      -2.219   5.598  25.348  0.00  0.00    +0.112 C 
ENDBRANCH   4   2
ENDBRANCH  10   7
ENDBRANCH  13  12
ENDBRANCH  14  13
TORSDOF 6
ENDMDL
MODEL 5
REMARK VINA RESULT:      -9.3      2.770      4.222
REMARK  Name = 
REMARK  6 active torsions:
REMARK  status: ('A' for Active; 'I' for Inactive)
REMARK    1  A    between atoms: N_2  and  C_4
REMARK    2  A    between atoms: C_7  and  C_10
REMARK    3  A    between atoms: N_12  and  C_13
REMARK    4  A    between atoms: C_13  and  C_14
REMARK    5  A    between atoms: C_16  and  C_17
REMARK    6  A    between atoms: C_21  and  N_22
REMARK                            x       y       z     vdW  Elec       q    Type
REMARK                         _______ _______ _______ _____ _____    ______ ____
ROOT
ATOM     14  C   UNL     1      -3.021  -0.443  24.551  0.00  0.00    +0.154 C 
ATOM     15  O   UNL     1      -3.073  -1.245  24.359  0.00  0.00    -0.350 OA
ATOM     16  C   UNL     1      -3.860  -1.412  24.173  0.00  0.00    +0.180 C 
ATOM     19  C   UNL     1      -4.294  -0.715  24.251  0.00  0.00    +0.198 C 
ATOM     20  O   UNL     1      -5.104  -0.631  24.118  0.00  0.00    -0.219 OA
ATOM     21  C   UNL     1      -3.776  -0.116  24.484  0.00  0.00    +0.120 C 
ENDROOT
BRANCH  21  22
ATOM     22  N   UNL     1      -3.978   0.670  24.626  0.00  0.00    -0.266 NA
ATOM     23  C   UNL     1      -4.338   0.882  25.338  0.00  0.00    +0.077 C 
ATOM     24  C   UNL     1      -4.540   1.670  25.480  0.00  0.00    +0.043 C 
ATOM     25  C   UNL     1      -4.382   2.246  24.911  0.00  0.00    -0.023 A 
ATOM     26  C   UNL     1      -4.021   2.034  24.198  0.00  0.00    -0.010 A 
ATOM     27  C   UNL     1      -3.819   1.247  24.057  0.00  0.00    +0.099 C 
ATOM     28  C   UNL     1      -3.862   2.610  23.630  0.00  0.00    -0.003 A 
ATOM     29  C   UNL     1      -4.064   3.396  23.772  0.00  0.00    -0.000 A 
ATOM     30  C   UNL     1      -4.425   3.608  24.484  0.00  0.00    -0.000 A 
ATOM     31  C   UNL     1      -4.583   3.033  25.052  0.00  0.00    -0.004 A 
ENDBRANCH  21  22
BRANCH  16  17
ATOM     17  C   UNL     1      -4.159  -2.148  23.949  0.00  0.00    +0.214 C 
ATOM     18  O   UNL     1      -3.752  -2.836  24.151  0.00  0.00    -0.218 OA
ENDBRANCH  16  17
BRANCH  14  13
ATOM     13  C   UNL     1      -2.336  -0.040  24.771  0.00  0.00    +0.146 C 
BRANCH  13  12
ATOM     10  C   UNL     1      -0.934   0.161  24.587  0.00  0.00    +0.265 C 
ATOM     11  O   UNL     1      -0.870   0.424  25.366  0.00  0.00    -0.268 OA
ATOM     12  N   UNL     1      -1.668  -0.071  24.289  0.00  0.00    -0.199 NA
BRANCH  10   7
ATOM      4  C   UNL     1       1.073   0.069  23.142  0.00  0.00    +0.048 A 
ATOM      5  C   UNL     1       0.754  -0.627  23.449  0.00  0.00    +0.015 A 
ATOM      6  C   UNL     1       0.085  -0.596  23.931  0.00  0.00    +0.006 A 
ATOM      7  C   UNL     1      -0.265   0.130  24.105  0.00  0.00    +0.055 A 
ATOM      8  C   UNL     1       0.054   0.826  23.798  0.00  0.00    +0.006 A 
ATOM      9  C   UNL     1       0.724   0.795  23.316  0.00  0.00    +0.015 A 
BRANCH   4   2
ATOM      1  C   UNL     1       1.696  -0.307  21.912  0.00  0.00    +0.112 C 
ATOM      2  N   UNL     1       1.743   0.038  22.660  0.00  0.00    -0.304 N 
ATOM      3  C   UNL     1       2.457   0.352  22.927  0.00  0.00    +0.112 C 
ENDBRANCH   4   2
ENDBRANCH  10   7
ENDBRANCH  13  12
ENDBRANCH  14  13
TORSDOF 6
ENDMDL
MODEL 6
REMARK VINA RESULT:      -9.2      1.475      2.846
REMARK  Name = 
REMARK  6 active torsions:
REMARK  status: ('A' for Active; 'I' for Inactive)
REMARK    1  A    between atoms: N_2  and  C_4
REMARK    2  A    between atoms: C_7  and  C_10
REMARK    3  A    between atoms: N_12  and  C_13
REMARK    4  A    between atoms: C_13  and  C_14
REMARK    5  A    between atoms: C_16  and  C_17
REMARK    6  A    between atoms: C_21  and  N_22
REMARK                            x       y       z     vdW  Elec       q    Type
REMARK                         _______ _______ _______ _____ _____    ______ ____
ROOT
ATOM     14  C   UNL     1      -1.886   2.116  24.863  0.00  0.00    +0.154 C 
ATOM     15  O   UNL     1      -1.111   1.962  25.100  0.00  0.00    -0.350 OA
ATOM     16  C   UNL     1      -0.884   2.552  25.630  0.00  0.00    +0.180 C 
ATOM     19  C   UNL     1      -1.518   3.071  25.722  0.00  0.00    +0.198 C 
ATOM     20  O   UNL     1      -1.531   3.741  26.202  0.00  0.00    -0.219 OA
ATOM     21  C   UNL     1      -2.138   2.801  25.248  0.00  0.00    +0.120 C 
ENDROOT
BRANCH  21  22
ATOM     22  N   UNL     1      -2.879   3.155  25.172  0.00  0.00    -0.266 NA
ATOM     23  C   UNL     1      -2.987   3.775  24.637  0.00  0.00    +0.077 C 
ATOM     24  C   UNL     1      -3.729   4.129  24.561  0.00  0.00    +0.043 C 
ATOM     25  C   UNL     1      -4.362   3.865  25.019  0.00  0.00    -0.023 A 
ATOM     26  C   UNL     1      -4.254   3.245  25.554  0.00  0.00    -0.010 A 
ATOM     27  C   UNL     1      -3.512   2.891  25.630  0.00  0.00    +0.099 C 
ATOM     28  C   UNL     1      -4.886   2.980  26.012  0.00  0.00    -0.003 A 
ATOM     29  C   UNL     1      -5.627   3.334  25.936  0.00  0.00    -0.000 A 
ATOM     30  C   UNL     1      -5.735   3.954  25.401  0.00  0.00    -0.000 A 
ATOM     31  C   UNL     1      -5.103   4.218  24.943  0.00  0.00    -0.004 A 
ENDBRANCH  21  22
BRANCH  16  17
ATOM     17  C   UNL     1      -0.150   2.612  26.003  0.00  0.00    +0.214 C 
ATOM     18  O   UNL     1       0.508   2.232  25.682  0.00  0.00    -0.218 OA
ENDBRANCH  16  17
BRANCH  14  13
ATOM     13  C   UNL     1      -2.332   1.664  24.336  0.00  0.00    +0.146 C 
BRANCH  13  12
ATOM     10  C   UNL     1      -2.897   0.409  23.956  0.00  0.00    +0.265 C 
ATOM     11  O   UNL     1      -3.141   0.736  23.239  0.00  0.00    -0.268 OA
ATOM     12  N   UNL     1      -2.492   0.873  24.505  0.00  0.00    -0.199 NA
BRANCH  10   7
ATOM      4  C   UNL     1      -3.379  -1.966  24.461  0.00  0.00    +0.048 A 
ATOM      5  C   UNL     1      -2.599  -1.699  24.442  0.00  0.00    +0.015 A 
ATOM      6  C   UNL     1      -2.438  -0.907  24.273  0.00  0.00    +0.006 A 
ATOM      7  C   UNL     1      -3.058  -0.383  24.125  0.00  0.00    +0.055 A 
ATOM      8  C   UNL     1      -3.838  -0.650  24.145  0.00  0.00    +0.006 A 
ATOM      9  C   UNL     1      -3.999  -1.442  24.313  0.00  0.00    +0.015 A 
BRANCH   4   2
ATOM      1  C   UNL     1      -3.329  -3.074  25.362  0.00  0.00    +0.112 C 
ATOM      2  N   UNL     1      -3.540  -2.758  24.630  0.00  0.00    -0.304 N 
ATOM      3  C   UNL     1      -3.911  -3.232  24.066  0.00  0.00    +0.112 C 
ENDBRANCH   4   2
ENDBRANCH  10   7
ENDBRANCH  13  12
ENDBRANCH  14  13
TORSDOF 6
ENDMDL
