MODEL 1
REMARK VINA RESULT:      -8.3      0.000      0.000
REMARK  Name = 
REMARK  4 active torsions:
REMARK  status: ('A' for Active; 'I' for Inactive)
REMARK    1  A    between atoms: O_2  and  C_3
REMARK    2  A    between atoms: C_3  and  C_4
REMARK    3  A    between atoms: N_12  and  C_13
REMARK    4  A    between atoms: C_13  and  C_14
REMARK                            x       y       z     vdW  Elec       q    Type
REMARK                         _______ _______ _______ _____ _____    ______ ____
ROOT
ATOM      4  C   UNL     1      -1.831   3.231  24.865  0.00  0.00    +0.256 C 
ATOM      5  O   UNL     1      -1.084   2.921  24.702  0.00  0.00    -0.272 OA
ATOM      6  N   UNL     1      -2.493   2.737  24.858  0.00  0.00    -0.274 N 
ATOM      7  C   UNL     1      -3.240   3.047  25.020  0.00  0.00    +0.115 C 
ATOM      8  C   UNL     1      -3.901   2.553  25.013  0.00  0.00    +0.116 C 
ATOM      9  N   UNL     1      -3.815   1.750  24.844  0.00  0.00    -0.261 N 
ATOM     10  C   UNL     1      -3.068   1.441  24.681  0.00  0.00    +0.116 C 
ATOM     11  C   UNL     1      -3.153   0.634  24.534  0.00  0.00    +0.117 C 
ATOM     12  N   UNL     1      -3.952   0.444  24.606  0.00  0.00    -0.255 N 
ATOM     20  C   UNL     1      -4.361   1.134  24.797  0.00  0.00    +0.308 C 
ATOM     21  O   UNL     1      -5.175   1.197  24.920  0.00  0.00    -0.252 OA
ATOM     22  C   UNL     1      -2.406   1.935  24.688  0.00  0.00    +0.115 C 
ENDROOT
BRANCH   4   3
ATOM      3  C   UNL     1      -1.918   4.033  25.034  0.00  0.00    +0.227 C 
BRANCH   3   2
ATOM      1  C   UNL     1      -1.343   5.340  25.090  0.00  0.00    +0.175 C 
ATOM      2  O   UNL     1      -1.253   4.521  25.073  0.00  0.00    -0.342 OA
ENDBRANCH   3   2
ENDBRANCH   4   3
BRANCH  12  13
ATOM     13  C   UNL     1      -4.284  -0.304  24.504  0.00  0.00    +0.159 C 
BRANCH  13  14
ATOM     14  C   UNL     1      -3.936  -0.962  24.859  0.00  0.00    +0.141 A 
ATOM     15  N   UNL     1      -3.570  -0.979  25.598  0.00  0.00    -0.228 NA
ATOM     16  C   UNL     1      -3.301  -1.747  25.733  0.00  0.00    +0.119 A 
ATOM     17  C   UNL     1      -3.501  -2.205  25.077  0.00  0.00    +0.098 A 
ATOM     18  N   UNL     1      -3.893  -1.721  24.537  0.00  0.00    -0.310 N 
ATOM     19  C   UNL     1      -4.191  -1.954  23.804  0.00  0.00    +0.132 C 
ENDBRANCH  13  14
ENDBRANCH  12  13
TORSDOF 4
ENDMDL
MODEL 2
REMARK VINA RESULT:      -7.5      1.590      4.980
REMARK  Name = 
REMARK  4 active torsions:
REMARK  status: ('A' for Active; 'I' for Inactive)
REMARK    1  A    between atoms: O_2  and  C_3
REMARK    2  A    between atoms: C_3  and  C_4
REMARK    3  A    between atoms: N_12  and  C_13
REMARK    4  A    between atoms: C_13  and  C_14
REMARK                            x       y       z     vdW  Elec       q    Type
REMARK                         _______ _______ _______ _____ _____    ______ ____
ROOT
ATOM      4  C   UNL     1      -3.147  -0.759  24.460  0.00  0.00    +0.256 C 
ATOM      5  O   UNL     1      -3.782  -0.493  24.006  0.00  0.00    -0.272 OA
ATOM      6  N   UNL     1      -2.580  -0.224  24.732  0.00  0.00    -0.274 N 
ATOM      7  C   UNL     1      -1.945  -0.490  25.186  0.00  0.00    +0.115 C 
ATOM      8  C   UNL     1      -1.379   0.045  25.457  0.00  0.00    +0.116 C 
ATOM      9  N   UNL     1      -1.448   0.847  25.275  0.00  0.00    -0.261 N 
ATOM     10  C   UNL     1      -2.083   1.113  24.822  0.00  0.00    +0.116 C 
ATOM     11  C   UNL     1      -2.008   1.929  24.730  0.00  0.00    +0.117 C 
ATOM     12  N   UNL     1      -1.325   2.168  25.128  0.00  0.00    -0.255 N 
ATOM     20  C   UNL     1      -0.980   1.498  25.464  0.00  0.00    +0.308 C 
ATOM     21  O   UNL     1      -0.287   1.484  25.912  0.00  0.00    -0.252 OA
ATOM     22  C   UNL     1      -2.650   0.578  24.550  0.00  0.00    +0.115 C 
ENDROOT
BRANCH   4   3
ATOM      3  C   UNL     1      -3.077  -1.561  24.642  0.00  0.00    +0.227 C 
BRANCH   3   2
ATOM      1  C   UNL     1      -3.569  -2.899  24.547  0.00  0.00    +0.175 C 
ATOM      2  O   UNL     1      -3.642  -2.096  24.370  0.00  0.00    -0.342 OA
ENDBRANCH   3   2
ENDBRANCH   4   3
BRANCH  12  13
ATOM     13  C   UNL     1      -1.039   2.939  25.179  0.00  0.00    +0.159 C 
BRANCH  13  14
ATOM     14  C   UNL     1      -1.546   3.555  25.390  0.00  0.00    +0.141 A 
ATOM     15  N   UNL     1      -2.253   3.481  25.807  0.00  0.00    -0.228 NA
ATOM     16  C   UNL     1      -2.579   4.234  25.895  0.00  0.00    +0.119 A 
ATOM     17  C   UNL     1      -2.072   4.774  25.530  0.00  0.00    +0.098 A 
ATOM     18  N   UNL     1      -1.434   4.355  25.218  0.00  0.00    -0.310 N 
ATOM     19  C   UNL     1      -0.796   4.679  24.807  0.00  0.00    +0.132 C 
ENDBRANCH  13  14
ENDBRANCH  12  13
TORSDOF 4
ENDMDL
MODEL 3
REMARK VINA RESULT:      -7.5      2.588      3.589
REMARK  Name = 
REMARK  4 active torsions:
REMARK  status: ('A' for Active; 'I' for Inactive)
REMARK    1  A    between atoms: O_2  and  C_3
REMARK    2  A    between atoms: C_3  and  C_4
REMARK    3  A    between atoms: N_12  and  C_13
REMARK    4  A    between atoms: C_13  and  C_14
REMARK                            x       y       z     vdW  Elec       q    Type
REMARK                         _______ _______ _______ _____ _____    ______ ____
ROOT
ATOM      4  C   UNL     1      -0.736   0.673  24.141  0.00  0.00    +0.256 C 
ATOM      5  O   UNL     1      -0.648   0.371  24.904  0.00  0.00    -0.272 OA
ATOM      6  N   UNL     1      -1.381   1.155  23.959  0.00  0.00    -0.274 N 
ATOM      7  C   UNL     1      -1.468   1.457  23.196  0.00  0.00    +0.115 C 
ATOM      8  C   UNL     1      -2.112   1.939  23.015  0.00  0.00    +0.116 C 
ATOM      9  N   UNL     1      -2.669   2.120  23.596  0.00  0.00    -0.261 N 
ATOM     10  C   UNL     1      -2.581   1.819  24.359  0.00  0.00    +0.116 C 
ATOM     11  C   UNL     1      -3.213   2.090  24.814  0.00  0.00    +0.117 C 
ATOM     12  N   UNL     1      -3.691   2.559  24.333  0.00  0.00    -0.255 N 
ATOM     20  C   UNL     1      -3.355   2.577  23.580  0.00  0.00    +0.308 C 
ATOM     21  O   UNL     1      -3.652   2.982  22.926  0.00  0.00    -0.252 OA
ATOM     22  C   UNL     1      -1.937   1.336  24.541  0.00  0.00    +0.115 C 
ENDROOT
BRANCH   4   3
ATOM      3  C   UNL     1      -0.180   0.492  23.559  0.00  0.00    +0.227 C 
BRANCH   3   2
ATOM      1  C   UNL     1       0.973  -0.239  23.135  0.00  0.00    +0.175 C 
ATOM      2  O   UNL     1       0.400  -0.077  23.707  0.00  0.00    -0.342 OA
ENDBRANCH   3   2
ENDBRANCH   4   3
BRANCH  12  13
ATOM     13  C   UNL     1      -4.385   2.942  24.564  0.00  0.00    +0.159 C 
BRANCH  13  14
ATOM     14  C   UNL     1      -4.975   2.525  24.961  0.00  0.00    +0.141 A 
ATOM     15  N   UNL     1      -5.149   1.724  24.870  0.00  0.00    -0.228 NA
ATOM     16  C   UNL     1      -5.777   1.539  25.372  0.00  0.00    +0.119 A 
ATOM     17  C   UNL     1      -5.990   2.227  25.775  0.00  0.00    +0.098 A 
ATOM     18  N   UNL     1      -5.495   2.836  25.522  0.00  0.00    -0.310 N 
ATOM     19  C   UNL     1      -5.516   3.618  25.782  0.00  0.00    +0.132 C 
ENDBRANCH  13  14
ENDBRANCH  12  13
TORSDOF 4
ENDMDL
MODEL 4
REMARK VINA RESULT:      -7.5      1.589      4.712
REMARK  Name = 
REMARK  4 active torsions:
REMARK  status: ('A' for Active; 'I' for Inactive)
REMARK    1  A    between atoms: O_2  and  C_3
REMARK    2  A    between atoms: C_3  and  C_4
REMARK    3  A    between atoms: N_12  and  C_13
REMARK    4  A    between atoms: C_13  and  C_14
REMARK                            x       y       z     vdW  Elec       q    Type
REMARK                         _______ _______ _______ _____ _____    ______ ____
ROOT
ATOM      4  C   UNL     1      -3.036  -1.002  25.040  0.00  0.00    +0.256 C 
ATOM      5  O   UNL     1      -2.622  -1.120  25.744  0.00  0.00    -0.272 OA
ATOM      6  N   UNL     1      -3.051  -0.253  24.691  0.00  0.00    -0.274 N 
ATOM      7  C   UNL     1      -3.465  -0.134  23.987  0.00  0.00    +0.115 C 
ATOM      8  C   UNL     1      -3.480   0.613  23.640  0.00  0.00    +0.116 C 
ATOM      9  N   UNL     1      -3.082   1.242  23.995  0.00  0.00    -0.261 N 
ATOM     10  C   UNL     1      -2.668   1.123  24.699  0.00  0.00    +0.116 C 
ATOM     11  C   UNL     1      -2.330   1.842  24.920  0.00  0.00    +0.117 C 
ATOM     12  N   UNL     1      -2.535   2.405  24.354  0.00  0.00    -0.255 N 
ATOM     20  C   UNL     1      -2.999   2.034  23.782  0.00  0.00    +0.308 C 
ATOM     21  O   UNL     1      -3.324   2.393  23.114  0.00  0.00    -0.252 OA
ATOM     22  C   UNL     1      -2.653   0.375  25.048  0.00  0.00    +0.115 C 
ENDROOT
BRANCH   4   3
ATOM      3  C   UNL     1      -3.434  -1.630  24.684  0.00  0.00    +0.227 C 
BRANCH   3   2
ATOM      1  C   UNL     1      -3.641  -3.040  24.582  0.00  0.00    +0.175 C 
ATOM      2  O   UNL     1      -3.397  -2.384  25.018  0.00  0.00    -0.342 OA
ENDBRANCH   3   2
ENDBRANCH   4   3
BRANCH  12  13
ATOM     13  C   UNL     1      -2.314   3.200  24.358  0.00  0.00    +0.159 C 
BRANCH  13  14
ATOM     14  C   UNL     1      -2.446   3.662  25.028  0.00  0.00    +0.141 A 
ATOM     15  N   UNL     1      -3.117   3.642  25.507  0.00  0.00    -0.228 NA
ATOM     16  C   UNL     1      -3.015   4.193  26.113  0.00  0.00    +0.119 A 
ATOM     17  C   UNL     1      -2.281   4.554  26.008  0.00  0.00    +0.098 A 
ATOM     18  N   UNL     1      -1.928   4.226  25.338  0.00  0.00    -0.310 N 
ATOM     19  C   UNL     1      -1.189   4.427  25.031  0.00  0.00    +0.132 C 
ENDBRANCH  13  14
ENDBRANCH  12  13
TORSDOF 4
ENDMDL
MODEL 5
REMARK VINA RESULT:      -7.5     16.084     18.390
REMARK  Name = 
REMARK  4 active torsions:
REMARK  status: ('A' for Active; 'I' for Inactive)
REMARK    1  A    between atoms: O_2  and  C_3
REMARK    2  A    between atoms: C_3  and  C_4
REMARK    3  A    between atoms: N_12  and  C_13
REMARK    4  A    between atoms: C_13  and  C_14
REMARK                            x       y       z     vdW  Elec       q    Type
REMARK                         _______ _______ _______ _____ _____    ______ ____
ROOT
ATOM      4  C   UNL     1      15.623   6.527  19.924  0.00  0.00    +0.256 C 
ATOM      5  O   UNL     1      15.843   6.436  20.714  0.00  0.00    -0.272 OA
ATOM      6  N   UNL     1      14.863   6.787  19.735  0.00  0.00    -0.274 N 
ATOM      7  C   UNL     1      14.643   6.879  18.945  0.00  0.00    +0.115 C 
ATOM      8  C   UNL     1      13.883   7.138  18.756  0.00  0.00    +0.116 C 
ATOM      9  N   UNL     1      13.343   7.307  19.356  0.00  0.00    -0.261 N 
ATOM     10  C   UNL     1      13.563   7.215  20.146  0.00  0.00    +0.116 C 
ATOM     11  C   UNL     1      12.918   7.422  20.616  0.00  0.00    +0.117 C 
ATOM     12  N   UNL     1      12.299   7.641  20.117  0.00  0.00    -0.255 N 
ATOM     20  C   UNL     1      12.562   7.570  19.339  0.00  0.00    +0.308 C 
ATOM     21  O   UNL     1      12.121   7.733  18.661  0.00  0.00    -0.252 OA
ATOM     22  C   UNL     1      14.323   6.956  20.336  0.00  0.00    +0.115 C 
ENDROOT
BRANCH   4   3
ATOM      3  C   UNL     1      16.163   6.359  19.323  0.00  0.00    +0.227 C 
BRANCH   3   2
ATOM      1  C   UNL     1      17.405   5.778  18.923  0.00  0.00    +0.175 C 
ATOM      2  O   UNL     1      16.920   6.090  19.513  0.00  0.00    -0.342 OA
ENDBRANCH   3   2
ENDBRANCH   4   3
BRANCH  12  13
ATOM     13  C   UNL     1      11.548   7.888  20.354  0.00  0.00    +0.159 C 
BRANCH  13  14
ATOM     14  C   UNL     1      11.163   7.501  20.973  0.00  0.00    +0.141 A 
ATOM     15  N   UNL     1      11.110   6.685  21.078  0.00  0.00    -0.228 NA
ATOM     16  C   UNL     1      10.676   6.543  21.765  0.00  0.00    +0.119 A 
ATOM     17  C   UNL     1      10.460   7.272  22.085  0.00  0.00    +0.098 A 
ATOM     18  N   UNL     1      10.761   7.865  21.595  0.00  0.00    -0.310 N 
ATOM     19  C   UNL     1      10.674   8.677  21.709  0.00  0.00    +0.132 C 
ENDBRANCH  13  14
ENDBRANCH  12  13
TORSDOF 4
ENDMDL
MODEL 6
REMARK VINA RESULT:      -7.4      1.360      1.972
REMARK  Name = 
REMARK  4 active torsions:
REMARK  status: ('A' for Active; 'I' for Inactive)
REMARK    1  A    between atoms: O_2  and  C_3
REMARK    2  A    between atoms: C_3  and  C_4
REMARK    3  A    between atoms: N_12  and  C_13
REMARK    4  A    between atoms: C_13  and  C_14
REMARK                            x       y       z     vdW  Elec       q    Type
REMARK                         _______ _______ _______ _____ _____    ______ ____
ROOT
ATOM      4  C   UNL     1      -1.962   3.100  25.100  0.00  0.00    +0.256 C 
ATOM      5  O   UNL     1      -2.721   3.324  25.334  0.00  0.00    -0.272 OA
ATOM      6  N   UNL     1      -1.785   2.302  24.982  0.00  0.00    -0.274 N 
ATOM      7  C   UNL     1      -1.026   2.078  24.748  0.00  0.00    +0.115 C 
ATOM      8  C   UNL     1      -0.850   1.282  24.631  0.00  0.00    +0.116 C 
ATOM      9  N   UNL     1      -1.431   0.708  24.748  0.00  0.00    -0.261 N 
ATOM     10  C   UNL     1      -2.190   0.932  24.982  0.00  0.00    +0.116 C 
ATOM     11  C   UNL     1      -2.646   0.249  25.054  0.00  0.00    +0.117 C 
ATOM     12  N   UNL     1      -2.170  -0.397  24.865  0.00  0.00    -0.255 N 
ATOM     20  C   UNL     1      -1.420  -0.113  24.675  0.00  0.00    +0.308 C 
ATOM     21  O   UNL     1      -0.770  -0.571  24.453  0.00  0.00    -0.252 OA
ATOM     22  C   UNL     1      -2.367   1.730  25.099  0.00  0.00    +0.115 C 
ENDROOT
BRANCH   4   3
ATOM      3  C   UNL     1      -1.380   3.673  24.982  0.00  0.00    +0.227 C 
BRANCH   3   2
ATOM      1  C   UNL     1      -0.975   5.043  24.984  0.00  0.00    +0.175 C 
ATOM      2  O   UNL     1      -1.554   4.470  25.111  0.00  0.00    -0.342 OA
ENDBRANCH   3   2
ENDBRANCH   4   3
BRANCH  12  13
ATOM     13  C   UNL     1      -2.404  -1.188  24.865  0.00  0.00    +0.159 C 
BRANCH  13  14
ATOM     14  C   UNL     1      -3.103  -1.412  24.489  0.00  0.00    +0.141 A 
ATOM     15  N   UNL     1      -3.526  -0.963  23.942  0.00  0.00    -0.228 NA
ATOM     16  C   UNL     1      -4.187  -1.399  23.709  0.00  0.00    +0.119 A 
ATOM     17  C   UNL     1      -4.172  -2.118  24.113  0.00  0.00    +0.098 A 
ATOM     18  N   UNL     1      -3.502  -2.127  24.594  0.00  0.00    -0.310 N 
ATOM     19  C   UNL     1      -3.273  -2.742  25.094  0.00  0.00    +0.132 C 
ENDBRANCH  13  14
ENDBRANCH  12  13
TORSDOF 4
ENDMDL
MODEL 7
REMARK VINA RESULT:      -7.3      1.788      2.531
REMARK  Name = 
REMARK  4 active torsions:
REMARK  status: ('A' for Active; 'I' for Inactive)
REMARK    1  A    between atoms: O_2  and  C_3
REMARK    2  A    between atoms: C_3  and  C_4
REMARK    3  A    between atoms: N_12  and  C_13
REMARK    4  A    between atoms: C_13  and  C_14
REMARK                            x       y       z     vdW  Elec       q    Type
REMARK                         _______ _______ _______ _____ _____    ______ ____
ROOT
ATOM      4  C   UNL     1      -5.298   2.619  25.499  0.00  0.00    +0.256 C 
ATOM      5  O   UNL     1      -5.855   2.255  25.986  0.00  0.00    -0.272 OA
ATOM      6  N   UNL     1      -4.701   2.170  25.146  0.00  0.00    -0.274 N 
ATOM      7  C   UNL     1      -4.144   2.535  24.659  0.00  0.00    +0.115 C 
ATOM      8  C   UNL     1      -3.548   2.086  24.307  0.00  0.00    +0.116 C 
ATOM      9  N   UNL     1      -3.509   1.273  24.442  0.00  0.00    -0.261 N 
ATOM     10  C   UNL     1      -4.066   0.909  24.930  0.00  0.00    +0.116 C 
ATOM     11  C   UNL     1      -3.889   0.104  24.961  0.00  0.00    +0.117 C 
ATOM     12  N   UNL     1      -3.223  -0.029  24.494  0.00  0.00    -0.255 N 
ATOM     20  C   UNL     1      -2.988   0.693  24.173  0.00  0.00    +0.308 C 
ATOM     21  O   UNL     1      -2.345   0.815  23.671  0.00  0.00    -0.252 OA
ATOM     22  C   UNL     1      -4.663   1.358  25.282  0.00  0.00    +0.115 C 
ENDROOT
BRANCH   4   3
ATOM      3  C   UNL     1      -5.337   3.432  25.363  0.00  0.00    +0.227 C 
BRANCH   3   2
ATOM      1  C   UNL     1      -5.955   4.698  25.602  0.00  0.00    +0.175 C 
ATOM      2  O   UNL     1      -5.912   3.886  25.743  0.00  0.00    -0.342 OA
ENDBRANCH   3   2
ENDBRANCH   4   3
BRANCH  12  13
ATOM     13  C   UNL     1      -2.856  -0.758  24.369  0.00  0.00    +0.159 C 
BRANCH  13  14
ATOM     14  C   UNL     1      -3.312  -1.433  24.240  0.00  0.00    +0.141 A 
ATOM     15  N   UNL     1      -4.060  -1.456  23.893  0.00  0.00    -0.228 NA
ATOM     16  C   UNL     1      -4.310  -2.242  23.874  0.00  0.00    +0.119 A 
ATOM     17  C   UNL     1      -3.715  -2.705  24.210  0.00  0.00    +0.098 A 
ATOM     18  N   UNL     1      -3.099  -2.206  24.436  0.00  0.00    -0.310 N 
ATOM     19  C   UNL     1      -2.393  -2.439  24.795  0.00  0.00    +0.132 C 
ENDBRANCH  13  14
ENDBRANCH  12  13
TORSDOF 4
ENDMDL
MODEL 8
REMARK VINA RESULT:      -7.3      2.083      3.238
REMARK  Name = 
REMARK  4 active torsions:
REMARK  status: ('A' for Active; 'I' for Inactive)
REMARK    1  A    between atoms: O_2  and  C_3
REMARK    2  A    between atoms: C_3  and  C_4
REMARK    3  A    between atoms: N_12  and  C_13
REMARK    4  A    between atoms: C_13  and  C_14
REMARK                            x       y       z     vdW  Elec       q    Type
REMARK                         _______ _______ _______ _____ _____    ______ ____
ROOT
ATOM      4  C   UNL     1      -4.331   2.785  24.917  0.00  0.00    +0.256 C 
ATOM      5  O   UNL     1      -4.809   2.226  24.543  0.00  0.00    -0.272 OA
ATOM      6  N   UNL     1      -3.512   2.681  24.938  0.00  0.00    -0.274 N 
ATOM      7  C   UNL     1      -3.034   3.240  25.312  0.00  0.00    +0.115 C 
ATOM      8  C   UNL     1      -2.217   3.135  25.332  0.00  0.00    +0.116 C 
ATOM      9  N   UNL     1      -1.876   2.472  24.979  0.00  0.00    -0.261 N 
ATOM     10  C   UNL     1      -2.354   1.913  24.605  0.00  0.00    +0.116 C 
ATOM     11  C   UNL     1      -1.866   1.319  24.307  0.00  0.00    +0.117 C 
ATOM     12  N   UNL     1      -1.087   1.510  24.497  0.00  0.00    -0.255 N 
ATOM     20  C   UNL     1      -1.093   2.222  24.912  0.00  0.00    +0.308 C 
ATOM     21  O   UNL     1      -0.432   2.617  25.209  0.00  0.00    -0.252 OA
ATOM     22  C   UNL     1      -3.173   2.017  24.584  0.00  0.00    +0.115 C 
ENDROOT
BRANCH   4   3
ATOM      3  C   UNL     1      -4.671   3.449  25.270  0.00  0.00    +0.227 C 
BRANCH   3   2
ATOM      1  C   UNL     1      -5.832   4.196  25.636  0.00  0.00    +0.175 C 
ATOM      2  O   UNL     1      -5.492   3.517  25.314  0.00  0.00    -0.342 OA
ENDBRANCH   3   2
ENDBRANCH   4   3
BRANCH  12  13
ATOM     13  C   UNL     1      -0.418   1.066  24.305  0.00  0.00    +0.159 C 
BRANCH  13  14
ATOM     14  C   UNL     1      -0.413   0.251  24.429  0.00  0.00    +0.141 A 
ATOM     15  N   UNL     1      -0.787  -0.148  25.046  0.00  0.00    -0.228 NA
ATOM     16  C   UNL     1      -0.638  -0.955  24.957  0.00  0.00    +0.119 A 
ATOM     17  C   UNL     1      -0.172  -1.054  24.283  0.00  0.00    +0.098 A 
ATOM     18  N   UNL     1      -0.032  -0.309  23.957  0.00  0.00    -0.310 N 
ATOM     19  C   UNL     1       0.410  -0.152  23.279  0.00  0.00    +0.132 C 
ENDBRANCH  13  14
ENDBRANCH  12  13
TORSDOF 4
ENDMDL
MODEL 9
REMARK VINA RESULT:      -5.4     13.887     14.660
REMARK  Name = 
REMARK  4 active torsions:
REMARK  status: ('A' for Active; 'I' for Inactive)
REMARK    1  A    between atoms: O_2  and  C_3
REMARK    2  A    between atoms: C_3  and  C_4
REMARK    3  A    between atoms: N_12  and  C_13
REMARK    4  A    between atoms: C_13  and  C_14
REMARK                            x       y       z     vdW  Elec       q    Type
REMARK                         _______ _______ _______ _____ _____    ______ ____
ROOT
ATOM      4  C   UNL     1      -3.473 -10.623  15.394  0.00  0.00    +0.256 C 
ATOM      5  O   UNL     1      -3.810 -10.509  14.650  0.00  0.00    -0.272 OA
ATOM      6  N   UNL     1      -3.953 -10.644  16.066  0.00  0.00    -0.274 N 
ATOM      7  C   UNL     1      -3.616 -10.758  16.810  0.00  0.00    +0.115 C 
ATOM      8  C   UNL     1      -4.095 -10.778  17.481  0.00  0.00    +0.116 C 
ATOM      9  N   UNL     1      -4.912 -10.684  17.408  0.00  0.00    -0.261 N 
ATOM     10  C   UNL     1      -5.249 -10.569  16.664  0.00  0.00    +0.116 C 
ATOM     11  C   UNL     1      -6.064 -10.493  16.761  0.00  0.00    +0.117 C 
ATOM     12  N   UNL     1      -6.231 -10.561  17.566  0.00  0.00    -0.255 N 
ATOM     20  C   UNL     1      -5.519 -10.679  17.965  0.00  0.00    +0.308 C 
ATOM     21  O   UNL     1      -5.430 -10.774  18.780  0.00  0.00    -0.252 OA
ATOM     22  C   UNL     1      -4.769 -10.549  15.992  0.00  0.00    +0.115 C 
ENDROOT
BRANCH   4   3
ATOM      3  C   UNL     1      -2.657 -10.718  15.468  0.00  0.00    +0.227 C 
BRANCH   3   2
ATOM      1  C   UNL     1      -1.359 -10.763  14.872  0.00  0.00    +0.175 C 
ATOM      2  O   UNL     1      -2.170 -10.628  14.807  0.00  0.00    -0.342 OA
ENDBRANCH   3   2
ENDBRANCH   4   3
BRANCH  12  13
ATOM     13  C   UNL     1      -6.979 -10.518  17.911  0.00  0.00    +0.159 C 
BRANCH  13  14
ATOM     14  C   UNL     1      -7.522  -9.953  17.652  0.00  0.00    +0.141 A 
ATOM     15  N   UNL     1      -7.352  -9.293  17.189  0.00  0.00    -0.228 NA
ATOM     16  C   UNL     1      -8.055  -8.881  17.062  0.00  0.00    +0.119 A 
ATOM     17  C   UNL     1      -8.661  -9.288  17.448  0.00  0.00    +0.098 A 
ATOM     18  N   UNL     1      -8.332  -9.950  17.812  0.00  0.00    -0.310 N 
ATOM     19  C   UNL     1      -8.741 -10.511  18.259  0.00  0.00    +0.132 C 
ENDBRANCH  13  14
ENDBRANCH  12  13
TORSDOF 4
ENDMDL
MODEL 10
REMARK VINA RESULT:      -5.3     15.412     17.396
REMARK  Name = 
REMARK  4 active torsions:
REMARK  status: ('A' for Active; 'I' for Inactive)
REMARK    1  A    between atoms: O_2  and  C_3
REMARK    2  A    between atoms: C_3  and  C_4
REMARK    3  A    between atoms: N_12  and  C_13
REMARK    4  A    between atoms: C_13  and  C_14
REMARK                            x       y       z     vdW  Elec       q    Type
REMARK                         _______ _______ _______ _____ _____    ______ ____
ROOT
ATOM      4  C   UNL     1      -2.079 -10.376  13.997  0.00  0.00    +0.256 C 
ATOM      5  O   UNL     1      -1.363 -10.174  13.640  0.00  0.00    -0.272 OA
ATOM      6  N   UNL     1      -2.763 -10.443  13.540  0.00  0.00    -0.274 N 
ATOM      7  C   UNL     1      -3.479 -10.644  13.896  0.00  0.00    +0.115 C 
ATOM      8  C   UNL     1      -4.163 -10.711  13.440  0.00  0.00    +0.116 C 
ATOM      9  N   UNL     1      -4.131 -10.576  12.626  0.00  0.00    -0.261 N 
ATOM     10  C   UNL     1      -3.415 -10.375  12.270  0.00  0.00    +0.116 C 
ATOM     11  C   UNL     1      -3.551 -10.275  11.463  0.00  0.00    +0.117 C 
ATOM     12  N   UNL     1      -4.351 -10.415  11.320  0.00  0.00    -0.255 N 
ATOM     20  C   UNL     1      -4.709 -10.601  12.040  0.00  0.00    +0.308 C 
ATOM     21  O   UNL     1      -5.507 -10.781  12.152  0.00  0.00    -0.252 OA
ATOM     22  C   UNL     1      -2.730 -10.308  12.727  0.00  0.00    +0.115 C 
ENDROOT
BRANCH   4   3
ATOM      3  C   UNL     1      -2.112 -10.510  14.810  0.00  0.00    +0.227 C 
BRANCH   3   2
ATOM      1  C   UNL     1      -1.455 -10.603  16.075  0.00  0.00    +0.175 C 
ATOM      2  O   UNL     1      -1.426 -10.447  15.266  0.00  0.00    -0.342 OA
ENDBRANCH   3   2
ENDBRANCH   4   3
BRANCH  12  13
ATOM     13  C   UNL     1      -4.728 -10.376  10.587  0.00  0.00    +0.159 C 
BRANCH  13  14
ATOM     14  C   UNL     1      -4.633  -9.710  10.109  0.00  0.00    +0.141 A 
ATOM     15  N   UNL     1      -4.629  -8.926  10.364  0.00  0.00    -0.228 NA
ATOM     16  C   UNL     1      -4.520  -8.443   9.705  0.00  0.00    +0.119 A 
ATOM     17  C   UNL     1      -4.456  -8.929   9.041  0.00  0.00    +0.098 A 
ATOM     18  N   UNL     1      -4.526  -9.713   9.291  0.00  0.00    -0.310 N 
ATOM     19  C   UNL     1      -4.495 -10.380   8.807  0.00  0.00    +0.132 C 
ENDBRANCH  13  14
ENDBRANCH  12  13
TORSDOF 4
ENDMDL
