MODEL 1
REMARK VINA RESULT:     -12.1      0.000      0.000
REMARK  Name = 
REMARK  6 active torsions:
REMARK  status: ('A' for Active; 'I' for Inactive)
REMARK    1  A    between atoms: C_5  and  C_8
REMARK    2  A    between atoms: N_10  and  C_11
REMARK    3  A    between atoms: C_15  and  N_19
REMARK    4  A    between atoms: C_23  and  O_24
REMARK    5  A    between atoms: O_24  and  C_25
REMARK    6  A    between atoms: C_29  and  N_31
REMARK                            x       y       z     vdW  Elec       q    Type
REMARK                         _______ _______ _______ _____ _____    ______ ____
ROOT
ATOM     11  C   UNL     1      -1.715  -0.244  25.186  0.00  0.00    +0.155 C 
ATOM     12  C   UNL     1      -1.773  -0.026  25.979  0.00  0.00    +0.166 C 
ATOM     13  O   UNL     1      -1.293   0.633  26.098  0.00  0.00    -0.350 OA
ATOM     14  C   UNL     1      -0.938   0.824  25.379  0.00  0.00    +0.169 C 
ATOM     15  C   UNL     1      -0.422   1.349  25.007  0.00  0.00    +0.170 C 
ATOM     16  C   UNL     1      -0.363   1.131  24.213  0.00  0.00    +0.169 C 
ATOM     17  O   UNL     1      -0.844   0.471  24.095  0.00  0.00    -0.350 OA
ATOM     18  C   UNL     1      -1.199   0.281  24.815  0.00  0.00    +0.167 C 
ENDROOT
BRANCH  15  19
ATOM     19  N   UNL     1      -0.032   1.982  25.366  0.00  0.00    -0.180 N 
ATOM     20  N   UNL     1       0.537   1.926  25.962  0.00  0.00    -0.040 NA
ATOM     21  N   UNL     1       0.777   2.691  26.156  0.00  0.00    -0.020 NA
ATOM     22  N   UNL     1       0.358   3.218  25.681  0.00  0.00    -0.071 NA
ATOM     23  C   UNL     1      -0.142   2.780  25.193  0.00  0.00    +0.343 A 
BRANCH  23  24
ATOM     24  O   UNL     1      -0.661   3.087  24.630  0.00  0.00    -0.421 OA
BRANCH  24  25
ATOM     25  C   UNL     1      -1.177   3.699  24.834  0.00  0.00    +0.150 A 
ATOM     26  C   UNL     1      -0.892   4.467  24.920  0.00  0.00    +0.038 A 
ATOM     27  C   UNL     1      -1.407   5.078  25.124  0.00  0.00    +0.004 A 
ATOM     28  C   UNL     1      -2.208   4.920  25.243  0.00  0.00    +0.015 A 
ATOM     29  C   UNL     1      -2.494   4.150  25.157  0.00  0.00    +0.051 A 
ATOM     30  C   UNL     1      -1.978   3.540  24.952  0.00  0.00    +0.052 A 
BRANCH  29  31
ATOM     31  N   UNL     1      -3.295   3.991  25.275  0.00  0.00    -0.303 N 
ATOM     32  C   UNL     1      -3.798   3.904  24.626  0.00  0.00    +0.123 C 
ATOM     33  C   UNL     1      -4.598   3.745  24.745  0.00  0.00    +0.164 C 
ATOM     34  O   UNL     1      -4.896   3.673  25.510  0.00  0.00    -0.350 OA
ATOM     35  C   UNL     1      -4.393   3.760  26.159  0.00  0.00    +0.164 C 
ATOM     36  C   UNL     1      -3.592   3.919  26.040  0.00  0.00    +0.123 C 
ENDBRANCH  29  31
ENDBRANCH  24  25
ENDBRANCH  23  24
ENDBRANCH  15  19
BRANCH  11  10
ATOM      8  C   UNL     1      -2.901  -1.018  24.991  0.00  0.00    +0.265 C 
ATOM      9  O   UNL     1      -3.307  -0.526  25.515  0.00  0.00    -0.268 OA
ATOM     10  N   UNL     1      -2.105  -0.877  24.827  0.00  0.00    -0.198 NA
BRANCH   8   5
ATOM      1  C   UNL     1      -4.461  -3.546  23.555  0.00  0.00    +0.031 C 
ATOM      2  C   UNL     1      -4.070  -2.914  23.914  0.00  0.00    -0.022 A 
ATOM      3  C   UNL     1      -3.459  -3.057  24.450  0.00  0.00    -0.004 A 
ATOM      4  C   UNL     1      -3.069  -2.425  24.808  0.00  0.00    +0.004 A 
ATOM      5  C   UNL     1      -3.290  -1.650  24.632  0.00  0.00    +0.055 A 
ATOM      6  C   UNL     1      -3.902  -1.507  24.097  0.00  0.00    +0.004 A 
ATOM      7  C   UNL     1      -4.292  -2.139  23.738  0.00  0.00    -0.004 A 
ENDBRANCH   8   5
ENDBRANCH  11  10
TORSDOF 6
ENDMDL
MODEL 2
REMARK VINA RESULT:     -10.8      1.413      3.430
REMARK  Name = 
REMARK  6 active torsions:
REMARK  status: ('A' for Active; 'I' for Inactive)
REMARK    1  A    between atoms: C_5  and  C_8
REMARK    2  A    between atoms: N_10  and  C_11
REMARK    3  A    between atoms: C_15  and  N_19
REMARK    4  A    between atoms: C_23  and  O_24
REMARK    5  A    between atoms: O_24  and  C_25
REMARK    6  A    between atoms: C_29  and  N_31
REMARK                            x       y       z     vdW  Elec       q    Type
REMARK                         _______ _______ _______ _____ _____    ______ ____
ROOT
ATOM     11  C   UNL     1      -4.325   0.753  24.414  0.00  0.00    +0.155 C 
ATOM     12  C   UNL     1      -4.039   1.198  23.782  0.00  0.00    +0.166 C 
ATOM     13  O   UNL     1      -4.128   1.996  23.972  0.00  0.00    -0.350 OA
ATOM     14  C   UNL     1      -4.469   2.043  24.721  0.00  0.00    +0.169 C 
ATOM     15  C   UNL     1      -4.735   2.565  25.303  0.00  0.00    +0.170 C 
ATOM     16  C   UNL     1      -5.021   2.119  25.935  0.00  0.00    +0.169 C 
ATOM     17  O   UNL     1      -4.932   1.322  25.744  0.00  0.00    -0.350 OA
ATOM     18  C   UNL     1      -4.591   1.275  24.994  0.00  0.00    +0.167 C 
ENDROOT
BRANCH  15  19
ATOM     19  N   UNL     1      -4.718   3.389  25.259  0.00  0.00    -0.180 N 
ATOM     20  N   UNL     1      -5.285   3.868  24.899  0.00  0.00    -0.040 NA
ATOM     21  N   UNL     1      -5.048   4.653  24.985  0.00  0.00    -0.020 NA
ATOM     22  N   UNL     1      -4.334   4.660  25.398  0.00  0.00    -0.071 NA
ATOM     23  C   UNL     1      -4.130   3.878  25.567  0.00  0.00    +0.343 A 
BRANCH  23  24
ATOM     24  O   UNL     1      -3.456   3.630  25.974  0.00  0.00    -0.421 OA
BRANCH  24  25
ATOM     25  C   UNL     1      -2.713   3.915  25.754  0.00  0.00    +0.150 A 
ATOM     26  C   UNL     1      -2.595   4.725  25.654  0.00  0.00    +0.038 A 
ATOM     27  C   UNL     1      -1.853   5.010  25.434  0.00  0.00    +0.004 A 
ATOM     28  C   UNL     1      -1.228   4.484  25.314  0.00  0.00    +0.015 A 
ATOM     29  C   UNL     1      -1.347   3.673  25.413  0.00  0.00    +0.051 A 
ATOM     30  C   UNL     1      -2.090   3.389  25.633  0.00  0.00    +0.052 A 
BRANCH  29  31
ATOM     31  N   UNL     1      -0.723   3.147  25.293  0.00  0.00    -0.303 N 
ATOM     32  C   UNL     1      -0.305   2.849  25.939  0.00  0.00    +0.123 C 
ATOM     33  C   UNL     1       0.319   2.323  25.819  0.00  0.00    +0.164 C 
ATOM     34  O   UNL     1       0.524   2.094  25.053  0.00  0.00    -0.350 OA
ATOM     35  C   UNL     1       0.106   2.392  24.407  0.00  0.00    +0.164 C 
ATOM     36  C   UNL     1      -0.518   2.919  24.528  0.00  0.00    +0.123 C 
ENDBRANCH  29  31
ENDBRANCH  24  25
ENDBRANCH  23  24
ENDBRANCH  15  19
BRANCH  11  10
ATOM      8  C   UNL     1      -3.665  -0.509  24.282  0.00  0.00    +0.265 C 
ATOM      9  O   UNL     1      -2.970  -0.121  24.063  0.00  0.00    -0.268 OA
ATOM     10  N   UNL     1      -4.342  -0.071  24.458  0.00  0.00    -0.198 NA
BRANCH   8   5
ATOM      1  C   UNL     1      -3.733  -3.803  24.457  0.00  0.00    +0.031 C 
ATOM      2  C   UNL     1      -3.716  -2.979  24.413  0.00  0.00    -0.022 A 
ATOM      3  C   UNL     1      -3.258  -2.547  24.946  0.00  0.00    -0.004 A 
ATOM      4  C   UNL     1      -3.241  -1.724  24.903  0.00  0.00    +0.004 A 
ATOM      5  C   UNL     1      -3.682  -1.332  24.326  0.00  0.00    +0.055 A 
ATOM      6  C   UNL     1      -4.140  -1.763  23.793  0.00  0.00    +0.004 A 
ATOM      7  C   UNL     1      -4.157  -2.587  23.836  0.00  0.00    -0.004 A 
ENDBRANCH   8   5
ENDBRANCH  11  10
TORSDOF 6
ENDMDL
MODEL 3
REMARK VINA RESULT:     -10.8      2.838      5.651
REMARK  Name = 
REMARK  6 active torsions:
REMARK  status: ('A' for Active; 'I' for Inactive)
REMARK    1  A    between atoms: C_5  and  C_8
REMARK    2  A    between atoms: N_10  and  C_11
REMARK    3  A    between atoms: C_15  and  N_19
REMARK    4  A    between atoms: C_23  and  O_24
REMARK    5  A    between atoms: O_24  and  C_25
REMARK    6  A    between atoms: C_29  and  N_31
REMARK                            x       y       z     vdW  Elec       q    Type
REMARK                         _______ _______ _______ _____ _____    ______ ____
ROOT
ATOM     11  C   UNL     1       1.168   0.514  23.231  0.00  0.00    +0.155 C 
ATOM     12  C   UNL     1       0.764   0.102  22.642  0.00  0.00    +0.166 C 
ATOM     13  O   UNL     1      -0.020   0.357  22.646  0.00  0.00    -0.350 OA
ATOM     14  C   UNL     1      -0.101   0.927  23.236  0.00  0.00    +0.169 C 
ATOM     15  C   UNL     1      -0.635   1.437  23.604  0.00  0.00    +0.170 C 
ATOM     16  C   UNL     1      -0.230   1.849  24.193  0.00  0.00    +0.169 C 
ATOM     17  O   UNL     1       0.554   1.594  24.189  0.00  0.00    -0.350 OA
ATOM     18  C   UNL     1       0.634   1.024  23.598  0.00  0.00    +0.167 C 
ENDROOT
BRANCH  15  19
ATOM     19  N   UNL     1      -1.434   1.520  23.415  0.00  0.00    -0.180 N 
ATOM     20  N   UNL     1      -1.741   1.956  22.785  0.00  0.00    -0.040 NA
ATOM     21  N   UNL     1      -2.563   1.887  22.804  0.00  0.00    -0.020 NA
ATOM     22  N   UNL     1      -2.764   1.410  23.446  0.00  0.00    -0.071 NA
ATOM     23  C   UNL     1      -2.066   1.183  23.823  0.00  0.00    +0.343 A 
BRANCH  23  24
ATOM     24  O   UNL     1      -2.011   0.702  24.492  0.00  0.00    -0.421 OA
BRANCH  24  25
ATOM     25  C   UNL     1      -2.678   0.305  24.771  0.00  0.00    +0.150 A 
ATOM     26  C   UNL     1      -3.213   0.693  25.264  0.00  0.00    +0.038 A 
ATOM     27  C   UNL     1      -3.880   0.296  25.543  0.00  0.00    +0.004 A 
ATOM     28  C   UNL     1      -4.012  -0.490  25.328  0.00  0.00    +0.015 A 
ATOM     29  C   UNL     1      -3.476  -0.879  24.835  0.00  0.00    +0.051 A 
ATOM     30  C   UNL     1      -2.809  -0.481  24.557  0.00  0.00    +0.052 A 
BRANCH  29  31
ATOM     31  N   UNL     1      -3.607  -1.664  24.621  0.00  0.00    -0.303 N 
ATOM     32  C   UNL     1      -4.111  -1.841  23.992  0.00  0.00    +0.123 C 
ATOM     33  C   UNL     1      -4.242  -2.627  23.777  0.00  0.00    +0.164 C 
ATOM     34  O   UNL     1      -3.870  -3.235  24.191  0.00  0.00    -0.350 OA
ATOM     35  C   UNL     1      -3.366  -3.058  24.820  0.00  0.00    +0.164 C 
ATOM     36  C   UNL     1      -3.235  -2.273  25.034  0.00  0.00    +0.123 C 
ENDBRANCH  29  31
ENDBRANCH  24  25
ENDBRANCH  23  24
ENDBRANCH  15  19
BRANCH  11  10
ATOM      8  C   UNL     1       2.512   0.233  22.832  0.00  0.00    +0.265 C 
ATOM      9  O   UNL     1       2.256   0.119  22.055  0.00  0.00    -0.268 OA
ATOM     10  N   UNL     1       1.967   0.431  23.419  0.00  0.00    -0.198 NA
BRANCH   8   5
ATOM      1  C   UNL     1       5.707  -0.099  23.584  0.00  0.00    +0.031 C 
ATOM      2  C   UNL     1       4.908  -0.016  23.396  0.00  0.00    -0.022 A 
ATOM      3  C   UNL     1       4.386  -0.641  23.527  0.00  0.00    -0.004 A 
ATOM      4  C   UNL     1       3.588  -0.558  23.338  0.00  0.00    +0.004 A 
ATOM      5  C   UNL     1       3.310   0.150  23.020  0.00  0.00    +0.055 A 
ATOM      6  C   UNL     1       3.832   0.776  22.889  0.00  0.00    +0.004 A 
ATOM      7  C   UNL     1       4.631   0.693  23.077  0.00  0.00    -0.004 A 
ENDBRANCH   8   5
ENDBRANCH  11  10
TORSDOF 6
ENDMDL
MODEL 4
REMARK VINA RESULT:     -10.5      1.876      4.518
REMARK  Name = 
REMARK  6 active torsions:
REMARK  status: ('A' for Active; 'I' for Inactive)
REMARK    1  A    between atoms: C_5  and  C_8
REMARK    2  A    between atoms: N_10  and  C_11
REMARK    3  A    between atoms: C_15  and  N_19
REMARK    4  A    between atoms: C_23  and  O_24
REMARK    5  A    between atoms: O_24  and  C_25
REMARK    6  A    between atoms: C_29  and  N_31
REMARK                            x       y       z     vdW  Elec       q    Type
REMARK                         _______ _______ _______ _____ _____    ______ ____
ROOT
ATOM     11  C   UNL     1      -0.132   1.923  24.567  0.00  0.00    +0.155 C 
ATOM     12  C   UNL     1      -0.329   1.608  25.303  0.00  0.00    +0.166 C 
ATOM     13  O   UNL     1      -1.008   1.991  25.570  0.00  0.00    -0.350 OA
ATOM     14  C   UNL     1      -1.232   2.543  25.000  0.00  0.00    +0.169 C 
ATOM     15  C   UNL     1      -1.789   3.121  24.812  0.00  0.00    +0.170 C 
ATOM     16  C   UNL     1      -1.593   3.436  24.075  0.00  0.00    +0.169 C 
ATOM     17  O   UNL     1      -0.913   3.052  23.808  0.00  0.00    -0.350 OA
ATOM     18  C   UNL     1      -0.690   2.500  24.379  0.00  0.00    +0.167 C 
ENDROOT
BRANCH  15  19
ATOM     19  N   UNL     1      -2.432   3.345  25.279  0.00  0.00    -0.180 N 
ATOM     20  N   UNL     1      -2.398   3.810  25.960  0.00  0.00    -0.040 NA
ATOM     21  N   UNL     1      -3.166   3.895  26.249  0.00  0.00    -0.020 NA
ATOM     22  N   UNL     1      -3.674   3.483  25.747  0.00  0.00    -0.071 NA
ATOM     23  C   UNL     1      -3.220   3.143  25.148  0.00  0.00    +0.343 A 
BRANCH  23  24
ATOM     24  O   UNL     1      -3.506   2.682  24.526  0.00  0.00    -0.421 OA
BRANCH  24  25
ATOM     25  C   UNL     1      -4.086   2.111  24.667  0.00  0.00    +0.150 A 
ATOM     26  C   UNL     1      -4.867   2.341  24.797  0.00  0.00    +0.038 A 
ATOM     27  C   UNL     1      -5.446   1.772  24.939  0.00  0.00    +0.004 A 
ATOM     28  C   UNL     1      -5.244   0.971  24.950  0.00  0.00    +0.015 A 
ATOM     29  C   UNL     1      -4.462   0.741  24.820  0.00  0.00    +0.051 A 
ATOM     30  C   UNL     1      -3.883   1.312  24.678  0.00  0.00    +0.052 A 
BRANCH  29  31
ATOM     31  N   UNL     1      -4.260  -0.058  24.831  0.00  0.00    -0.303 N 
ATOM     32  C   UNL     1      -3.902  -0.383  25.500  0.00  0.00    +0.123 C 
ATOM     33  C   UNL     1      -3.700  -1.183  25.511  0.00  0.00    +0.164 C 
ATOM     34  O   UNL     1      -3.854  -1.657  24.854  0.00  0.00    -0.350 OA
ATOM     35  C   UNL     1      -4.211  -1.331  24.185  0.00  0.00    +0.164 C 
ATOM     36  C   UNL     1      -4.414  -0.532  24.174  0.00  0.00    +0.123 C 
ENDBRANCH  29  31
ENDBRANCH  24  25
ENDBRANCH  23  24
ENDBRANCH  15  19
BRANCH  11  10
ATOM      8  C   UNL     1       0.610   0.908  23.886  0.00  0.00    +0.265 C 
ATOM      9  O   UNL     1       0.066   0.341  24.140  0.00  0.00    -0.268 OA
ATOM     10  N   UNL     1       0.510   1.699  24.099  0.00  0.00    -0.198 NA
BRANCH   8   5
ATOM      1  C   UNL     1       3.177   0.011  22.017  0.00  0.00    +0.031 C 
ATOM      2  C   UNL     1       2.535   0.236  22.485  0.00  0.00    -0.022 A 
ATOM      3  C   UNL     1       2.622   0.834  23.046  0.00  0.00    -0.004 A 
ATOM      4  C   UNL     1       1.981   1.058  23.512  0.00  0.00    +0.004 A 
ATOM      5  C   UNL     1       1.251   0.684  23.419  0.00  0.00    +0.055 A 
ATOM      6  C   UNL     1       1.164   0.086  22.858  0.00  0.00    +0.004 A 
ATOM      7  C   UNL     1       1.806  -0.139  22.390  0.00  0.00    -0.004 A 
ENDBRANCH   8   5
ENDBRANCH  11  10
TORSDOF 6
ENDMDL
MODEL 5
REMARK VINA RESULT:     -10.4      2.593      4.744
REMARK  Name = 
REMARK  6 active torsions:
REMARK  status: ('A' for Active; 'I' for Inactive)
REMARK    1  A    between atoms: C_5  and  C_8
REMARK    2  A    between atoms: N_10  and  C_11
REMARK    3  A    between atoms: C_15  and  N_19
REMARK    4  A    between atoms: C_23  and  O_24
REMARK    5  A    between atoms: O_24  and  C_25
REMARK    6  A    between atoms: C_29  and  N_31
REMARK                            x       y       z     vdW  Elec       q    Type
REMARK                         _______ _______ _______ _____ _____    ______ ____
ROOT
ATOM     11  C   UNL     1       0.838   0.041  23.448  0.00  0.00    +0.155 C 
ATOM     12  C   UNL     1       0.446  -0.241  22.779  0.00  0.00    +0.166 C 
ATOM     13  O   UNL     1      -0.359  -0.280  22.955  0.00  0.00    -0.350 OA
ATOM     14  C   UNL     1      -0.464  -0.022  23.731  0.00  0.00    +0.169 C 
ATOM     15  C   UNL     1      -1.026   0.113  24.320  0.00  0.00    +0.170 C 
ATOM     16  C   UNL     1      -0.634   0.394  24.988  0.00  0.00    +0.169 C 
ATOM     17  O   UNL     1       0.171   0.433  24.813  0.00  0.00    -0.350 OA
ATOM     18  C   UNL     1       0.276   0.176  24.036  0.00  0.00    +0.167 C 
ENDROOT
BRANCH  15  19
ATOM     19  N   UNL     1      -1.839  -0.012  24.251  0.00  0.00    -0.180 N 
ATOM     20  N   UNL     1      -2.220  -0.745  24.251  0.00  0.00    -0.040 NA
ATOM     21  N   UNL     1      -3.029  -0.611  24.171  0.00  0.00    -0.020 NA
ATOM     22  N   UNL     1      -3.150   0.203  24.121  0.00  0.00    -0.071 NA
ATOM     23  C   UNL     1      -2.414   0.573  24.171  0.00  0.00    +0.343 A 
BRANCH  23  24
ATOM     24  O   UNL     1      -2.278   1.387  24.145  0.00  0.00    -0.421 OA
BRANCH  24  25
ATOM     25  C   UNL     1      -2.892   1.902  23.945  0.00  0.00    +0.150 A 
ATOM     26  C   UNL     1      -2.971   2.168  23.169  0.00  0.00    +0.038 A 
ATOM     27  C   UNL     1      -3.584   2.682  22.969  0.00  0.00    +0.004 A 
ATOM     28  C   UNL     1      -4.119   2.931  23.547  0.00  0.00    +0.015 A 
ATOM     29  C   UNL     1      -4.040   2.664  24.324  0.00  0.00    +0.051 A 
ATOM     30  C   UNL     1      -3.426   2.149  24.523  0.00  0.00    +0.052 A 
BRANCH  29  31
ATOM     31  N   UNL     1      -4.574   2.912  24.902  0.00  0.00    -0.303 N 
ATOM     32  C   UNL     1      -4.409   3.582  25.355  0.00  0.00    +0.123 C 
ATOM     33  C   UNL     1      -4.943   3.830  25.932  0.00  0.00    +0.164 C 
ATOM     34  O   UNL     1      -5.641   3.408  26.058  0.00  0.00    -0.350 OA
ATOM     35  C   UNL     1      -5.805   2.738  25.604  0.00  0.00    +0.164 C 
ATOM     36  C   UNL     1      -5.271   2.490  25.027  0.00  0.00    +0.123 C 
ENDBRANCH  29  31
ENDBRANCH  24  25
ENDBRANCH  23  24
ENDBRANCH  15  19
BRANCH  11  10
ATOM      8  C   UNL     1       2.146   0.027  22.871  0.00  0.00    +0.265 C 
ATOM      9  O   UNL     1       1.827  -0.236  22.156  0.00  0.00    -0.268 OA
ATOM     10  N   UNL     1       1.651   0.166  23.516  0.00  0.00    -0.198 NA
BRANCH   8   5
ATOM      1  C   UNL     1       5.396   0.525  23.143  0.00  0.00    +0.031 C 
ATOM      2  C   UNL     1       4.583   0.401  23.075  0.00  0.00    -0.022 A 
ATOM      3  C   UNL     1       4.093   1.011  22.816  0.00  0.00    -0.004 A 
ATOM      4  C   UNL     1       3.281   0.887  22.748  0.00  0.00    +0.004 A 
ATOM      5  C   UNL     1       2.958   0.152  22.939  0.00  0.00    +0.055 A 
ATOM      6  C   UNL     1       3.449  -0.459  23.197  0.00  0.00    +0.004 A 
ATOM      7  C   UNL     1       4.262  -0.334  23.266  0.00  0.00    -0.004 A 
ENDBRANCH   8   5
ENDBRANCH  11  10
TORSDOF 6
ENDMDL
MODEL 6
REMARK VINA RESULT:     -10.1      2.594      5.607
REMARK  Name = 
REMARK  6 active torsions:
REMARK  status: ('A' for Active; 'I' for Inactive)
REMARK    1  A    between atoms: C_5  and  C_8
REMARK    2  A    between atoms: N_10  and  C_11
REMARK    3  A    between atoms: C_15  and  N_19
REMARK    4  A    between atoms: C_23  and  O_24
REMARK    5  A    between atoms: O_24  and  C_25
REMARK    6  A    between atoms: C_29  and  N_31
REMARK                            x       y       z     vdW  Elec       q    Type
REMARK                         _______ _______ _______ _____ _____    ______ ____
ROOT
ATOM     11  C   UNL     1      -2.816   1.157  24.733  0.00  0.00    +0.155 C 
ATOM     12  C   UNL     1      -3.064   0.502  24.297  0.00  0.00    +0.166 C 
ATOM     13  O   UNL     1      -2.431  -0.024  24.247  0.00  0.00    -0.350 OA
ATOM     14  C   UNL     1      -1.793   0.304  24.651  0.00  0.00    +0.169 C 
ATOM     15  C   UNL     1      -1.007   0.183  24.871  0.00  0.00    +0.170 C 
ATOM     16  C   UNL     1      -0.759   0.837  25.307  0.00  0.00    +0.169 C 
ATOM     17  O   UNL     1      -1.392   1.363  25.358  0.00  0.00    -0.350 OA
ATOM     18  C   UNL     1      -2.031   1.034  24.952  0.00  0.00    +0.167 C 
ENDROOT
BRANCH  15  19
ATOM     19  N   UNL     1      -0.549  -0.479  24.686  0.00  0.00    -0.180 N 
ATOM     20  N   UNL     1      -0.630  -1.232  25.014  0.00  0.00    -0.040 NA
ATOM     21  N   UNL     1      -0.061  -1.721  24.672  0.00  0.00    -0.020 NA
ATOM     22  N   UNL     1       0.371  -1.271  24.133  0.00  0.00    -0.071 NA
ATOM     23  C   UNL     1       0.069  -0.503  24.142  0.00  0.00    +0.343 A 
BRANCH  23  24
ATOM     24  O   UNL     1       0.339   0.129  23.685  0.00  0.00    -0.421 OA
BRANCH  24  25
ATOM     25  C   UNL     1       0.903   0.002  23.096  0.00  0.00    +0.150 A 
ATOM     26  C   UNL     1       0.672  -0.290  22.361  0.00  0.00    +0.038 A 
ATOM     27  C   UNL     1       1.235  -0.418  21.772  0.00  0.00    +0.004 A 
ATOM     28  C   UNL     1       2.030  -0.252  21.918  0.00  0.00    +0.015 A 
ATOM     29  C   UNL     1       2.262   0.041  22.655  0.00  0.00    +0.051 A 
ATOM     30  C   UNL     1       1.698   0.168  23.243  0.00  0.00    +0.052 A 
BRANCH  29  31
ATOM     31  N   UNL     1       3.056   0.207  22.802  0.00  0.00    -0.303 N 
ATOM     32  C   UNL     1       3.543  -0.370  23.135  0.00  0.00    +0.123 C 
ATOM     33  C   UNL     1       4.337  -0.204  23.282  0.00  0.00    +0.164 C 
ATOM     34  O   UNL     1       4.645   0.538  23.097  0.00  0.00    -0.350 OA
ATOM     35  C   UNL     1       4.158   1.115  22.764  0.00  0.00    +0.164 C 
ATOM     36  C   UNL     1       3.364   0.949  22.617  0.00  0.00    +0.123 C 
ENDBRANCH  29  31
ENDBRANCH  24  25
ENDBRANCH  23  24
ENDBRANCH  15  19
BRANCH  11  10
ATOM      8  C   UNL     1      -4.097   1.773  24.882  0.00  0.00    +0.265 C 
ATOM      9  O   UNL     1      -4.462   1.066  24.661  0.00  0.00    -0.268 OA
ATOM     10  N   UNL     1      -3.274   1.818  24.918  0.00  0.00    -0.198 NA
BRANCH   8   5
ATOM      1  C   UNL     1      -5.930   4.416  25.621  0.00  0.00    +0.031 C 
ATOM      2  C   UNL     1      -5.471   3.755  25.436  0.00  0.00    -0.022 A 
ATOM      3  C   UNL     1      -4.774   3.844  25.005  0.00  0.00    -0.004 A 
ATOM      4  C   UNL     1      -4.316   3.184  24.820  0.00  0.00    +0.004 A 
ATOM      5  C   UNL     1      -4.555   2.434  25.067  0.00  0.00    +0.055 A 
ATOM      6  C   UNL     1      -5.253   2.344  25.498  0.00  0.00    +0.004 A 
ATOM      7  C   UNL     1      -5.711   3.005  25.683  0.00  0.00    -0.004 A 
ENDBRANCH   8   5
ENDBRANCH  11  10
TORSDOF 6
ENDMDL
MODEL 7
REMARK VINA RESULT:      -9.8      1.692      5.156
REMARK  Name = 
REMARK  6 active torsions:
REMARK  status: ('A' for Active; 'I' for Inactive)
REMARK    1  A    between atoms: C_5  and  C_8
REMARK    2  A    between atoms: N_10  and  C_11
REMARK    3  A    between atoms: C_15  and  N_19
REMARK    4  A    between atoms: C_23  and  O_24
REMARK    5  A    between atoms: O_24  and  C_25
REMARK    6  A    between atoms: C_29  and  N_31
REMARK                            x       y       z     vdW  Elec       q    Type
REMARK                         _______ _______ _______ _____ _____    ______ ____
ROOT
ATOM     11  C   UNL     1      -2.614   2.286  24.197  0.00  0.00    +0.155 C 
ATOM     12  C   UNL     1      -2.648   1.948  23.446  0.00  0.00    +0.166 C 
ATOM     13  O   UNL     1      -2.001   1.443  23.365  0.00  0.00    -0.350 OA
ATOM     14  C   UNL     1      -1.567   1.469  24.065  0.00  0.00    +0.169 C 
ATOM     15  C   UNL     1      -0.899   1.174  24.449  0.00  0.00    +0.170 C 
ATOM     16  C   UNL     1      -0.865   1.512  25.201  0.00  0.00    +0.169 C 
ATOM     17  O   UNL     1      -1.513   2.017  25.281  0.00  0.00    -0.350 OA
ATOM     18  C   UNL     1      -1.947   1.990  24.580  0.00  0.00    +0.167 C 
ENDROOT
BRANCH  15  19
ATOM     19  N   UNL     1      -0.360   0.634  24.136  0.00  0.00    -0.180 N 
ATOM     20  N   UNL     1       0.171   0.780  23.521  0.00  0.00    -0.040 NA
ATOM     21  N   UNL     1       0.603   0.089  23.388  0.00  0.00    -0.020 NA
ATOM     22  N   UNL     1       0.339  -0.483  23.919  0.00  0.00    -0.071 NA
ATOM     23  C   UNL     1      -0.256  -0.146  24.382  0.00  0.00    +0.343 A 
BRANCH  23  24
ATOM     24  O   UNL     1      -0.673  -0.524  24.985  0.00  0.00    -0.421 OA
BRANCH  24  25
ATOM     25  C   UNL     1      -0.980  -1.281  24.863  0.00  0.00    +0.150 A 
ATOM     26  C   UNL     1      -0.491  -1.941  24.935  0.00  0.00    +0.038 A 
ATOM     27  C   UNL     1      -0.797  -2.697  24.813  0.00  0.00    +0.004 A 
ATOM     28  C   UNL     1      -1.594  -2.793  24.619  0.00  0.00    +0.015 A 
ATOM     29  C   UNL     1      -2.084  -2.132  24.547  0.00  0.00    +0.051 A 
ATOM     30  C   UNL     1      -1.776  -1.376  24.670  0.00  0.00    +0.052 A 
BRANCH  29  31
ATOM     31  N   UNL     1      -2.880  -2.227  24.354  0.00  0.00    -0.303 N 
ATOM     32  C   UNL     1      -3.231  -2.973  24.408  0.00  0.00    +0.123 C 
ATOM     33  C   UNL     1      -4.027  -3.068  24.214  0.00  0.00    +0.164 C 
ATOM     34  O   UNL     1      -4.472  -2.419  23.967  0.00  0.00    -0.350 OA
ATOM     35  C   UNL     1      -4.121  -1.674  23.913  0.00  0.00    +0.164 C 
ATOM     36  C   UNL     1      -3.325  -1.579  24.107  0.00  0.00    +0.123 C 
ENDBRANCH  29  31
ENDBRANCH  24  25
ENDBRANCH  23  24
ENDBRANCH  15  19
BRANCH  11  10
ATOM      8  C   UNL     1      -3.958   2.640  24.535  0.00  0.00    +0.265 C 
ATOM      9  O   UNL     1      -4.221   1.912  24.246  0.00  0.00    -0.268 OA
ATOM     10  N   UNL     1      -3.154   2.826  24.511  0.00  0.00    -0.198 NA
BRANCH   8   5
ATOM      1  C   UNL     1      -6.117   4.797  25.789  0.00  0.00    +0.031 C 
ATOM      2  C   UNL     1      -5.577   4.257  25.475  0.00  0.00    -0.022 A 
ATOM      3  C   UNL     1      -4.933   4.527  25.035  0.00  0.00    -0.004 A 
ATOM      4  C   UNL     1      -4.393   3.987  24.722  0.00  0.00    +0.004 A 
ATOM      5  C   UNL     1      -4.497   3.179  24.849  0.00  0.00    +0.055 A 
ATOM      6  C   UNL     1      -5.141   2.909  25.288  0.00  0.00    +0.004 A 
ATOM      7  C   UNL     1      -5.681   3.449  25.602  0.00  0.00    -0.004 A 
ENDBRANCH   8   5
ENDBRANCH  11  10
TORSDOF 6
ENDMDL
MODEL 8
REMARK VINA RESULT:      -9.6      2.155      4.539
REMARK  Name = 
REMARK  6 active torsions:
REMARK  status: ('A' for Active; 'I' for Inactive)
REMARK    1  A    between atoms: C_5  and  C_8
REMARK    2  A    between atoms: N_10  and  C_11
REMARK    3  A    between atoms: C_15  and  N_19
REMARK    4  A    between atoms: C_23  and  O_24
REMARK    5  A    between atoms: O_24  and  C_25
REMARK    6  A    between atoms: C_29  and  N_31
REMARK                            x       y       z     vdW  Elec       q    Type
REMARK                         _______ _______ _______ _____ _____    ______ ____
ROOT
ATOM     11  C   UNL     1      -0.018  -0.575  24.171  0.00  0.00    +0.155 C 
ATOM     12  C   UNL     1      -0.396  -1.221  23.824  0.00  0.00    +0.166 C 
ATOM     13  O   UNL     1      -1.132  -1.308  24.184  0.00  0.00    -0.350 OA
ATOM     14  C   UNL     1      -1.210  -0.718  24.754  0.00  0.00    +0.169 C 
ATOM     15  C   UNL     1      -1.712  -0.406  25.329  0.00  0.00    +0.170 C 
ATOM     16  C   UNL     1      -1.334   0.240  25.677  0.00  0.00    +0.169 C 
ATOM     17  O   UNL     1      -0.598   0.327  25.316  0.00  0.00    -0.350 OA
ATOM     18  C   UNL     1      -0.520  -0.265  24.746  0.00  0.00    +0.167 C 
ENDROOT
BRANCH  15  19
ATOM     19  N   UNL     1      -2.463  -0.690  25.522  0.00  0.00    -0.180 N 
ATOM     20  N   UNL     1      -2.627  -1.325  26.024  0.00  0.00    -0.040 NA
ATOM     21  N   UNL     1      -3.446  -1.416  26.060  0.00  0.00    -0.020 NA
ATOM     22  N   UNL     1      -3.788  -0.839  25.581  0.00  0.00    -0.071 NA
ATOM     23  C   UNL     1      -3.180  -0.390  25.249  0.00  0.00    +0.343 A 
BRANCH  23  24
ATOM     24  O   UNL     1      -3.275   0.248  24.733  0.00  0.00    -0.421 OA
BRANCH  24  25
ATOM     25  C   UNL     1      -3.981   0.674  24.729  0.00  0.00    +0.150 A 
ATOM     26  C   UNL     1      -4.690   0.296  24.547  0.00  0.00    +0.038 A 
ATOM     27  C   UNL     1      -5.397   0.721  24.543  0.00  0.00    +0.004 A 
ATOM     28  C   UNL     1      -5.393   1.527  24.722  0.00  0.00    +0.015 A 
ATOM     29  C   UNL     1      -4.683   1.907  24.904  0.00  0.00    +0.051 A 
ATOM     30  C   UNL     1      -3.977   1.479  24.908  0.00  0.00    +0.052 A 
BRANCH  29  31
ATOM     31  N   UNL     1      -4.679   2.712  25.083  0.00  0.00    -0.303 N 
ATOM     32  C   UNL     1      -5.249   3.024  25.592  0.00  0.00    +0.123 C 
ATOM     33  C   UNL     1      -5.244   3.829  25.770  0.00  0.00    +0.164 C 
ATOM     34  O   UNL     1      -4.672   4.322  25.440  0.00  0.00    -0.350 OA
ATOM     35  C   UNL     1      -4.102   4.010  24.931  0.00  0.00    +0.164 C 
ATOM     36  C   UNL     1      -4.106   3.205  24.753  0.00  0.00    +0.123 C 
ENDBRANCH  29  31
ENDBRANCH  24  25
ENDBRANCH  23  24
ENDBRANCH  15  19
BRANCH  11  10
ATOM      8  C   UNL     1       0.930  -0.149  23.189  0.00  0.00    +0.265 C 
ATOM      9  O   UNL     1       0.376  -0.291  22.594  0.00  0.00    -0.268 OA
ATOM     10  N   UNL     1       0.733  -0.291  23.978  0.00  0.00    -0.198 NA
BRANCH   8   5
ATOM      1  C   UNL     1       3.929   0.988  22.414  0.00  0.00    +0.031 C 
ATOM      2  C   UNL     1       3.179   0.704  22.608  0.00  0.00    -0.022 A 
ATOM      3  C   UNL     1       2.710   1.113  23.150  0.00  0.00    -0.004 A 
ATOM      4  C   UNL     1       1.961   0.829  23.343  0.00  0.00    +0.004 A 
ATOM      5  C   UNL     1       1.679   0.135  22.996  0.00  0.00    +0.055 A 
ATOM      6  C   UNL     1       2.148  -0.274  22.454  0.00  0.00    +0.004 A 
ATOM      7  C   UNL     1       2.898   0.010  22.260  0.00  0.00    -0.004 A 
ENDBRANCH   8   5
ENDBRANCH  11  10
TORSDOF 6
ENDMDL
MODEL 9
REMARK VINA RESULT:      -9.0      1.448      5.120
REMARK  Name = 
REMARK  6 active torsions:
REMARK  status: ('A' for Active; 'I' for Inactive)
REMARK    1  A    between atoms: C_5  and  C_8
REMARK    2  A    between atoms: N_10  and  C_11
REMARK    3  A    between atoms: C_15  and  N_19
REMARK    4  A    between atoms: C_23  and  O_24
REMARK    5  A    between atoms: O_24  and  C_25
REMARK    6  A    between atoms: C_29  and  N_31
REMARK                            x       y       z     vdW  Elec       q    Type
REMARK                         _______ _______ _______ _____ _____    ______ ____
ROOT
ATOM     11  C   UNL     1      -0.713   1.537  25.359  0.00  0.00    +0.155 C 
ATOM     12  C   UNL     1      -0.955   1.207  26.075  0.00  0.00    +0.166 C 
ATOM     13  O   UNL     1      -0.950   0.387  25.992  0.00  0.00    -0.350 OA
ATOM     14  C   UNL     1      -0.705   0.210  25.225  0.00  0.00    +0.169 C 
ATOM     15  C   UNL     1      -0.550  -0.406  24.698  0.00  0.00    +0.170 C 
ATOM     16  C   UNL     1      -0.308  -0.076  23.982  0.00  0.00    +0.169 C 
ATOM     17  O   UNL     1      -0.313   0.744  24.066  0.00  0.00    -0.350 OA
ATOM     18  C   UNL     1      -0.559   0.921  24.834  0.00  0.00    +0.167 C 
ENDROOT
BRANCH  15  19
ATOM     19  N   UNL     1      -0.624  -1.212  24.860  0.00  0.00    -0.180 N 
ATOM     20  N   UNL     1      -0.151  -1.649  25.377  0.00  0.00    -0.040 NA
ATOM     21  N   UNL     1      -0.419  -2.429  25.370  0.00  0.00    -0.020 NA
ATOM     22  N   UNL     1      -1.056  -2.475  24.849  0.00  0.00    -0.071 NA
ATOM     23  C   UNL     1      -1.183  -1.723  24.535  0.00  0.00    +0.343 A 
BRANCH  23  24
ATOM     24  O   UNL     1      -1.768  -1.518  23.989  0.00  0.00    -0.421 OA
BRANCH  24  25
ATOM     25  C   UNL     1      -2.565  -1.607  24.185  0.00  0.00    +0.150 A 
ATOM     26  C   UNL     1      -2.906  -2.358  24.195  0.00  0.00    +0.038 A 
ATOM     27  C   UNL     1      -3.702  -2.447  24.390  0.00  0.00    +0.004 A 
ATOM     28  C   UNL     1      -4.157  -1.785  24.577  0.00  0.00    +0.015 A 
ATOM     29  C   UNL     1      -3.816  -1.033  24.568  0.00  0.00    +0.051 A 
ATOM     30  C   UNL     1      -3.020  -0.945  24.372  0.00  0.00    +0.052 A 
BRANCH  29  31
ATOM     31  N   UNL     1      -4.271  -0.371  24.755  0.00  0.00    -0.303 N 
ATOM     32  C   UNL     1      -4.596   0.089  24.151  0.00  0.00    +0.123 C 
ATOM     33  C   UNL     1      -5.051   0.751  24.338  0.00  0.00    +0.164 C 
ATOM     34  O   UNL     1      -5.181   0.953  25.126  0.00  0.00    -0.350 OA
ATOM     35  C   UNL     1      -4.857   0.493  25.730  0.00  0.00    +0.164 C 
ATOM     36  C   UNL     1      -4.402  -0.169  25.543  0.00  0.00    +0.123 C 
ENDBRANCH  29  31
ENDBRANCH  24  25
ENDBRANCH  23  24
ENDBRANCH  15  19
BRANCH  11  10
ATOM      8  C   UNL     1      -1.266   2.856  25.357  0.00  0.00    +0.265 C 
ATOM      9  O   UNL     1      -1.967   2.562  25.679  0.00  0.00    -0.268 OA
ATOM     10  N   UNL     1      -0.639   2.343  25.197  0.00  0.00    -0.198 NA
BRANCH   8   5
ATOM      1  C   UNL     1      -0.971   6.078  24.710  0.00  0.00    +0.031 C 
ATOM      2  C   UNL     1      -1.045   5.272  24.872  0.00  0.00    -0.022 A 
ATOM      3  C   UNL     1      -0.455   4.748  24.633  0.00  0.00    -0.004 A 
ATOM      4  C   UNL     1      -0.528   3.943  24.794  0.00  0.00    +0.004 A 
ATOM      5  C   UNL     1      -1.192   3.661  25.195  0.00  0.00    +0.055 A 
ATOM      6  C   UNL     1      -1.782   4.185  25.435  0.00  0.00    +0.004 A 
ATOM      7  C   UNL     1      -1.709   4.991  25.273  0.00  0.00    -0.004 A 
ENDBRANCH   8   5
ENDBRANCH  11  10
TORSDOF 6
ENDMDL
