MODEL 1
REMARK VINA RESULT:     -12.3      0.000      0.000
REMARK  Name = 
REMARK  6 active torsions:
REMARK  status: ('A' for Active; 'I' for Inactive)
REMARK    1  A    between atoms: O_2  and  C_3
REMARK    2  A    between atoms: C_9  and  C_10
REMARK    3  A    between atoms: C_10  and  C_11
REMARK    4  A    between atoms: C_16  and  C_17
REMARK    5  A    between atoms: C_17  and  C_18
REMARK    6  A    between atoms: C_21  and  C_23
REMARK                            x       y       z     vdW  Elec       q    Type
REMARK                         _______ _______ _______ _____ _____    ______ ____
ROOT
ATOM     11  C   UNL     1      -3.881   1.436  24.875  0.00  0.00    +0.026 C 
ATOM     12  C   UNL     1      -3.362   0.813  24.731  0.00  0.00    +0.094 C 
ATOM     13  N   UNL     1      -3.647   0.039  24.686  0.00  0.00    -0.276 N 
ATOM     14  C   UNL     1      -4.452  -0.109  24.786  0.00  0.00    +0.094 C 
ATOM     15  C   UNL     1      -4.972   0.514  24.930  0.00  0.00    +0.022 C 
ATOM     16  C   UNL     1      -4.687   1.287  24.975  0.00  0.00    +0.015 C 
ATOM     21  C   UNL     1      -3.127  -0.585  24.542  0.00  0.00    +0.249 C 
ATOM     22  O   UNL     1      -2.321  -0.435  24.442  0.00  0.00    -0.270 OA
ENDROOT
BRANCH  21  23
ATOM     23  C   UNL     1      -3.412  -1.357  24.497  0.00  0.00    +0.056 A 
ATOM     24  C   UNL     1      -3.806  -1.612  23.819  0.00  0.00    +0.005 A 
ATOM     25  C   UNL     1      -4.092  -2.385  23.774  0.00  0.00    +0.002 A 
ATOM     26  C   UNL     1      -3.982  -2.902  24.407  0.00  0.00    +0.030 A 
ATOM     27  C   UNL     1      -3.588  -2.647  25.085  0.00  0.00    +0.140 A 
ATOM     28  F   UNL     1      -3.479  -3.165  25.718  0.00  0.00    -0.204 F 
ATOM     29  C   UNL     1      -3.303  -1.875  25.130  0.00  0.00    +0.034 A 
ENDBRANCH  21  23
BRANCH  11  10
ATOM     10  C   UNL     1      -3.597   2.209  24.920  0.00  0.00    +0.047 C 
BRANCH  10   9
ATOM      3  C   UNL     1      -1.287   4.082  25.015  0.00  0.00    +0.138 A 
ATOM      4  C   UNL     1      -1.343   3.826  24.232  0.00  0.00    +0.033 A 
ATOM      5  C   UNL     1      -1.934   3.293  24.012  0.00  0.00    -0.016 A 
ATOM      6  C   UNL     1      -2.470   3.017  24.576  0.00  0.00    +0.009 A 
ATOM      7  C   UNL     1      -2.415   3.273  25.358  0.00  0.00    +0.004 A 
ATOM      8  C   UNL     1      -1.824   3.806  25.579  0.00  0.00    +0.037 A 
ATOM      9  C   UNL     1      -3.061   2.485  24.357  0.00  0.00    +0.053 C 
ATOM     30  N   UNL     1      -3.116   2.229  23.575  0.00  0.00    -0.274 NA
ATOM     31  C   UNL     1      -2.579   2.506  23.011  0.00  0.00    +0.130 C 
ATOM     32  C   UNL     1      -1.989   3.038  23.231  0.00  0.00    +0.053 C 
BRANCH   3   2
ATOM      1  C   UNL     1      -0.729   5.396  24.975  0.00  0.00    +0.252 C 
ATOM      2  O   UNL     1      -0.696   4.614  25.234  0.00  0.00    -0.471 OA
ENDBRANCH   3   2
ENDBRANCH  10   9
ENDBRANCH  11  10
BRANCH  16  17
ATOM     17  C   UNL     1      -5.207   1.911  25.119  0.00  0.00    +0.114 C 
BRANCH  17  18
ATOM     18  C   UNL     1      -5.981   1.755  25.356  0.00  0.00    +0.365 C 
ATOM     19  O   UNL     1      -6.163   1.694  26.159  0.00  0.00    -0.246 OA
ATOM     20  O   UNL     1      -6.576   1.661  24.790  0.00  0.00    -0.246 OA
ENDBRANCH  17  18
ENDBRANCH  16  17
TORSDOF 6
ENDMDL
MODEL 2
REMARK VINA RESULT:     -11.7      2.011      3.419
REMARK  Name = 
REMARK  6 active torsions:
REMARK  status: ('A' for Active; 'I' for Inactive)
REMARK    1  A    between atoms: O_2  and  C_3
REMARK    2  A    between atoms: C_9  and  C_10
REMARK    3  A    between atoms: C_10  and  C_11
REMARK    4  A    between atoms: C_16  and  C_17
REMARK    5  A    between atoms: C_17  and  C_18
REMARK    6  A    between atoms: C_21  and  C_23
REMARK                            x       y       z     vdW  Elec       q    Type
REMARK                         _______ _______ _______ _____ _____    ______ ____
ROOT
ATOM     11  C   UNL     1      -0.959   0.846  24.234  0.00  0.00    +0.026 C 
ATOM     12  C   UNL     1      -1.726   0.719  24.508  0.00  0.00    +0.094 C 
ATOM     13  N   UNL     1      -2.050  -0.041  24.489  0.00  0.00    -0.276 N 
ATOM     14  C   UNL     1      -1.606  -0.671  24.196  0.00  0.00    +0.094 C 
ATOM     15  C   UNL     1      -0.839  -0.543  23.922  0.00  0.00    +0.022 C 
ATOM     16  C   UNL     1      -0.515   0.215  23.941  0.00  0.00    +0.015 C 
ATOM     21  C   UNL     1      -2.817  -0.169  24.764  0.00  0.00    +0.249 C 
ATOM     22  O   UNL     1      -3.261   0.463  25.056  0.00  0.00    -0.270 OA
ENDROOT
BRANCH  21  23
ATOM     23  C   UNL     1      -3.141  -0.927  24.745  0.00  0.00    +0.056 A 
ATOM     24  C   UNL     1      -2.985  -1.456  25.358  0.00  0.00    +0.005 A 
ATOM     25  C   UNL     1      -3.308  -2.216  25.340  0.00  0.00    +0.002 A 
ATOM     26  C   UNL     1      -3.787  -2.444  24.708  0.00  0.00    +0.030 A 
ATOM     27  C   UNL     1      -3.943  -1.915  24.095  0.00  0.00    +0.140 A 
ATOM     28  F   UNL     1      -4.422  -2.144  23.464  0.00  0.00    -0.204 F 
ATOM     29  C   UNL     1      -3.620  -1.157  24.114  0.00  0.00    +0.034 A 
ENDBRANCH  21  23
BRANCH  11  10
ATOM     10  C   UNL     1      -0.635   1.605  24.252  0.00  0.00    +0.047 C 
BRANCH  10   9
ATOM      3  C   UNL     1      -0.980   4.452  25.044  0.00  0.00    +0.138 A 
ATOM      4  C   UNL     1      -0.784   4.044  25.734  0.00  0.00    +0.033 A 
ATOM      5  C   UNL     1      -0.649   3.230  25.709  0.00  0.00    -0.016 A 
ATOM      6  C   UNL     1      -0.710   2.824  24.992  0.00  0.00    +0.009 A 
ATOM      7  C   UNL     1      -0.906   3.232  24.303  0.00  0.00    +0.004 A 
ATOM      8  C   UNL     1      -1.041   4.045  24.327  0.00  0.00    +0.037 A 
ATOM      9  C   UNL     1      -0.574   2.011  24.967  0.00  0.00    +0.053 C 
ATOM     30  N   UNL     1      -0.378   1.604  25.657  0.00  0.00    -0.274 NA
ATOM     31  C   UNL     1      -0.317   2.010  26.373  0.00  0.00    +0.130 C 
ATOM     32  C   UNL     1      -0.452   2.823  26.398  0.00  0.00    +0.053 C 
BRANCH   3   2
ATOM      1  C   UNL     1      -1.887   5.554  25.074  0.00  0.00    +0.252 C 
ATOM      2  O   UNL     1      -1.116   5.265  25.069  0.00  0.00    -0.471 OA
ENDBRANCH   3   2
ENDBRANCH  10   9
ENDBRANCH  11  10
BRANCH  16  17
ATOM     17  C   UNL     1       0.252   0.343  23.666  0.00  0.00    +0.114 C 
BRANCH  17  18
ATOM     18  C   UNL     1       0.640  -0.245  23.237  0.00  0.00    +0.365 C 
ATOM     19  O   UNL     1       0.610  -0.243  22.413  0.00  0.00    -0.246 OA
ATOM     20  O   UNL     1       1.059  -0.836  23.633  0.00  0.00    -0.246 OA
ENDBRANCH  17  18
ENDBRANCH  16  17
TORSDOF 6
ENDMDL
MODEL 3
REMARK VINA RESULT:     -11.6      1.824      5.038
REMARK  Name = 
REMARK  6 active torsions:
REMARK  status: ('A' for Active; 'I' for Inactive)
REMARK    1  A    between atoms: O_2  and  C_3
REMARK    2  A    between atoms: C_9  and  C_10
REMARK    3  A    between atoms: C_10  and  C_11
REMARK    4  A    between atoms: C_16  and  C_17
REMARK    5  A    between atoms: C_17  and  C_18
REMARK    6  A    between atoms: C_21  and  C_23
REMARK                            x       y       z     vdW  Elec       q    Type
REMARK                         _______ _______ _______ _____ _____    ______ ____
ROOT
ATOM     11  C   UNL     1      -3.723   0.993  24.822  0.00  0.00    +0.026 C 
ATOM     12  C   UNL     1      -2.904   1.064  24.764  0.00  0.00    +0.094 C 
ATOM     13  N   UNL     1      -2.546   1.802  24.859  0.00  0.00    -0.276 N 
ATOM     14  C   UNL     1      -3.009   2.468  25.012  0.00  0.00    +0.094 C 
ATOM     15  C   UNL     1      -3.828   2.396  25.070  0.00  0.00    +0.022 C 
ATOM     16  C   UNL     1      -4.186   1.659  24.975  0.00  0.00    +0.015 C 
ATOM     21  C   UNL     1      -1.726   1.874  24.801  0.00  0.00    +0.249 C 
ATOM     22  O   UNL     1      -1.264   1.207  24.648  0.00  0.00    -0.270 OA
ENDROOT
BRANCH  21  23
ATOM     23  C   UNL     1      -1.369   2.611  24.896  0.00  0.00    +0.056 A 
ATOM     24  C   UNL     1      -1.298   2.941  25.648  0.00  0.00    +0.005 A 
ATOM     25  C   UNL     1      -0.941   3.679  25.744  0.00  0.00    +0.002 A 
ATOM     26  C   UNL     1      -0.655   4.086  25.086  0.00  0.00    +0.030 A 
ATOM     27  C   UNL     1      -0.725   3.756  24.333  0.00  0.00    +0.140 A 
ATOM     28  F   UNL     1      -0.438   4.164  23.676  0.00  0.00    -0.204 F 
ATOM     29  C   UNL     1      -1.082   3.019  24.238  0.00  0.00    +0.034 A 
ENDBRANCH  21  23
BRANCH  11  10
ATOM     10  C   UNL     1      -4.081   0.256  24.727  0.00  0.00    +0.047 C 
BRANCH  10   9
ATOM      3  C   UNL     1      -3.832  -2.642  24.099  0.00  0.00    +0.138 A 
ATOM      4  C   UNL     1      -3.537  -2.547  24.865  0.00  0.00    +0.033 A 
ATOM      5  C   UNL     1      -3.526  -1.799  25.213  0.00  0.00    -0.016 A 
ATOM      6  C   UNL     1      -3.809  -1.145  24.796  0.00  0.00    +0.009 A 
ATOM      7  C   UNL     1      -4.103  -1.240  24.031  0.00  0.00    +0.004 A 
ATOM      8  C   UNL     1      -4.115  -1.988  23.682  0.00  0.00    +0.037 A 
ATOM      9  C   UNL     1      -3.798  -0.398  25.144  0.00  0.00    +0.053 C 
ATOM     30  N   UNL     1      -3.504  -0.303  25.908  0.00  0.00    -0.274 NA
ATOM     31  C   UNL     1      -3.220  -0.957  26.326  0.00  0.00    +0.130 C 
ATOM     32  C   UNL     1      -3.232  -1.704  25.978  0.00  0.00    +0.053 C 
BRANCH   3   2
ATOM      1  C   UNL     1      -4.504  -3.636  23.325  0.00  0.00    +0.252 C 
ATOM      2  O   UNL     1      -3.843  -3.389  23.752  0.00  0.00    -0.471 OA
ENDBRANCH   3   2
ENDBRANCH  10   9
ENDBRANCH  11  10
BRANCH  16  17
ATOM     17  C   UNL     1      -5.005   1.588  25.033  0.00  0.00    +0.114 C 
BRANCH  17  18
ATOM     18  C   UNL     1      -5.464   2.247  25.220  0.00  0.00    +0.365 C 
ATOM     19  O   UNL     1      -5.654   2.409  26.006  0.00  0.00    -0.246 OA
ATOM     20  O   UNL     1      -5.734   2.745  24.619  0.00  0.00    -0.246 OA
ENDBRANCH  17  18
ENDBRANCH  16  17
TORSDOF 6
ENDMDL
MODEL 4
REMARK VINA RESULT:     -11.6      1.718      2.862
REMARK  Name = 
REMARK  6 active torsions:
REMARK  status: ('A' for Active; 'I' for Inactive)
REMARK    1  A    between atoms: O_2  and  C_3
REMARK    2  A    between atoms: C_9  and  C_10
REMARK    3  A    between atoms: C_10  and  C_11
REMARK    4  A    between atoms: C_16  and  C_17
REMARK    5  A    between atoms: C_17  and  C_18
REMARK    6  A    between atoms: C_21  and  C_23
REMARK                            x       y       z     vdW  Elec       q    Type
REMARK                         _______ _______ _______ _____ _____    ______ ____
ROOT
ATOM     11  C   UNL     1      -2.431   1.070  24.557  0.00  0.00    +0.026 C 
ATOM     12  C   UNL     1      -3.123   0.630  24.636  0.00  0.00    +0.094 C 
ATOM     13  N   UNL     1      -3.100  -0.192  24.562  0.00  0.00    -0.276 N 
ATOM     14  C   UNL     1      -2.385  -0.572  24.408  0.00  0.00    +0.094 C 
ATOM     15  C   UNL     1      -1.692  -0.132  24.329  0.00  0.00    +0.022 C 
ATOM     16  C   UNL     1      -1.714   0.689  24.403  0.00  0.00    +0.015 C 
ATOM     21  C   UNL     1      -3.793  -0.632  24.641  0.00  0.00    +0.249 C 
ATOM     22  O   UNL     1      -4.509  -0.251  24.795  0.00  0.00    -0.270 OA
ENDROOT
BRANCH  21  23
ATOM     23  C   UNL     1      -3.771  -1.453  24.567  0.00  0.00    +0.056 A 
ATOM     24  C   UNL     1      -3.971  -1.808  23.849  0.00  0.00    +0.005 A 
ATOM     25  C   UNL     1      -3.949  -2.630  23.774  0.00  0.00    +0.002 A 
ATOM     26  C   UNL     1      -3.725  -3.096  24.417  0.00  0.00    +0.030 A 
ATOM     27  C   UNL     1      -3.525  -2.741  25.135  0.00  0.00    +0.140 A 
ATOM     28  F   UNL     1      -3.301  -3.208  25.777  0.00  0.00    -0.204 F 
ATOM     29  C   UNL     1      -3.547  -1.920  25.209  0.00  0.00    +0.034 A 
ENDBRANCH  21  23
BRANCH  11  10
ATOM     10  C   UNL     1      -2.452   1.891  24.631  0.00  0.00    +0.047 C 
BRANCH  10   9
ATOM      3  C   UNL     1      -4.531   3.934  25.231  0.00  0.00    +0.138 A 
ATOM      4  C   UNL     1      -4.528   3.844  24.411  0.00  0.00    +0.033 A 
ATOM      5  C   UNL     1      -4.008   3.311  24.055  0.00  0.00    -0.016 A 
ATOM      6  C   UNL     1      -3.490   2.867  24.521  0.00  0.00    +0.009 A 
ATOM      7  C   UNL     1      -3.493   2.957  25.341  0.00  0.00    +0.004 A 
ATOM      8  C   UNL     1      -4.013   3.490  25.697  0.00  0.00    +0.037 A 
ATOM      9  C   UNL     1      -2.970   2.335  24.166  0.00  0.00    +0.053 C 
ATOM     30  N   UNL     1      -2.967   2.245  23.347  0.00  0.00    -0.274 NA
ATOM     31  C   UNL     1      -3.485   2.689  22.881  0.00  0.00    +0.130 C 
ATOM     32  C   UNL     1      -4.005   3.221  23.236  0.00  0.00    +0.053 C 
BRANCH   3   2
ATOM      1  C   UNL     1      -5.838   4.255  25.709  0.00  0.00    +0.252 C 
ATOM      2  O   UNL     1      -5.051   4.466  25.586  0.00  0.00    -0.471 OA
ENDBRANCH   3   2
ENDBRANCH  10   9
ENDBRANCH  11  10
BRANCH  16  17
ATOM     17  C   UNL     1      -1.021   1.130  24.324  0.00  0.00    +0.114 C 
BRANCH  17  18
ATOM     18  C   UNL     1      -0.292   0.748  24.292  0.00  0.00    +0.365 C 
ATOM     19  O   UNL     1       0.115   0.575  24.990  0.00  0.00    -0.246 OA
ATOM     20  O   UNL     1       0.034   0.537  23.563  0.00  0.00    -0.246 OA
ENDBRANCH  17  18
ENDBRANCH  16  17
TORSDOF 6
ENDMDL
MODEL 5
REMARK VINA RESULT:     -10.7      2.525      3.941
REMARK  Name = 
REMARK  6 active torsions:
REMARK  status: ('A' for Active; 'I' for Inactive)
REMARK    1  A    between atoms: O_2  and  C_3
REMARK    2  A    between atoms: C_9  and  C_10
REMARK    3  A    between atoms: C_10  and  C_11
REMARK    4  A    between atoms: C_16  and  C_17
REMARK    5  A    between atoms: C_17  and  C_18
REMARK    6  A    between atoms: C_21  and  C_23
REMARK                            x       y       z     vdW  Elec       q    Type
REMARK                         _______ _______ _______ _____ _____    ______ ____
ROOT
ATOM     11  C   UNL     1      -2.642   0.075  24.737  0.00  0.00    +0.026 C 
ATOM     12  C   UNL     1      -2.965   0.825  24.628  0.00  0.00    +0.094 C 
ATOM     13  N   UNL     1      -3.747   0.974  24.849  0.00  0.00    -0.276 N 
ATOM     14  C   UNL     1      -4.203   0.371  25.179  0.00  0.00    +0.094 C 
ATOM     15  C   UNL     1      -3.880  -0.379  25.287  0.00  0.00    +0.022 C 
ATOM     16  C   UNL     1      -3.100  -0.528  25.066  0.00  0.00    +0.015 C 
ATOM     21  C   UNL     1      -4.070   1.725  24.741  0.00  0.00    +0.249 C 
ATOM     22  O   UNL     1      -3.613   2.327  24.412  0.00  0.00    -0.270 OA
ENDROOT
BRANCH  21  23
ATOM     23  C   UNL     1      -4.851   1.873  24.962  0.00  0.00    +0.056 A 
ATOM     24  C   UNL     1      -5.469   1.654  24.462  0.00  0.00    +0.005 A 
ATOM     25  C   UNL     1      -6.251   1.803  24.683  0.00  0.00    +0.002 A 
ATOM     26  C   UNL     1      -6.413   2.170  25.403  0.00  0.00    +0.030 A 
ATOM     27  C   UNL     1      -5.794   2.389  25.903  0.00  0.00    +0.140 A 
ATOM     28  F   UNL     1      -5.957   2.756  26.624  0.00  0.00    -0.204 F 
ATOM     29  C   UNL     1      -5.014   2.240  25.683  0.00  0.00    +0.034 A 
ENDBRANCH  21  23
BRANCH  11  10
ATOM     10  C   UNL     1      -1.861  -0.074  24.516  0.00  0.00    +0.047 C 
BRANCH  10   9
ATOM      3  C   UNL     1       0.819   0.581  23.402  0.00  0.00    +0.138 A 
ATOM      4  C   UNL     1       0.723   1.060  24.067  0.00  0.00    +0.033 A 
ATOM      5  C   UNL     1       0.029   1.017  24.512  0.00  0.00    -0.016 A 
ATOM      6  C   UNL     1      -0.570   0.493  24.292  0.00  0.00    +0.009 A 
ATOM      7  C   UNL     1      -0.474   0.013  23.627  0.00  0.00    +0.004 A 
ATOM      8  C   UNL     1       0.219   0.057  23.182  0.00  0.00    +0.037 A 
ATOM      9  C   UNL     1      -1.263   0.449  24.736  0.00  0.00    +0.053 C 
ATOM     30  N   UNL     1      -1.358   0.928  25.400  0.00  0.00    -0.274 NA
ATOM     31  C   UNL     1      -0.759   1.453  25.620  0.00  0.00    +0.130 C 
ATOM     32  C   UNL     1      -0.066   1.496  25.176  0.00  0.00    +0.053 C 
BRANCH   3   2
ATOM      1  C   UNL     1       1.801  -0.047  22.578  0.00  0.00    +0.252 C 
ATOM      2  O   UNL     1       1.512   0.625  22.958  0.00  0.00    -0.471 OA
ENDBRANCH   3   2
ENDBRANCH  10   9
ENDBRANCH  11  10
BRANCH  16  17
ATOM     17  C   UNL     1      -2.776  -1.279  25.175  0.00  0.00    +0.114 C 
BRANCH  17  18
ATOM     18  C   UNL     1      -3.270  -1.936  25.234  0.00  0.00    +0.365 C 
ATOM     19  O   UNL     1      -3.479  -2.359  24.556  0.00  0.00    -0.246 OA
ATOM     20  O   UNL     1      -3.557  -2.172  25.971  0.00  0.00    -0.246 OA
ENDBRANCH  17  18
ENDBRANCH  16  17
TORSDOF 6
ENDMDL
MODEL 6
REMARK VINA RESULT:     -10.4      2.314      4.150
REMARK  Name = 
REMARK  6 active torsions:
REMARK  status: ('A' for Active; 'I' for Inactive)
REMARK    1  A    between atoms: O_2  and  C_3
REMARK    2  A    between atoms: C_9  and  C_10
REMARK    3  A    between atoms: C_10  and  C_11
REMARK    4  A    between atoms: C_16  and  C_17
REMARK    5  A    between atoms: C_17  and  C_18
REMARK    6  A    between atoms: C_21  and  C_23
REMARK                            x       y       z     vdW  Elec       q    Type
REMARK                         _______ _______ _______ _____ _____    ______ ____
ROOT
ATOM     11  C   UNL     1      -1.985   2.104  24.914  0.00  0.00    +0.026 C 
ATOM     12  C   UNL     1      -2.642   1.638  24.739  0.00  0.00    +0.094 C 
ATOM     13  N   UNL     1      -3.401   1.910  24.918  0.00  0.00    -0.276 N 
ATOM     14  C   UNL     1      -3.500   2.648  25.273  0.00  0.00    +0.094 C 
ATOM     15  C   UNL     1      -2.843   3.114  25.448  0.00  0.00    +0.022 C 
ATOM     16  C   UNL     1      -2.085   2.842  25.269  0.00  0.00    +0.015 C 
ATOM     21  C   UNL     1      -4.058   1.444  24.743  0.00  0.00    +0.249 C 
ATOM     22  O   UNL     1      -3.957   0.705  24.389  0.00  0.00    -0.270 OA
ENDROOT
BRANCH  21  23
ATOM     23  C   UNL     1      -4.816   1.716  24.922  0.00  0.00    +0.056 A 
ATOM     24  C   UNL     1      -5.207   2.219  24.399  0.00  0.00    +0.005 A 
ATOM     25  C   UNL     1      -5.966   2.491  24.578  0.00  0.00    +0.002 A 
ATOM     26  C   UNL     1      -6.331   2.260  25.280  0.00  0.00    +0.030 A 
ATOM     27  C   UNL     1      -5.939   1.757  25.804  0.00  0.00    +0.140 A 
ATOM     28  F   UNL     1      -6.306   1.527  26.506  0.00  0.00    -0.204 F 
ATOM     29  C   UNL     1      -5.182   1.485  25.625  0.00  0.00    +0.034 A 
ENDBRANCH  21  23
BRANCH  11  10
ATOM     10  C   UNL     1      -1.227   1.832  24.735  0.00  0.00    +0.047 C 
BRANCH  10   9
ATOM      3  C   UNL     1       0.498  -0.150  23.339  0.00  0.00    +0.138 A 
ATOM      4  C   UNL     1       0.193  -0.537  24.001  0.00  0.00    +0.033 A 
ATOM      5  C   UNL     1      -0.314  -0.139  24.516  0.00  0.00    -0.016 A 
ATOM      6  C   UNL     1      -0.517   0.648  24.369  0.00  0.00    +0.009 A 
ATOM      7  C   UNL     1      -0.212   1.035  23.707  0.00  0.00    +0.004 A 
ATOM      8  C   UNL     1       0.295   0.637  23.192  0.00  0.00    +0.037 A 
ATOM      9  C   UNL     1      -1.024   1.046  24.883  0.00  0.00    +0.053 C 
ATOM     30  N   UNL     1      -1.328   0.659  25.544  0.00  0.00    -0.274 NA
ATOM     31  C   UNL     1      -1.125  -0.128  25.691  0.00  0.00    +0.130 C 
ATOM     32  C   UNL     1      -0.618  -0.526  25.177  0.00  0.00    +0.053 C 
BRANCH   3   2
ATOM      1  C   UNL     1       1.635  -0.147  22.475  0.00  0.00    +0.252 C 
ATOM      2  O   UNL     1       1.005  -0.547  22.825  0.00  0.00    -0.471 OA
ENDBRANCH   3   2
ENDBRANCH  10   9
ENDBRANCH  11  10
BRANCH  16  17
ATOM     17  C   UNL     1      -1.428   3.309  25.444  0.00  0.00    +0.114 C 
BRANCH  17  18
ATOM     18  C   UNL     1      -1.486   4.131  25.415  0.00  0.00    +0.365 C 
ATOM     19  O   UNL     1      -1.897   4.537  26.003  0.00  0.00    -0.246 OA
ATOM     20  O   UNL     1      -1.131   4.548  24.796  0.00  0.00    -0.246 OA
ENDBRANCH  17  18
ENDBRANCH  16  17
TORSDOF 6
ENDMDL
MODEL 7
REMARK VINA RESULT:     -10.4      2.240      5.401
REMARK  Name = 
REMARK  6 active torsions:
REMARK  status: ('A' for Active; 'I' for Inactive)
REMARK    1  A    between atoms: O_2  and  C_3
REMARK    2  A    between atoms: C_9  and  C_10
REMARK    3  A    between atoms: C_10  and  C_11
REMARK    4  A    between atoms: C_16  and  C_17
REMARK    5  A    between atoms: C_17  and  C_18
REMARK    6  A    between atoms: C_21  and  C_23
REMARK                            x       y       z     vdW  Elec       q    Type
REMARK                         _______ _______ _______ _____ _____    ______ ____
ROOT
ATOM     11  C   UNL     1      -2.560   1.580  23.859  0.00  0.00    +0.026 C 
ATOM     12  C   UNL     1      -2.315   1.955  24.551  0.00  0.00    +0.094 C 
ATOM     13  N   UNL     1      -2.132   2.760  24.541  0.00  0.00    -0.276 N 
ATOM     14  C   UNL     1      -2.194   3.188  23.839  0.00  0.00    +0.094 C 
ATOM     15  C   UNL     1      -2.439   2.813  23.147  0.00  0.00    +0.022 C 
ATOM     16  C   UNL     1      -2.622   2.009  23.156  0.00  0.00    +0.015 C 
ATOM     21  C   UNL     1      -1.886   3.136  25.234  0.00  0.00    +0.249 C 
ATOM     22  O   UNL     1      -1.825   2.706  25.936  0.00  0.00    -0.270 OA
ENDROOT
BRANCH  21  23
ATOM     23  C   UNL     1      -1.703   3.939  25.224  0.00  0.00    +0.056 A 
ATOM     24  C   UNL     1      -2.271   4.495  25.446  0.00  0.00    +0.005 A 
ATOM     25  C   UNL     1      -2.088   5.300  25.436  0.00  0.00    +0.002 A 
ATOM     26  C   UNL     1      -1.336   5.548  25.204  0.00  0.00    +0.030 A 
ATOM     27  C   UNL     1      -0.768   4.993  24.981  0.00  0.00    +0.140 A 
ATOM     28  F   UNL     1      -0.017   5.242  24.749  0.00  0.00    -0.204 F 
ATOM     29  C   UNL     1      -0.952   4.189  24.991  0.00  0.00    +0.034 A 
ENDBRANCH  21  23
BRANCH  11  10
ATOM     10  C   UNL     1      -2.744   0.776  23.868  0.00  0.00    +0.047 C 
BRANCH  10   9
ATOM      3  C   UNL     1      -3.346  -1.872  25.086  0.00  0.00    +0.138 A 
ATOM      4  C   UNL     1      -3.947  -1.363  25.333  0.00  0.00    +0.033 A 
ATOM      5  C   UNL     1      -3.947  -0.574  25.091  0.00  0.00    -0.016 A 
ATOM      6  C   UNL     1      -3.345  -0.293  24.600  0.00  0.00    +0.009 A 
ATOM      7  C   UNL     1      -2.744  -0.801  24.353  0.00  0.00    +0.004 A 
ATOM      8  C   UNL     1      -2.744  -1.590  24.595  0.00  0.00    +0.037 A 
ATOM      9  C   UNL     1      -3.345   0.495  24.358  0.00  0.00    +0.053 C 
ATOM     30  N   UNL     1      -3.946   1.002  24.605  0.00  0.00    -0.274 NA
ATOM     31  C   UNL     1      -4.548   0.721  25.096  0.00  0.00    +0.130 C 
ATOM     32  C   UNL     1      -4.548  -0.067  25.338  0.00  0.00    +0.053 C 
BRANCH   3   2
ATOM      1  C   UNL     1      -3.287  -3.263  24.769  0.00  0.00    +0.252 C 
ATOM      2  O   UNL     1      -3.346  -2.660  25.328  0.00  0.00    -0.471 OA
ENDBRANCH   3   2
ENDBRANCH  10   9
ENDBRANCH  11  10
BRANCH  16  17
ATOM     17  C   UNL     1      -2.867   1.633  22.464  0.00  0.00    +0.114 C 
BRANCH  17  18
ATOM     18  C   UNL     1      -2.743   1.994  21.733  0.00  0.00    +0.365 C 
ATOM     19  O   UNL     1      -2.115   1.754  21.255  0.00  0.00    -0.246 OA
ATOM     20  O   UNL     1      -3.248   2.596  21.479  0.00  0.00    -0.246 OA
ENDBRANCH  17  18
ENDBRANCH  16  17
TORSDOF 6
ENDMDL
