MODEL 1
REMARK VINA RESULT:      -8.6      0.000      0.000
REMARK  Name = 
REMARK  6 active torsions:
REMARK  status: ('A' for Active; 'I' for Inactive)
REMARK    1  A    between atoms: N_4  and  C_5
REMARK    2  A    between atoms: C_8  and  S_11
REMARK    3  A    between atoms: S_11  and  N_14
REMARK    4  A    between atoms: N_14  and  C_15
REMARK    5  A    between atoms: C_19  and  N_23
REMARK    6  A    between atoms: C_26  and  C_30
REMARK                            x       y       z     vdW  Elec       q    Type
REMARK                         _______ _______ _______ _____ _____    ______ ____
ROOT
ATOM     15  C   UNL     1      -2.011   0.260  24.320  0.00  0.00    +0.157 C 
ATOM     16  C   UNL     1      -1.712   0.991  24.558  0.00  0.00    +0.164 C 
ATOM     17  O   UNL     1      -0.889   0.957  24.509  0.00  0.00    -0.350 OA
ATOM     18  C   UNL     1      -0.680   0.206  24.241  0.00  0.00    +0.166 C 
ATOM     19  C   UNL     1      -0.043  -0.280  24.045  0.00  0.00    +0.154 C 
ATOM     20  C   UNL     1      -0.342  -1.010  23.807  0.00  0.00    +0.166 C 
ATOM     21  O   UNL     1      -1.164  -0.976  23.855  0.00  0.00    -0.350 OA
ATOM     22  C   UNL     1      -1.374  -0.224  24.124  0.00  0.00    +0.164 C 
ENDROOT
BRANCH  19  23
ATOM     23  N   UNL     1       0.755  -0.071  24.081  0.00  0.00    -0.200 NA
ATOM     24  C   UNL     1       1.217  -0.086  23.398  0.00  0.00    +0.237 A 
ATOM     25  N   UNL     1       2.014   0.123  23.434  0.00  0.00    -0.209 NA
ATOM     26  C   UNL     1       2.476   0.107  22.751  0.00  0.00    +0.120 A 
ATOM     27  C   UNL     1       2.141  -0.117  22.031  0.00  0.00    +0.043 A 
ATOM     28  C   UNL     1       1.343  -0.326  21.995  0.00  0.00    +0.104 A 
ATOM     29  N   UNL     1       0.882  -0.310  22.679  0.00  0.00    -0.211 NA
BRANCH  26  30
ATOM     30  C   UNL     1       3.273   0.316  22.787  0.00  0.00    +0.163 A 
ATOM     31  C   UNL     1       3.592   1.052  22.590  0.00  0.00    +0.042 A 
ATOM     32  C   UNL     1       4.407   1.016  22.707  0.00  0.00    +0.044 A 
ATOM     33  C   UNL     1       4.593   0.259  22.977  0.00  0.00    +0.180 A 
ATOM     34  O   UNL     1       3.892  -0.173  23.026  0.00  0.00    -0.449 OA
ENDBRANCH  26  30
ENDBRANCH  19  23
BRANCH  15  14
ATOM     14  N   UNL     1      -2.809   0.052  24.283  0.00  0.00    -0.074 NA
BRANCH  14  11
ATOM     11  S   UNL     1      -3.390   0.613  24.449  0.00  0.00    +0.077 S 
ATOM     12  O   UNL     1      -3.346   0.423  25.251  0.00  0.00    -0.152 OA
ATOM     13  O   UNL     1      -3.435   0.803  23.647  0.00  0.00    -0.152 OA
BRANCH  11   8
ATOM      5  C   UNL     1      -5.136   2.296  24.944  0.00  0.00    +0.073 A 
ATOM      6  C   UNL     1      -4.574   2.445  24.359  0.00  0.00    +0.018 A 
ATOM      7  C   UNL     1      -3.992   1.884  24.194  0.00  0.00    +0.021 A 
ATOM      8  C   UNL     1      -3.972   1.174  24.614  0.00  0.00    +0.124 A 
ATOM      9  C   UNL     1      -4.535   1.025  25.199  0.00  0.00    +0.021 A 
ATOM     10  C   UNL     1      -5.116   1.587  25.364  0.00  0.00    +0.018 A 
BRANCH   5   4
ATOM      1  C   UNL     1      -6.108   4.100  25.695  0.00  0.00    +0.097 C 
ATOM      2  C   UNL     1      -5.526   3.539  25.530  0.00  0.00    +0.246 C 
ATOM      3  O   UNL     1      -4.752   3.662  25.786  0.00  0.00    -0.273 OA
ATOM      4  N   UNL     1      -5.718   2.857  25.109  0.00  0.00    -0.179 NA
ENDBRANCH   5   4
ENDBRANCH  11   8
ENDBRANCH  14  11
ENDBRANCH  15  14
TORSDOF 6
ENDMDL
MODEL 2
REMARK VINA RESULT:      -7.7      1.499      7.143
REMARK  Name = 
REMARK  6 active torsions:
REMARK  status: ('A' for Active; 'I' for Inactive)
REMARK    1  A    between atoms: N_4  and  C_5
REMARK    2  A    between atoms: C_8  and  S_11
REMARK    3  A    between atoms: S_11  and  N_14
REMARK    4  A    between atoms: N_14  and  C_15
REMARK    5  A    between atoms: C_19  and  N_23
REMARK    6  A    between atoms: C_26  and  C_30
REMARK                            x       y       z     vdW  Elec       q    Type
REMARK                         _______ _______ _______ _____ _____    ______ ____
ROOT
ATOM     15  C   UNL     1       0.393   0.267  23.338  0.00  0.00    +0.157 C 
ATOM     16  C   UNL     1       0.520   1.081  23.382  0.00  0.00    +0.164 C 
ATOM     17  O   UNL     1      -0.104   1.413  23.806  0.00  0.00    -0.350 OA
ATOM     18  C   UNL     1      -0.616   0.806  24.025  0.00  0.00    +0.166 C 
ATOM     19  C   UNL     1      -1.318   0.634  24.423  0.00  0.00    +0.154 C 
ATOM     20  C   UNL     1      -1.445  -0.179  24.380  0.00  0.00    +0.166 C 
ATOM     21  O   UNL     1      -0.821  -0.512  23.955  0.00  0.00    -0.350 OA
ATOM     22  C   UNL     1      -0.308   0.097  23.736  0.00  0.00    +0.164 C 
ENDROOT
BRANCH  19  23
ATOM     23  N   UNL     1      -1.808   1.182  24.799  0.00  0.00    -0.200 NA
ATOM     24  C   UNL     1      -2.614   1.204  24.623  0.00  0.00    +0.237 A 
ATOM     25  N   UNL     1      -3.104   1.751  24.998  0.00  0.00    -0.209 NA
ATOM     26  C   UNL     1      -3.909   1.773  24.822  0.00  0.00    +0.120 A 
ATOM     27  C   UNL     1      -4.225   1.247  24.271  0.00  0.00    +0.043 A 
ATOM     28  C   UNL     1      -3.735   0.699  23.895  0.00  0.00    +0.104 A 
ATOM     29  N   UNL     1      -2.930   0.678  24.072  0.00  0.00    -0.211 NA
BRANCH  26  30
ATOM     30  C   UNL     1      -4.399   2.320  25.197  0.00  0.00    +0.163 A 
ATOM     31  C   UNL     1      -5.170   2.183  25.458  0.00  0.00    +0.042 A 
ATOM     32  C   UNL     1      -5.452   2.879  25.799  0.00  0.00    +0.044 A 
ATOM     33  C   UNL     1      -4.855   3.446  25.750  0.00  0.00    +0.180 A 
ATOM     34  O   UNL     1      -4.205   3.101  25.378  0.00  0.00    -0.449 OA
ENDBRANCH  26  30
ENDBRANCH  19  23
BRANCH  15  14
ATOM     14  N   UNL     1       0.883  -0.281  22.963  0.00  0.00    -0.074 NA
BRANCH  14  11
ATOM     11  S   UNL     1       1.701  -0.169  22.958  0.00  0.00    +0.077 S 
ATOM     12  O   UNL     1       1.657   0.119  22.186  0.00  0.00    -0.152 OA
ATOM     13  O   UNL     1       1.745  -0.456  23.730  0.00  0.00    -0.152 OA
BRANCH  11   8
ATOM      5  C   UNL     1       4.153   0.166  22.946  0.00  0.00    +0.073 A 
ATOM      6  C   UNL     1       3.653   0.773  22.696  0.00  0.00    +0.018 A 
ATOM      7  C   UNL     1       2.835   0.661  22.700  0.00  0.00    +0.021 A 
ATOM      8  C   UNL     1       2.518  -0.057  22.954  0.00  0.00    +0.124 A 
ATOM      9  C   UNL     1       3.019  -0.664  23.203  0.00  0.00    +0.021 A 
ATOM     10  C   UNL     1       3.836  -0.552  23.199  0.00  0.00    +0.018 A 
BRANCH   5   4
ATOM      1  C   UNL     1       6.192   0.508  23.647  0.00  0.00    +0.097 C 
ATOM      2  C   UNL     1       5.374   0.397  23.651  0.00  0.00    +0.246 C 
ATOM      3  O   UNL     1       4.961   0.405  24.364  0.00  0.00    -0.273 OA
ATOM      4  N   UNL     1       4.970   0.278  22.942  0.00  0.00    -0.179 NA
ENDBRANCH   5   4
ENDBRANCH  11   8
ENDBRANCH  14  11
ENDBRANCH  15  14
TORSDOF 6
ENDMDL
MODEL 3
REMARK VINA RESULT:      -7.2      1.988      2.747
REMARK  Name = 
REMARK  6 active torsions:
REMARK  status: ('A' for Active; 'I' for Inactive)
REMARK    1  A    between atoms: N_4  and  C_5
REMARK    2  A    between atoms: C_8  and  S_11
REMARK    3  A    between atoms: S_11  and  N_14
REMARK    4  A    between atoms: N_14  and  C_15
REMARK    5  A    between atoms: C_19  and  N_23
REMARK    6  A    between atoms: C_26  and  C_30
REMARK                            x       y       z     vdW  Elec       q    Type
REMARK                         _______ _______ _______ _____ _____    ______ ____
ROOT
ATOM     15  C   UNL     1      -1.496   3.942  25.369  0.00  0.00    +0.157 C 
ATOM     16  C   UNL     1      -1.260   4.277  24.653  0.00  0.00    +0.164 C 
ATOM     17  O   UNL     1      -0.606   3.855  24.379  0.00  0.00    -0.350 OA
ATOM     18  C   UNL     1      -0.438   3.261  24.925  0.00  0.00    +0.166 C 
ATOM     19  C   UNL     1       0.070   2.633  25.094  0.00  0.00    +0.154 C 
ATOM     20  C   UNL     1      -0.166   2.299  25.811  0.00  0.00    +0.166 C 
ATOM     21  O   UNL     1      -0.820   2.721  26.084  0.00  0.00    -0.350 OA
ATOM     22  C   UNL     1      -0.988   3.315  25.537  0.00  0.00    +0.164 C 
ENDROOT
BRANCH  19  23
ATOM     23  N   UNL     1       0.703   2.384  24.628  0.00  0.00    -0.200 NA
ATOM     24  C   UNL     1       0.669   1.656  24.241  0.00  0.00    +0.237 A 
ATOM     25  N   UNL     1       1.302   1.406  23.775  0.00  0.00    -0.209 NA
ATOM     26  C   UNL     1       1.268   0.678  23.388  0.00  0.00    +0.120 A 
ATOM     27  C   UNL     1       0.600   0.200  23.467  0.00  0.00    +0.043 A 
ATOM     28  C   UNL     1      -0.033   0.450  23.934  0.00  0.00    +0.104 A 
ATOM     29  N   UNL     1       0.002   1.178  24.320  0.00  0.00    -0.211 NA
BRANCH  26  30
ATOM     30  C   UNL     1       1.900   0.428  22.922  0.00  0.00    +0.163 A 
ATOM     31  C   UNL     1       1.855  -0.085  22.277  0.00  0.00    +0.042 A 
ATOM     32  C   UNL     1       2.616  -0.183  21.976  0.00  0.00    +0.044 A 
ATOM     33  C   UNL     1       3.132   0.269  22.434  0.00  0.00    +0.180 A 
ATOM     34  O   UNL     1       2.690   0.646  23.019  0.00  0.00    -0.449 OA
ENDBRANCH  26  30
ENDBRANCH  19  23
BRANCH  15  14
ATOM     14  N   UNL     1      -2.130   4.192  25.835  0.00  0.00    -0.074 NA
BRANCH  14  11
ATOM     11  S   UNL     1      -2.889   3.903  25.690  0.00  0.00    +0.077 S 
ATOM     12  O   UNL     1      -2.885   4.263  24.947  0.00  0.00    -0.152 OA
ATOM     13  O   UNL     1      -2.894   3.543  26.432  0.00  0.00    -0.152 OA
BRANCH  11   8
ATOM      5  C   UNL     1      -5.166   3.036  25.254  0.00  0.00    +0.073 A 
ATOM      6  C   UNL     1      -4.933   3.214  26.025  0.00  0.00    +0.018 A 
ATOM      7  C   UNL     1      -4.174   3.503  26.171  0.00  0.00    +0.021 A 
ATOM      8  C   UNL     1      -3.648   3.614  25.545  0.00  0.00    +0.124 A 
ATOM      9  C   UNL     1      -3.881   3.436  24.773  0.00  0.00    +0.021 A 
ATOM     10  C   UNL     1      -4.640   3.147  24.629  0.00  0.00    +0.018 A 
BRANCH   5   4
ATOM      1  C   UNL     1      -6.804   1.648  24.860  0.00  0.00    +0.097 C 
ATOM      2  C   UNL     1      -6.045   1.937  25.006  0.00  0.00    +0.246 C 
ATOM      3  O   UNL     1      -5.407   1.417  25.049  0.00  0.00    -0.273 OA
ATOM      4  N   UNL     1      -5.924   2.746  25.109  0.00  0.00    -0.179 NA
ENDBRANCH   5   4
ENDBRANCH  11   8
ENDBRANCH  14  11
ENDBRANCH  15  14
TORSDOF 6
ENDMDL
MODEL 4
REMARK VINA RESULT:      -6.8     16.007     17.246
REMARK  Name = 
REMARK  6 active torsions:
REMARK  status: ('A' for Active; 'I' for Inactive)
REMARK    1  A    between atoms: N_4  and  C_5
REMARK    2  A    between atoms: C_8  and  S_11
REMARK    3  A    between atoms: S_11  and  N_14
REMARK    4  A    between atoms: N_14  and  C_15
REMARK    5  A    between atoms: C_19  and  N_23
REMARK    6  A    between atoms: C_26  and  C_30
REMARK                            x       y       z     vdW  Elec       q    Type
REMARK                         _______ _______ _______ _____ _____    ______ ____
ROOT
ATOM     15  C   UNL     1      -5.315  -9.935  10.359  0.00  0.00    +0.157 C 
ATOM     16  C   UNL     1      -5.833  -9.705  10.958  0.00  0.00    +0.164 C 
ATOM     17  O   UNL     1      -5.481  -9.886  11.681  0.00  0.00    -0.350 OA
ATOM     18  C   UNL     1      -4.746 -10.228  11.530  0.00  0.00    +0.166 C 
ATOM     19  C   UNL     1      -4.074 -10.551  11.882  0.00  0.00    +0.154 C 
ATOM     20  C   UNL     1      -3.556 -10.781  11.283  0.00  0.00    +0.166 C 
ATOM     21  O   UNL     1      -3.908 -10.600  10.559  0.00  0.00    -0.350 OA
ATOM     22  C   UNL     1      -4.644 -10.258  10.712  0.00  0.00    +0.164 C 
ENDROOT
BRANCH  19  23
ATOM     23  N   UNL     1      -3.943 -10.631  12.693  0.00  0.00    -0.200 NA
ATOM     24  C   UNL     1      -3.186 -10.518  13.002  0.00  0.00    +0.237 A 
ATOM     25  N   UNL     1      -3.054 -10.598  13.812  0.00  0.00    -0.209 NA
ATOM     26  C   UNL     1      -2.297 -10.485  14.120  0.00  0.00    +0.120 A 
ATOM     27  C   UNL     1      -1.672 -10.294  13.618  0.00  0.00    +0.043 A 
ATOM     28  C   UNL     1      -1.803 -10.214  12.807  0.00  0.00    +0.104 A 
ATOM     29  N   UNL     1      -2.560 -10.327  12.499  0.00  0.00    -0.211 NA
BRANCH  26  30
ATOM     30  C   UNL     1      -2.166 -10.565  14.930  0.00  0.00    +0.163 A 
ATOM     31  C   UNL     1      -1.431 -10.549  15.307  0.00  0.00    +0.042 A 
ATOM     32  C   UNL     1      -1.557 -10.648  16.116  0.00  0.00    +0.044 A 
ATOM     33  C   UNL     1      -2.368 -10.725  16.240  0.00  0.00    +0.180 A 
ATOM     34  O   UNL     1      -2.745 -10.673  15.507  0.00  0.00    -0.449 OA
ENDBRANCH  26  30
ENDBRANCH  19  23
BRANCH  15  14
ATOM     14  N   UNL     1      -5.446  -9.855   9.548  0.00  0.00    -0.074 NA
BRANCH  14  11
ATOM     11  S   UNL     1      -6.030  -9.341   9.272  0.00  0.00    +0.077 S 
ATOM     12  O   UNL     1      -5.473  -8.735   9.221  0.00  0.00    -0.152 OA
ATOM     13  O   UNL     1      -6.588  -9.947   9.323  0.00  0.00    -0.152 OA
BRANCH  11   8
ATOM      5  C   UNL     1      -7.783  -7.801   8.447  0.00  0.00    +0.073 A 
ATOM      6  C   UNL     1      -7.852  -8.612   8.317  0.00  0.00    +0.018 A 
ATOM      7  C   UNL     1      -7.269  -9.126   8.592  0.00  0.00    +0.021 A 
ATOM      8  C   UNL     1      -6.614  -8.828   8.997  0.00  0.00    +0.124 A 
ATOM      9  C   UNL     1      -6.544  -8.016   9.127  0.00  0.00    +0.021 A 
ATOM     10  C   UNL     1      -7.128  -7.503   8.851  0.00  0.00    +0.018 A 
BRANCH   5   4
ATOM      1  C   UNL     1      -9.641  -6.662   8.332  0.00  0.00    +0.097 C 
ATOM      2  C   UNL     1      -9.058  -7.176   8.607  0.00  0.00    +0.246 C 
ATOM      3  O   UNL     1      -9.165  -7.580   9.319  0.00  0.00    -0.273 OA
ATOM      4  N   UNL     1      -8.366  -7.287   8.172  0.00  0.00    -0.179 NA
ENDBRANCH   5   4
ENDBRANCH  11   8
ENDBRANCH  14  11
ENDBRANCH  15  14
TORSDOF 6
ENDMDL
MODEL 5
REMARK VINA RESULT:      -6.8     16.813     17.789
REMARK  Name = 
REMARK  6 active torsions:
REMARK  status: ('A' for Active; 'I' for Inactive)
REMARK    1  A    between atoms: N_4  and  C_5
REMARK    2  A    between atoms: C_8  and  S_11
REMARK    3  A    between atoms: S_11  and  N_14
REMARK    4  A    between atoms: N_14  and  C_15
REMARK    5  A    between atoms: C_19  and  N_23
REMARK    6  A    between atoms: C_26  and  C_30
REMARK                            x       y       z     vdW  Elec       q    Type
REMARK                         _______ _______ _______ _____ _____    ______ ____
ROOT
ATOM     15  C   UNL     1      -6.930  -8.720   9.257  0.00  0.00    +0.157 C 
ATOM     16  C   UNL     1      -7.081  -8.390   9.998  0.00  0.00    +0.164 C 
ATOM     17  O   UNL     1      -6.573  -8.744  10.542  0.00  0.00    -0.350 OA
ATOM     18  C   UNL     1      -6.109  -9.293  10.139  0.00  0.00    +0.166 C 
ATOM     19  C   UNL     1      -5.508  -9.851  10.226  0.00  0.00    +0.154 C 
ATOM     20  C   UNL     1      -5.357 -10.182   9.485  0.00  0.00    +0.166 C 
ATOM     21  O   UNL     1      -5.865  -9.827   8.941  0.00  0.00    -0.350 OA
ATOM     22  C   UNL     1      -6.330  -9.278   9.345  0.00  0.00    +0.164 C 
ENDROOT
BRANCH  19  23
ATOM     23  N   UNL     1      -5.124 -10.045  10.930  0.00  0.00    -0.200 NA
ATOM     24  C   UNL     1      -4.301 -10.015  10.974  0.00  0.00    +0.237 A 
ATOM     25  N   UNL     1      -3.917 -10.209  11.678  0.00  0.00    -0.209 NA
ATOM     26  C   UNL     1      -3.094 -10.178  11.722  0.00  0.00    +0.120 A 
ATOM     27  C   UNL     1      -2.654  -9.955  11.061  0.00  0.00    +0.043 A 
ATOM     28  C   UNL     1      -3.037  -9.761  10.356  0.00  0.00    +0.104 A 
ATOM     29  N   UNL     1      -3.861  -9.791  10.313  0.00  0.00    -0.211 NA
BRANCH  26  30
ATOM     30  C   UNL     1      -2.711 -10.372  12.425  0.00  0.00    +0.163 A 
ATOM     31  C   UNL     1      -1.942 -10.664  12.495  0.00  0.00    +0.042 A 
ATOM     32  C   UNL     1      -1.784 -10.781  13.296  0.00  0.00    +0.044 A 
ATOM     33  C   UNL     1      -2.455 -10.560  13.722  0.00  0.00    +0.180 A 
ATOM     34  O   UNL     1      -3.027 -10.308  13.184  0.00  0.00    -0.449 OA
ENDBRANCH  26  30
ENDBRANCH  19  23
BRANCH  15  14
ATOM     14  N   UNL     1      -7.314  -8.526   8.553  0.00  0.00    -0.074 NA
BRANCH  14  11
ATOM     11  S   UNL     1      -7.890  -7.935   8.545  0.00  0.00    +0.077 S 
ATOM     12  O   UNL     1      -8.457  -8.483   8.786  0.00  0.00    -0.152 OA
ATOM     13  O   UNL     1      -7.323  -7.386   8.304  0.00  0.00    -0.152 OA
BRANCH  11   8
ATOM      5  C   UNL     1      -9.614  -6.160   8.521  0.00  0.00    +0.073 A 
ATOM      6  C   UNL     1      -9.781  -6.892   8.861  0.00  0.00    +0.018 A 
ATOM      7  C   UNL     1      -9.206  -7.484   8.870  0.00  0.00    +0.021 A 
ATOM      8  C   UNL     1      -8.465  -7.344   8.537  0.00  0.00    +0.124 A 
ATOM      9  C   UNL     1      -8.297  -6.611   8.196  0.00  0.00    +0.021 A 
ATOM     10  C   UNL     1      -8.872  -6.019   8.188  0.00  0.00    +0.018 A 
BRANCH   5   4
ATOM      1  C   UNL     1     -10.569  -4.208   8.735  0.00  0.00    +0.097 C 
ATOM      2  C   UNL     1      -9.994  -4.801   8.743  0.00  0.00    +0.246 C 
ATOM      3  O   UNL     1      -9.225  -4.625   8.983  0.00  0.00    -0.273 OA
ATOM      4  N   UNL     1     -10.189  -5.568   8.512  0.00  0.00    -0.179 NA
ENDBRANCH   5   4
ENDBRANCH  11   8
ENDBRANCH  14  11
ENDBRANCH  15  14
TORSDOF 6
ENDMDL
MODEL 6
REMARK VINA RESULT:      -6.6     16.044     18.004
REMARK  Name = 
REMARK  6 active torsions:
REMARK  status: ('A' for Active; 'I' for Inactive)
REMARK    1  A    between atoms: N_4  and  C_5
REMARK    2  A    between atoms: C_8  and  S_11
REMARK    3  A    between atoms: S_11  and  N_14
REMARK    4  A    between atoms: N_14  and  C_15
REMARK    5  A    between atoms: C_19  and  N_23
REMARK    6  A    between atoms: C_26  and  C_30
REMARK                            x       y       z     vdW  Elec       q    Type
REMARK                         _______ _______ _______ _____ _____    ______ ____
ROOT
ATOM     15  C   UNL     1      -4.211 -10.025  11.029  0.00  0.00    +0.157 C 
ATOM     16  C   UNL     1      -4.055  -9.268  11.315  0.00  0.00    +0.164 C 
ATOM     17  O   UNL     1      -4.562  -8.742  10.932  0.00  0.00    -0.350 OA
ATOM     18  C   UNL     1      -5.032  -9.174  10.411  0.00  0.00    +0.166 C 
ATOM     19  C   UNL     1      -5.636  -9.117   9.851  0.00  0.00    +0.154 C 
ATOM     20  C   UNL     1      -5.792  -9.875   9.565  0.00  0.00    +0.166 C 
ATOM     21  O   UNL     1      -5.284 -10.401   9.948  0.00  0.00    -0.350 OA
ATOM     22  C   UNL     1      -4.814  -9.968  10.470  0.00  0.00    +0.164 C 
ENDROOT
BRANCH  19  23
ATOM     23  N   UNL     1      -6.017  -8.423   9.619  0.00  0.00    -0.200 NA
ATOM     24  C   UNL     1      -6.788  -8.454   9.326  0.00  0.00    +0.237 A 
ATOM     25  N   UNL     1      -7.169  -7.761   9.094  0.00  0.00    -0.209 NA
ATOM     26  C   UNL     1      -7.940  -7.791   8.801  0.00  0.00    +0.120 A 
ATOM     27  C   UNL     1      -8.329  -8.516   8.740  0.00  0.00    +0.043 A 
ATOM     28  C   UNL     1      -7.948  -9.210   8.972  0.00  0.00    +0.104 A 
ATOM     29  N   UNL     1      -7.177  -9.179   9.265  0.00  0.00    -0.211 NA
BRANCH  26  30
ATOM     30  C   UNL     1      -8.321  -7.098   8.568  0.00  0.00    +0.163 A 
ATOM     31  C   UNL     1      -9.136  -6.969   8.570  0.00  0.00    +0.042 A 
ATOM     32  C   UNL     1      -9.273  -6.203   8.296  0.00  0.00    +0.044 A 
ATOM     33  C   UNL     1      -8.544  -5.859   8.125  0.00  0.00    +0.180 A 
ATOM     34  O   UNL     1      -7.955  -6.412   8.294  0.00  0.00    -0.449 OA
ENDBRANCH  26  30
ENDBRANCH  19  23
BRANCH  15  14
ATOM     14  N   UNL     1      -3.829 -10.720  11.261  0.00  0.00    -0.074 NA
BRANCH  14  11
ATOM     11  S   UNL     1      -3.365 -10.727  11.943  0.00  0.00    +0.077 S 
ATOM     12  O   UNL     1      -2.684 -10.673  11.481  0.00  0.00    -0.152 OA
ATOM     13  O   UNL     1      -4.046 -10.781  12.406  0.00  0.00    -0.152 OA
BRANCH  11   8
ATOM      5  C   UNL     1      -1.976 -10.750  13.992  0.00  0.00    +0.073 A 
ATOM      6  C   UNL     1      -1.618 -10.781  13.250  0.00  0.00    +0.018 A 
ATOM      7  C   UNL     1      -2.080 -10.773  12.567  0.00  0.00    +0.021 A 
ATOM      8  C   UNL     1      -2.902 -10.735  12.626  0.00  0.00    +0.124 A 
ATOM      9  C   UNL     1      -3.261 -10.704  13.368  0.00  0.00    +0.021 A 
ATOM     10  C   UNL     1      -2.798 -10.711  14.051  0.00  0.00    +0.018 A 
BRANCH   5   4
ATOM      1  C   UNL     1      -0.751 -10.060  15.661  0.00  0.00    +0.097 C 
ATOM      2  C   UNL     1      -1.213 -10.052  14.978  0.00  0.00    +0.246 C 
ATOM      3  O   UNL     1      -1.375  -9.338  14.598  0.00  0.00    -0.273 OA
ATOM      4  N   UNL     1      -1.514 -10.758  14.675  0.00  0.00    -0.179 NA
ENDBRANCH   5   4
ENDBRANCH  11   8
ENDBRANCH  14  11
ENDBRANCH  15  14
TORSDOF 6
ENDMDL
MODEL 7
REMARK VINA RESULT:      -6.6      2.042      2.869
REMARK  Name = 
REMARK  6 active torsions:
REMARK  status: ('A' for Active; 'I' for Inactive)
REMARK    1  A    between atoms: N_4  and  C_5
REMARK    2  A    between atoms: C_8  and  S_11
REMARK    3  A    between atoms: S_11  and  N_14
REMARK    4  A    between atoms: N_14  and  C_15
REMARK    5  A    between atoms: C_19  and  N_23
REMARK    6  A    between atoms: C_26  and  C_30
REMARK                            x       y       z     vdW  Elec       q    Type
REMARK                         _______ _______ _______ _____ _____    ______ ____
ROOT
ATOM     15  C   UNL     1      -1.456   1.360  25.011  0.00  0.00    +0.157 C 
ATOM     16  C   UNL     1      -0.991   1.081  25.632  0.00  0.00    +0.164 C 
ATOM     17  O   UNL     1      -0.200   1.145  25.407  0.00  0.00    -0.350 OA
ATOM     18  C   UNL     1      -0.176   1.463  24.647  0.00  0.00    +0.166 C 
ATOM     19  C   UNL     1       0.328   1.699  24.038  0.00  0.00    +0.154 C 
ATOM     20  C   UNL     1      -0.137   1.978  23.416  0.00  0.00    +0.166 C 
ATOM     21  O   UNL     1      -0.928   1.915  23.641  0.00  0.00    -0.350 OA
ATOM     22  C   UNL     1      -0.952   1.596  24.402  0.00  0.00    +0.164 C 
ENDROOT
BRANCH  19  23
ATOM     23  N   UNL     1       1.152   1.662  24.049  0.00  0.00    -0.200 NA
ATOM     24  C   UNL     1       1.548   1.133  23.555  0.00  0.00    +0.237 A 
ATOM     25  N   UNL     1       2.372   1.096  23.566  0.00  0.00    -0.209 NA
ATOM     26  C   UNL     1       2.768   0.567  23.072  0.00  0.00    +0.120 A 
ATOM     27  C   UNL     1       2.340   0.074  22.568  0.00  0.00    +0.043 A 
ATOM     28  C   UNL     1       1.516   0.111  22.557  0.00  0.00    +0.104 A 
ATOM     29  N   UNL     1       1.120   0.641  23.051  0.00  0.00    -0.211 NA
BRANCH  26  30
ATOM     30  C   UNL     1       3.592   0.530  23.083  0.00  0.00    +0.163 A 
ATOM     31  C   UNL     1       4.046  -0.157  23.139  0.00  0.00    +0.042 A 
ATOM     32  C   UNL     1       4.841   0.062  23.130  0.00  0.00    +0.044 A 
ATOM     33  C   UNL     1       4.879   0.883  23.069  0.00  0.00    +0.180 A 
ATOM     34  O   UNL     1       4.107   1.172  23.040  0.00  0.00    -0.449 OA
ENDBRANCH  26  30
ENDBRANCH  19  23
BRANCH  15  14
ATOM     14  N   UNL     1      -2.280   1.397  25.000  0.00  0.00    -0.074 NA
BRANCH  14  11
ATOM     11  S   UNL     1      -2.722   0.719  24.837  0.00  0.00    +0.077 S 
ATOM     12  O   UNL     1      -2.454   0.376  25.538  0.00  0.00    -0.152 OA
ATOM     13  O   UNL     1      -2.989   1.062  24.136  0.00  0.00    -0.152 OA
BRANCH  11   8
ATOM      5  C   UNL     1      -4.047  -1.312  24.345  0.00  0.00    +0.073 A 
ATOM      6  C   UNL     1      -3.722  -1.203  25.095  0.00  0.00    +0.018 A 
ATOM      7  C   UNL     1      -3.281  -0.526  25.259  0.00  0.00    +0.021 A 
ATOM      8  C   UNL     1      -3.163   0.042  24.673  0.00  0.00    +0.124 A 
ATOM      9  C   UNL     1      -3.488  -0.067  23.922  0.00  0.00    +0.021 A 
ATOM     10  C   UNL     1      -3.929  -0.744  23.758  0.00  0.00    +0.018 A 
BRANCH   5   4
ATOM      1  C   UNL     1      -4.549  -3.376  23.841  0.00  0.00    +0.097 C 
ATOM      2  C   UNL     1      -4.107  -2.699  24.006  0.00  0.00    +0.246 C 
ATOM      3  O   UNL     1      -3.283  -2.733  23.996  0.00  0.00    -0.273 OA
ATOM      4  N   UNL     1      -4.488  -1.990  24.180  0.00  0.00    -0.179 NA
ENDBRANCH   5   4
ENDBRANCH  11   8
ENDBRANCH  14  11
ENDBRANCH  15  14
TORSDOF 6
ENDMDL
MODEL 8
REMARK VINA RESULT:      -6.0     15.193     15.873
REMARK  Name = 
REMARK  6 active torsions:
REMARK  status: ('A' for Active; 'I' for Inactive)
REMARK    1  A    between atoms: N_4  and  C_5
REMARK    2  A    between atoms: C_8  and  S_11
REMARK    3  A    between atoms: S_11  and  N_14
REMARK    4  A    between atoms: N_14  and  C_15
REMARK    5  A    between atoms: C_19  and  N_23
REMARK    6  A    between atoms: C_26  and  C_30
REMARK                            x       y       z     vdW  Elec       q    Type
REMARK                         _______ _______ _______ _____ _____    ______ ____
ROOT
ATOM     15  C   UNL     1      -8.532  -9.670  14.740  0.00  0.00    +0.157 C 
ATOM     16  C   UNL     1      -7.914  -9.887  15.241  0.00  0.00    +0.164 C 
ATOM     17  O   UNL     1      -7.262 -10.077  14.773  0.00  0.00    -0.350 OA
ATOM     18  C   UNL     1      -7.477  -9.977  13.984  0.00  0.00    +0.166 C 
ATOM     19  C   UNL     1      -7.207 -10.032  13.206  0.00  0.00    +0.154 C 
ATOM     20  C   UNL     1      -7.825  -9.814  12.705  0.00  0.00    +0.166 C 
ATOM     21  O   UNL     1      -8.477  -9.625  13.173  0.00  0.00    -0.350 OA
ATOM     22  C   UNL     1      -8.262  -9.725  13.964  0.00  0.00    +0.164 C 
ENDROOT
BRANCH  19  23
ATOM     23  N   UNL     1      -6.451 -10.264  12.970  0.00  0.00    -0.200 NA
ATOM     24  C   UNL     1      -6.042  -9.825  12.404  0.00  0.00    +0.237 A 
ATOM     25  N   UNL     1      -5.287 -10.056  12.169  0.00  0.00    -0.209 NA
ATOM     26  C   UNL     1      -4.878  -9.617  11.602  0.00  0.00    +0.120 A 
ATOM     27  C   UNL     1      -5.225  -8.946  11.271  0.00  0.00    +0.043 A 
ATOM     28  C   UNL     1      -5.981  -8.714  11.507  0.00  0.00    +0.104 A 
ATOM     29  N   UNL     1      -6.389  -9.154  12.073  0.00  0.00    -0.211 NA
BRANCH  26  30
ATOM     30  C   UNL     1      -4.122  -9.848  11.367  0.00  0.00    +0.163 A 
ATOM     31  C   UNL     1      -3.875  -9.982  10.591  0.00  0.00    +0.042 A 
ATOM     32  C   UNL     1      -3.081 -10.203  10.610  0.00  0.00    +0.044 A 
ATOM     33  C   UNL     1      -2.837 -10.206  11.398  0.00  0.00    +0.180 A 
ATOM     34  O   UNL     1      -3.480  -9.987  11.865  0.00  0.00    -0.449 OA
ENDBRANCH  26  30
ENDBRANCH  19  23
BRANCH  15  14
ATOM     14  N   UNL     1      -9.289  -9.438  14.976  0.00  0.00    -0.074 NA
BRANCH  14  11
ATOM     11  S   UNL     1      -9.542  -9.579  15.748  0.00  0.00    +0.077 S 
ATOM     12  O   UNL     1      -9.776 -10.340  15.534  0.00  0.00    -0.152 OA
ATOM     13  O   UNL     1      -9.308  -8.817  15.964  0.00  0.00    -0.152 OA
BRANCH  11   8
ATOM      5  C   UNL     1     -10.301  -9.999  18.066  0.00  0.00    +0.073 A 
ATOM      6  C   UNL     1      -9.925  -9.290  17.878  0.00  0.00    +0.018 A 
ATOM      7  C   UNL     1      -9.671  -9.149  17.105  0.00  0.00    +0.021 A 
ATOM      8  C   UNL     1      -9.795  -9.719  16.521  0.00  0.00    +0.124 A 
ATOM      9  C   UNL     1     -10.172 -10.428  16.709  0.00  0.00    +0.021 A 
ATOM     10  C   UNL     1     -10.424 -10.568  17.482  0.00  0.00    +0.018 A 
BRANCH   5   4
ATOM      1  C   UNL     1     -10.314 -10.671  20.143  0.00  0.00    +0.097 C 
ATOM      2  C   UNL     1     -10.060 -10.530  19.371  0.00  0.00    +0.246 C 
ATOM      3  O   UNL     1      -9.312 -10.781  19.130  0.00  0.00    -0.273 OA
ATOM      4  N   UNL     1     -10.555 -10.140  18.839  0.00  0.00    -0.179 NA
ENDBRANCH   5   4
ENDBRANCH  11   8
ENDBRANCH  14  11
ENDBRANCH  15  14
TORSDOF 6
ENDMDL
MODEL 9
REMARK VINA RESULT:      -5.8     16.909     18.820
REMARK  Name = 
REMARK  6 active torsions:
REMARK  status: ('A' for Active; 'I' for Inactive)
REMARK    1  A    between atoms: N_4  and  C_5
REMARK    2  A    between atoms: C_8  and  S_11
REMARK    3  A    between atoms: S_11  and  N_14
REMARK    4  A    between atoms: N_14  and  C_15
REMARK    5  A    between atoms: C_19  and  N_23
REMARK    6  A    between atoms: C_26  and  C_30
REMARK                            x       y       z     vdW  Elec       q    Type
REMARK                         _______ _______ _______ _____ _____    ______ ____
ROOT
ATOM     15  C   UNL     1      -5.612  -9.412   9.829  0.00  0.00    +0.157 C 
ATOM     16  C   UNL     1      -5.652  -8.883  10.460  0.00  0.00    +0.164 C 
ATOM     17  O   UNL     1      -6.133  -8.253  10.232  0.00  0.00    -0.350 OA
ATOM     18  C   UNL     1      -6.391  -8.392   9.462  0.00  0.00    +0.166 C 
ATOM     19  C   UNL     1      -6.847  -8.090   8.845  0.00  0.00    +0.154 C 
ATOM     20  C   UNL     1      -6.807  -8.620   8.214  0.00  0.00    +0.166 C 
ATOM     21  O   UNL     1      -6.326  -9.250   8.441  0.00  0.00    -0.350 OA
ATOM     22  C   UNL     1      -6.068  -9.109   9.212  0.00  0.00    +0.164 C 
ENDROOT
BRANCH  19  23
ATOM     23  N   UNL     1      -7.270  -7.381   8.857  0.00  0.00    -0.200 NA
ATOM     24  C   UNL     1      -8.072  -7.376   8.661  0.00  0.00    +0.237 A 
ATOM     25  N   UNL     1      -8.494  -6.668   8.673  0.00  0.00    -0.209 NA
ATOM     26  C   UNL     1      -9.296  -6.662   8.478  0.00  0.00    +0.120 A 
ATOM     27  C   UNL     1      -9.675  -7.365   8.271  0.00  0.00    +0.043 A 
ATOM     28  C   UNL     1      -9.252  -8.073   8.259  0.00  0.00    +0.104 A 
ATOM     29  N   UNL     1      -8.450  -8.078   8.454  0.00  0.00    -0.211 NA
BRANCH  26  30
ATOM     30  C   UNL     1      -9.718  -5.954   8.490  0.00  0.00    +0.163 A 
ATOM     31  C   UNL     1      -9.398  -5.196   8.418  0.00  0.00    +0.042 A 
ATOM     32  C   UNL     1     -10.017  -4.653   8.460  0.00  0.00    +0.044 A 
ATOM     33  C   UNL     1     -10.720  -5.074   8.557  0.00  0.00    +0.180 A 
ATOM     34  O   UNL     1     -10.535  -5.878   8.576  0.00  0.00    -0.449 OA
ENDBRANCH  26  30
ENDBRANCH  19  23
BRANCH  15  14
ATOM     14  N   UNL     1      -5.189 -10.121   9.817  0.00  0.00    -0.074 NA
BRANCH  14  11
ATOM     11  S   UNL     1      -4.589 -10.253  10.368  0.00  0.00    +0.077 S 
ATOM     12  O   UNL     1      -5.131 -10.621  10.870  0.00  0.00    -0.152 OA
ATOM     13  O   UNL     1      -4.047  -9.886   9.866  0.00  0.00    -0.152 OA
BRANCH  11   8
ATOM      5  C   UNL     1      -2.788 -10.649  12.018  0.00  0.00    +0.073 A 
ATOM      6  C   UNL     1      -3.576 -10.646  12.260  0.00  0.00    +0.018 A 
ATOM      7  C   UNL     1      -4.177 -10.514  11.711  0.00  0.00    +0.021 A 
ATOM      8  C   UNL     1      -3.989 -10.385  10.918  0.00  0.00    +0.124 A 
ATOM      9  C   UNL     1      -3.200 -10.388  10.675  0.00  0.00    +0.021 A 
ATOM     10  C   UNL     1      -2.600 -10.520  11.225  0.00  0.00    +0.018 A 
BRANCH   5   4
ATOM      1  C   UNL     1      -1.676 -10.660  13.897  0.00  0.00    +0.097 C 
ATOM      2  C   UNL     1      -2.277 -10.528  13.347  0.00  0.00    +0.246 C 
ATOM      3  O   UNL     1      -2.969 -10.143  13.577  0.00  0.00    -0.273 OA
ATOM      4  N   UNL     1      -2.187 -10.781  12.568  0.00  0.00    -0.179 NA
ENDBRANCH   5   4
ENDBRANCH  11   8
ENDBRANCH  14  11
ENDBRANCH  15  14
TORSDOF 6
ENDMDL
MODEL 10
REMARK VINA RESULT:      -5.5     15.048     15.928
REMARK  Name = 
REMARK  6 active torsions:
REMARK  status: ('A' for Active; 'I' for Inactive)
REMARK    1  A    between atoms: N_4  and  C_5
REMARK    2  A    between atoms: C_8  and  S_11
REMARK    3  A    between atoms: S_11  and  N_14
REMARK    4  A    between atoms: N_14  and  C_15
REMARK    5  A    between atoms: C_19  and  N_23
REMARK    6  A    between atoms: C_26  and  C_30
REMARK                            x       y       z     vdW  Elec       q    Type
REMARK                         _______ _______ _______ _____ _____    ______ ____
ROOT
ATOM     15  C   UNL     1      -7.174 -10.317  13.462  0.00  0.00    +0.157 C 
ATOM     16  C   UNL     1      -6.755  -9.983  14.088  0.00  0.00    +0.164 C 
ATOM     17  O   UNL     1      -5.961  -9.937  13.868  0.00  0.00    -0.350 OA
ATOM     18  C   UNL     1      -5.890 -10.241  13.105  0.00  0.00    +0.166 C 
ATOM     19  C   UNL     1      -5.357 -10.402  12.496  0.00  0.00    +0.154 C 
ATOM     20  C   UNL     1      -5.776 -10.735  11.869  0.00  0.00    +0.166 C 
ATOM     21  O   UNL     1      -6.569 -10.781  12.090  0.00  0.00    -0.350 OA
ATOM     22  C   UNL     1      -6.640 -10.476  12.854  0.00  0.00    +0.164 C 
ENDROOT
BRANCH  19  23
ATOM     23  N   UNL     1      -4.545 -10.254  12.512  0.00  0.00    -0.200 NA
ATOM     24  C   UNL     1      -4.149 -10.045  11.819  0.00  0.00    +0.237 A 
ATOM     25  N   UNL     1      -3.338  -9.898  11.835  0.00  0.00    -0.209 NA
ATOM     26  C   UNL     1      -2.943  -9.689  11.141  0.00  0.00    +0.120 A 
ATOM     27  C   UNL     1      -3.359  -9.629  10.432  0.00  0.00    +0.043 A 
ATOM     28  C   UNL     1      -4.171  -9.776  10.416  0.00  0.00    +0.104 A 
ATOM     29  N   UNL     1      -4.566  -9.985  11.109  0.00  0.00    -0.211 NA
BRANCH  26  30
ATOM     30  C   UNL     1      -2.132  -9.541  11.157  0.00  0.00    +0.163 A 
ATOM     31  C   UNL     1      -1.740  -8.940  10.750  0.00  0.00    +0.042 A 
ATOM     32  C   UNL     1      -0.936  -8.995  10.924  0.00  0.00    +0.044 A 
ATOM     33  C   UNL     1      -0.830  -9.631  11.438  0.00  0.00    +0.180 A 
ATOM     34  O   UNL     1      -1.569  -9.968  11.582  0.00  0.00    -0.449 OA
ENDBRANCH  26  30
ENDBRANCH  19  23
BRANCH  15  14
ATOM     14  N   UNL     1      -7.986 -10.465  13.445  0.00  0.00    -0.074 NA
BRANCH  14  11
ATOM     11  S   UNL     1      -8.480 -10.116  14.006  0.00  0.00    +0.077 S 
ATOM     12  O   UNL     1      -8.615  -9.483  13.495  0.00  0.00    -0.152 OA
ATOM     13  O   UNL     1      -8.346 -10.749  14.518  0.00  0.00    -0.152 OA
BRANCH  11   8
ATOM      5  C   UNL     1      -9.963  -9.072  15.691  0.00  0.00    +0.073 A 
ATOM      6  C   UNL     1      -9.627  -9.810  15.838  0.00  0.00    +0.018 A 
ATOM      7  C   UNL     1      -9.133 -10.159  15.277  0.00  0.00    +0.021 A 
ATOM      8  C   UNL     1      -8.974  -9.768  14.568  0.00  0.00    +0.124 A 
ATOM      9  C   UNL     1      -9.310  -9.029  14.420  0.00  0.00    +0.021 A 
ATOM     10  C   UNL     1      -9.805  -8.681  14.982  0.00  0.00    +0.018 A 
BRANCH   5   4
ATOM      1  C   UNL     1     -10.645  -7.832  17.353  0.00  0.00    +0.097 C 
ATOM      2  C   UNL     1     -10.151  -8.181  16.792  0.00  0.00    +0.246 C 
ATOM      3  O   UNL     1      -9.349  -7.987  16.772  0.00  0.00    -0.273 OA
ATOM      4  N   UNL     1     -10.457  -8.723  16.252  0.00  0.00    -0.179 NA
ENDBRANCH   5   4
ENDBRANCH  11   8
ENDBRANCH  14  11
ENDBRANCH  15  14
TORSDOF 6
ENDMDL
