MODEL 1
REMARK VINA RESULT:     -11.7      0.000      0.000
REMARK  Name = 
REMARK  3 active torsions:
REMARK  status: ('A' for Active; 'I' for Inactive)
REMARK    1  A    between atoms: C_1  and  C_2
REMARK    2  A    between atoms: C_1  and  N_8
REMARK    3  A    between atoms: C_11  and  C_13
REMARK                            x       y       z     vdW  Elec       q    Type
REMARK                         _______ _______ _______ _____ _____    ______ ____
ROOT
ATOM      8  N   UNL     1      -4.250   2.206  24.634  0.00  0.00    -0.272 NA
ATOM      9  C   UNL     1      -4.967   2.041  25.008  0.00  0.00    +0.073 C 
ATOM     10  C   UNL     1      -5.026   1.222  25.096  0.00  0.00    +0.026 C 
ATOM     11  C   UNL     1      -4.346   0.882  24.776  0.00  0.00    +0.076 C 
ATOM     12  C   UNL     1      -3.867   1.490  24.490  0.00  0.00    +0.080 C 
ENDROOT
BRANCH  11  13
ATOM     13  C   UNL     1      -4.175   0.075  24.747  0.00  0.00    +0.142 A 
ATOM     14  N   UNL     1      -3.793  -0.361  25.333  0.00  0.00    -0.210 NA
ATOM     15  C   UNL     1      -3.739  -1.142  25.075  0.00  0.00    +0.181 A 
ATOM     16  C   UNL     1      -4.087  -1.189  24.328  0.00  0.00    +0.118 A 
ATOM     17  N   UNL     1      -4.356  -0.437  24.125  0.00  0.00    -0.228 NA
ATOM     18  C   UNL     1      -4.113  -1.911  23.930  0.00  0.00    +0.024 A 
ATOM     19  C   UNL     1      -3.791  -2.586  24.278  0.00  0.00    +0.022 A 
ATOM     20  C   UNL     1      -3.443  -2.540  25.024  0.00  0.00    +0.101 A 
ATOM     21  N   UNL     1      -3.417  -1.818  25.423  0.00  0.00    -0.224 NA
ENDBRANCH  11  13
BRANCH   8   1
ATOM      1  C   UNL     1      -3.967   2.955  24.437  0.00  0.00    +0.072 C 
BRANCH   1   2
ATOM      2  C   UNL     1      -3.422   3.332  24.929  0.00  0.00    +0.016 C 
ATOM      3  C   UNL     1      -3.682   3.735  25.600  0.00  0.00    +0.001 C 
ATOM      4  C   UNL     1      -3.136   4.112  26.091  0.00  0.00    +0.000 C 
ATOM      5  C   UNL     1      -2.332   4.086  25.910  0.00  0.00    +0.000 C 
ATOM      6  C   UNL     1      -2.072   3.684  25.239  0.00  0.00    +0.000 C 
ATOM      7  C   UNL     1      -2.617   3.307  24.748  0.00  0.00    +0.001 C 
ENDBRANCH   1   2
ENDBRANCH   8   1
TORSDOF 3
ENDMDL
MODEL 2
REMARK VINA RESULT:     -11.5      1.294      4.818
REMARK  Name = 
REMARK  3 active torsions:
REMARK  status: ('A' for Active; 'I' for Inactive)
REMARK    1  A    between atoms: C_1  and  C_2
REMARK    2  A    between atoms: C_1  and  N_8
REMARK    3  A    between atoms: C_11  and  C_13
REMARK                            x       y       z     vdW  Elec       q    Type
REMARK                         _______ _______ _______ _____ _____    ______ ____
ROOT
ATOM      8  N   UNL     1      -3.801   0.609  24.369  0.00  0.00    -0.272 NA
ATOM      9  C   UNL     1      -3.532   0.676  23.592  0.00  0.00    +0.073 C 
ATOM     10  C   UNL     1      -3.047   1.343  23.547  0.00  0.00    +0.026 C 
ATOM     11  C   UNL     1      -3.018   1.688  24.297  0.00  0.00    +0.076 C 
ATOM     12  C   UNL     1      -3.484   1.234  24.804  0.00  0.00    +0.080 C 
ENDROOT
BRANCH  11  13
ATOM     13  C   UNL     1      -2.597   2.367  24.502  0.00  0.00    +0.142 A 
ATOM     14  N   UNL     1      -1.784   2.476  24.420  0.00  0.00    -0.210 NA
ATOM     15  C   UNL     1      -1.599   3.232  24.693  0.00  0.00    +0.181 A 
ATOM     16  C   UNL     1      -2.299   3.590  24.943  0.00  0.00    +0.118 A 
ATOM     17  N   UNL     1      -2.916   3.056  24.825  0.00  0.00    -0.228 NA
ATOM     18  C   UNL     1      -2.283   4.358  25.245  0.00  0.00    +0.024 A 
ATOM     19  C   UNL     1      -1.569   4.767  25.298  0.00  0.00    +0.022 A 
ATOM     20  C   UNL     1      -0.870   4.408  25.048  0.00  0.00    +0.101 A 
ATOM     21  N   UNL     1      -0.884   3.641  24.745  0.00  0.00    -0.224 NA
ENDBRANCH  11  13
BRANCH   8   1
ATOM      1  C   UNL     1      -4.301   0.020  24.660  0.00  0.00    +0.072 C 
BRANCH   1   2
ATOM      2  C   UNL     1      -4.026  -0.754  24.734  0.00  0.00    +0.016 C 
ATOM      3  C   UNL     1      -3.628  -0.987  25.418  0.00  0.00    +0.001 C 
ATOM      4  C   UNL     1      -3.353  -1.762  25.492  0.00  0.00    +0.000 C 
ATOM      5  C   UNL     1      -3.478  -2.303  24.882  0.00  0.00    +0.000 C 
ATOM      6  C   UNL     1      -3.876  -2.071  24.199  0.00  0.00    +0.000 C 
ATOM      7  C   UNL     1      -4.151  -1.296  24.124  0.00  0.00    +0.001 C 
ENDBRANCH   1   2
ENDBRANCH   8   1
TORSDOF 3
ENDMDL
MODEL 3
REMARK VINA RESULT:     -10.7      1.674      2.229
REMARK  Name = 
REMARK  3 active torsions:
REMARK  status: ('A' for Active; 'I' for Inactive)
REMARK    1  A    between atoms: C_1  and  C_2
REMARK    2  A    between atoms: C_1  and  N_8
REMARK    3  A    between atoms: C_11  and  C_13
REMARK                            x       y       z     vdW  Elec       q    Type
REMARK                         _______ _______ _______ _____ _____    ______ ____
ROOT
ATOM      8  N   UNL     1      -1.054   1.929  25.220  0.00  0.00    -0.272 NA
ATOM      9  C   UNL     1      -0.679   1.735  24.511  0.00  0.00    +0.073 C 
ATOM     10  C   UNL     1      -1.051   1.066  24.201  0.00  0.00    +0.026 C 
ATOM     11  C   UNL     1      -1.655   0.847  24.719  0.00  0.00    +0.076 C 
ATOM     12  C   UNL     1      -1.656   1.380  25.349  0.00  0.00    +0.080 C 
ENDROOT
BRANCH  11  13
ATOM     13  C   UNL     1      -2.166   0.207  24.624  0.00  0.00    +0.142 A 
ATOM     14  N   UNL     1      -1.995  -0.581  24.799  0.00  0.00    -0.210 NA
ATOM     15  C   UNL     1      -2.662  -1.032  24.620  0.00  0.00    +0.181 A 
ATOM     16  C   UNL     1      -3.246  -0.523  24.336  0.00  0.00    +0.118 A 
ATOM     17  N   UNL     1      -2.940   0.243  24.338  0.00  0.00    -0.228 NA
ATOM     18  C   UNL     1      -3.981  -0.823  24.111  0.00  0.00    +0.024 A 
ATOM     19  C   UNL     1      -4.132  -1.632  24.171  0.00  0.00    +0.022 A 
ATOM     20  C   UNL     1      -3.549  -2.140  24.456  0.00  0.00    +0.101 A 
ATOM     21  N   UNL     1      -2.814  -1.841  24.681  0.00  0.00    -0.224 NA
ENDBRANCH  11  13
BRANCH   8   1
ATOM      1  C   UNL     1      -0.860   2.560  25.714  0.00  0.00    +0.072 C 
BRANCH   1   2
ATOM      2  C   UNL     1      -1.148   3.316  25.550  0.00  0.00    +0.016 C 
ATOM      3  C   UNL     1      -1.892   3.542  25.822  0.00  0.00    +0.001 C 
ATOM      4  C   UNL     1      -2.179   4.299  25.658  0.00  0.00    +0.000 C 
ATOM      5  C   UNL     1      -1.722   4.827  25.221  0.00  0.00    +0.000 C 
ATOM      6  C   UNL     1      -0.977   4.601  24.948  0.00  0.00    +0.000 C 
ATOM      7  C   UNL     1      -0.689   3.845  25.112  0.00  0.00    +0.001 C 
ENDBRANCH   1   2
ENDBRANCH   8   1
TORSDOF 3
ENDMDL
