MODEL 1
REMARK VINA RESULT:      -8.6      0.000      0.000
REMARK  Name = 
REMARK  4 active torsions:
REMARK  status: ('A' for Active; 'I' for Inactive)
REMARK    1  A    between atoms: O_2  and  C_3
REMARK    2  A    between atoms: C_6  and  C_9
REMARK    3  A    between atoms: C_15  and  C_18
REMARK    4  A    between atoms: C_21  and  C_23
REMARK                            x       y       z     vdW  Elec       q    Type
REMARK                         _______ _______ _______ _____ _____    ______ ____
ROOT
ATOM      9  C   UNL     1      -3.295   2.151  24.478  0.00  0.00    +0.270 C 
ATOM     10  O   UNL     1      -3.196   2.074  23.662  0.00  0.00    -0.268 OA
ATOM     11  N   UNL     1      -2.731   1.838  24.994  0.00  0.00    -0.157 NA
ATOM     12  C   UNL     1      -2.068   1.450  24.693  0.00  0.00    +0.155 A 
ATOM     13  N   UNL     1      -1.504   1.138  25.208  0.00  0.00    -0.227 NA
ATOM     14  C   UNL     1      -0.841   0.750  24.907  0.00  0.00    +0.103 A 
ATOM     15  C   UNL     1      -0.742   0.674  24.092  0.00  0.00    +0.058 A 
ATOM     16  C   UNL     1      -1.306   0.986  23.577  0.00  0.00    +0.008 A 
ATOM     17  C   UNL     1      -1.969   1.374  23.877  0.00  0.00    +0.036 A 
ENDROOT
BRANCH   9   6
ATOM      3  C   UNL     1      -5.284   3.315  25.380  0.00  0.00    +0.139 A 
ATOM      4  C   UNL     1      -4.572   3.723  25.292  0.00  0.00    +0.037 A 
ATOM      5  C   UNL     1      -3.909   3.335  24.991  0.00  0.00    +0.008 A 
ATOM      6  C   UNL     1      -3.958   2.539  24.779  0.00  0.00    +0.056 A 
ATOM      7  C   UNL     1      -4.670   2.131  24.867  0.00  0.00    +0.008 A 
ATOM      8  C   UNL     1      -5.333   2.519  25.167  0.00  0.00    +0.037 A 
BRANCH   3   2
ATOM      1  C   UNL     1      -5.997   4.526  25.639  0.00  0.00    +0.252 C 
ATOM      2  O   UNL     1      -5.948   3.704  25.680  0.00  0.00    -0.471 OA
ENDBRANCH   3   2
ENDBRANCH   9   6
BRANCH  15  18
ATOM     18  C   UNL     1      -0.079   0.285  23.791  0.00  0.00    +0.205 A 
ATOM     19  N   UNL     1       0.042  -0.530  23.779  0.00  0.00    -0.056 NA
ATOM     20  O   UNL     1       0.775  -0.675  23.431  0.00  0.00    -0.336 OA
ATOM     21  C   UNL     1       1.109   0.052  23.227  0.00  0.00    +0.251 A 
ATOM     22  N   UNL     1       0.581   0.646  23.450  0.00  0.00    -0.190 NA
BRANCH  21  23
ATOM     23  C   UNL     1       1.841   0.165  22.864  0.00  0.00    +0.138 C 
ATOM     24  C   UNL     1       2.496   0.533  23.202  0.00  0.00    +0.027 C 
ATOM     25  C   UNL     1       3.107   0.526  22.646  0.00  0.00    +0.019 C 
ATOM     26  C   UNL     1       2.827   0.153  21.966  0.00  0.00    +0.073 C 
ATOM     27  N   UNL     1       2.045  -0.070  22.100  0.00  0.00    -0.265 NA
ATOM     28  C   UNL     1       1.554  -0.460  21.565  0.00  0.00    +0.090 C 
ENDBRANCH  21  23
ENDBRANCH  15  18
TORSDOF 4
ENDMDL
MODEL 2
REMARK VINA RESULT:      -8.5      1.200      1.807
REMARK  Name = 
REMARK  4 active torsions:
REMARK  status: ('A' for Active; 'I' for Inactive)
REMARK    1  A    between atoms: O_2  and  C_3
REMARK    2  A    between atoms: C_6  and  C_9
REMARK    3  A    between atoms: C_15  and  C_18
REMARK    4  A    between atoms: C_21  and  C_23
REMARK                            x       y       z     vdW  Elec       q    Type
REMARK                         _______ _______ _______ _____ _____    ______ ____
ROOT
ATOM      9  C   UNL     1      -2.288   1.159  24.084  0.00  0.00    +0.270 C 
ATOM     10  O   UNL     1      -2.022   1.680  23.502  0.00  0.00    -0.268 OA
ATOM     11  N   UNL     1      -1.807   0.533  24.328  0.00  0.00    -0.157 NA
ATOM     12  C   UNL     1      -1.062   0.429  23.990  0.00  0.00    +0.155 A 
ATOM     13  N   UNL     1      -0.583  -0.196  24.234  0.00  0.00    -0.227 NA
ATOM     14  C   UNL     1       0.163  -0.300  23.896  0.00  0.00    +0.103 A 
ATOM     15  C   UNL     1       0.429   0.221  23.314  0.00  0.00    +0.058 A 
ATOM     16  C   UNL     1      -0.052   0.846  23.070  0.00  0.00    +0.008 A 
ATOM     17  C   UNL     1      -0.797   0.950  23.408  0.00  0.00    +0.036 A 
ENDROOT
BRANCH   9   6
ATOM      3  C   UNL     1      -4.524   1.471  25.099  0.00  0.00    +0.139 A 
ATOM      4  C   UNL     1      -3.952   2.062  25.169  0.00  0.00    +0.037 A 
ATOM      5  C   UNL     1      -3.207   1.958  24.831  0.00  0.00    +0.008 A 
ATOM      6  C   UNL     1      -3.033   1.263  24.422  0.00  0.00    +0.056 A 
ATOM      7  C   UNL     1      -3.604   0.671  24.351  0.00  0.00    +0.008 A 
ATOM      8  C   UNL     1      -4.349   0.775  24.689  0.00  0.00    +0.037 A 
BRANCH   3   2
ATOM      1  C   UNL     1      -5.870   1.940  25.005  0.00  0.00    +0.252 C 
ATOM      2  O   UNL     1      -5.269   1.575  25.437  0.00  0.00    -0.471 OA
ENDBRANCH   3   2
ENDBRANCH   9   6
BRANCH  15  18
ATOM     18  C   UNL     1       1.174   0.117  22.976  0.00  0.00    +0.205 A 
ATOM     19  N   UNL     1       1.338  -0.297  22.282  0.00  0.00    -0.056 NA
ATOM     20  O   UNL     1       2.152  -0.262  22.150  0.00  0.00    -0.336 OA
ATOM     21  C   UNL     1       2.491   0.175  22.763  0.00  0.00    +0.251 A 
ATOM     22  N   UNL     1       1.887   0.409  23.274  0.00  0.00    -0.190 NA
BRANCH  21  23
ATOM     23  C   UNL     1       3.293   0.347  22.850  0.00  0.00    +0.138 C 
ATOM     24  C   UNL     1       3.661   1.056  22.643  0.00  0.00    +0.027 C 
ATOM     25  C   UNL     1       4.463   0.988  22.824  0.00  0.00    +0.019 C 
ATOM     26  C   UNL     1       4.590   0.238  23.143  0.00  0.00    +0.073 C 
ATOM     27  N   UNL     1       3.867  -0.158  23.159  0.00  0.00    -0.265 NA
ATOM     28  C   UNL     1       3.741  -0.924  23.435  0.00  0.00    +0.090 C 
ENDBRANCH  21  23
ENDBRANCH  15  18
TORSDOF 4
ENDMDL
MODEL 3
REMARK VINA RESULT:      -7.7      1.246      6.582
REMARK  Name = 
REMARK  4 active torsions:
REMARK  status: ('A' for Active; 'I' for Inactive)
REMARK    1  A    between atoms: O_2  and  C_3
REMARK    2  A    between atoms: C_6  and  C_9
REMARK    3  A    between atoms: C_15  and  C_18
REMARK    4  A    between atoms: C_21  and  C_23
REMARK                            x       y       z     vdW  Elec       q    Type
REMARK                         _______ _______ _______ _____ _____    ______ ____
ROOT
ATOM      9  C   UNL     1       0.237   0.493  23.609  0.00  0.00    +0.270 C 
ATOM     10  O   UNL     1       0.030   0.062  24.282  0.00  0.00    -0.268 OA
ATOM     11  N   UNL     1      -0.312   0.999  23.258  0.00  0.00    -0.157 NA
ATOM     12  C   UNL     1      -1.068   1.075  23.580  0.00  0.00    +0.155 A 
ATOM     13  N   UNL     1      -1.617   1.581  23.229  0.00  0.00    -0.227 NA
ATOM     14  C   UNL     1      -2.372   1.657  23.551  0.00  0.00    +0.103 A 
ATOM     15  C   UNL     1      -2.580   1.227  24.224  0.00  0.00    +0.058 A 
ATOM     16  C   UNL     1      -2.030   0.720  24.575  0.00  0.00    +0.008 A 
ATOM     17  C   UNL     1      -1.274   0.645  24.253  0.00  0.00    +0.036 A 
ENDROOT
BRANCH   9   6
ATOM      3  C   UNL     1       2.504   0.265  22.643  0.00  0.00    +0.139 A 
ATOM      4  C   UNL     1       1.912  -0.273  22.437  0.00  0.00    +0.037 A 
ATOM      5  C   UNL     1       1.156  -0.197  22.759  0.00  0.00    +0.008 A 
ATOM      6  C   UNL     1       0.993   0.417  23.287  0.00  0.00    +0.056 A 
ATOM      7  C   UNL     1       1.584   0.954  23.493  0.00  0.00    +0.008 A 
ATOM      8  C   UNL     1       2.340   0.878  23.170  0.00  0.00    +0.037 A 
BRANCH   3   2
ATOM      1  C   UNL     1       3.896   0.588  22.663  0.00  0.00    +0.252 C 
ATOM      2  O   UNL     1       3.260   0.189  22.321  0.00  0.00    -0.471 OA
ENDBRANCH   3   2
ENDBRANCH   9   6
BRANCH  15  18
ATOM     18  C   UNL     1      -3.335   1.303  24.546  0.00  0.00    +0.205 A 
ATOM     19  N   UNL     1      -3.852   0.685  24.723  0.00  0.00    -0.056 NA
ATOM     20  O   UNL     1      -4.543   1.010  25.034  0.00  0.00    -0.336 OA
ATOM     21  C   UNL     1      -4.454   1.830  25.050  0.00  0.00    +0.251 A 
ATOM     22  N   UNL     1      -3.707   2.012  24.748  0.00  0.00    -0.190 NA
BRANCH  21  23
ATOM     23  C   UNL     1      -5.013   2.374  25.319  0.00  0.00    +0.138 C 
ATOM     24  C   UNL     1      -4.850   3.095  25.685  0.00  0.00    +0.027 C 
ATOM     25  C   UNL     1      -5.569   3.459  25.862  0.00  0.00    +0.019 C 
ATOM     26  C   UNL     1      -6.176   2.962  25.606  0.00  0.00    +0.073 C 
ATOM     27  N   UNL     1      -5.832   2.292  25.271  0.00  0.00    -0.265 NA
ATOM     28  C   UNL     1      -6.237   1.652  24.945  0.00  0.00    +0.090 C 
ENDBRANCH  21  23
ENDBRANCH  15  18
TORSDOF 4
ENDMDL
MODEL 4
REMARK VINA RESULT:      -7.7      1.526      6.717
REMARK  Name = 
REMARK  4 active torsions:
REMARK  status: ('A' for Active; 'I' for Inactive)
REMARK    1  A    between atoms: O_2  and  C_3
REMARK    2  A    between atoms: C_6  and  C_9
REMARK    3  A    between atoms: C_15  and  C_18
REMARK    4  A    between atoms: C_21  and  C_23
REMARK                            x       y       z     vdW  Elec       q    Type
REMARK                         _______ _______ _______ _____ _____    ______ ____
ROOT
ATOM      9  C   UNL     1       2.006   0.437  23.054  0.00  0.00    +0.270 C 
ATOM     10  O   UNL     1       1.536  -0.025  22.556  0.00  0.00    -0.268 OA
ATOM     11  N   UNL     1       1.653   0.965  23.581  0.00  0.00    -0.157 NA
ATOM     12  C   UNL     1       0.831   1.032  23.610  0.00  0.00    +0.155 A 
ATOM     13  N   UNL     1       0.479   1.560  24.137  0.00  0.00    -0.227 NA
ATOM     14  C   UNL     1      -0.343   1.627  24.166  0.00  0.00    +0.103 A 
ATOM     15  C   UNL     1      -0.813   1.167  23.668  0.00  0.00    +0.058 A 
ATOM     16  C   UNL     1      -0.460   0.638  23.141  0.00  0.00    +0.008 A 
ATOM     17  C   UNL     1       0.362   0.571  23.112  0.00  0.00    +0.036 A 
ENDROOT
BRANCH   9   6
ATOM      3  C   UNL     1       4.471   0.235  22.967  0.00  0.00    +0.139 A 
ATOM      4  C   UNL     1       4.108   0.950  22.771  0.00  0.00    +0.037 A 
ATOM      5  C   UNL     1       3.286   1.017  22.800  0.00  0.00    +0.008 A 
ATOM      6  C   UNL     1       2.827   0.369  23.025  0.00  0.00    +0.056 A 
ATOM      7  C   UNL     1       3.189  -0.346  23.221  0.00  0.00    +0.008 A 
ATOM      8  C   UNL     1       4.011  -0.413  23.192  0.00  0.00    +0.037 A 
BRANCH   3   2
ATOM      1  C   UNL     1       5.730   0.162  23.638  0.00  0.00    +0.252 C 
ATOM      2  O   UNL     1       5.293   0.168  22.938  0.00  0.00    -0.471 OA
ENDBRANCH   3   2
ENDBRANCH   9   6
BRANCH  15  18
ATOM     18  C   UNL     1      -1.634   1.234  23.697  0.00  0.00    +0.205 A 
ATOM     19  N   UNL     1      -2.106   1.649  23.163  0.00  0.00    -0.056 NA
ATOM     20  O   UNL     1      -2.892   1.569  23.401  0.00  0.00    -0.336 OA
ATOM     21  C   UNL     1      -2.906   1.104  24.083  0.00  0.00    +0.251 A 
ATOM     22  N   UNL     1      -2.129   0.897  24.266  0.00  0.00    -0.190 NA
BRANCH  21  23
ATOM     23  C   UNL     1      -3.579   0.885  24.507  0.00  0.00    +0.138 C 
ATOM     24  C   UNL     1      -3.855   0.116  24.614  0.00  0.00    +0.027 C 
ATOM     25  C   UNL     1      -4.540   0.152  25.072  0.00  0.00    +0.019 C 
ATOM     26  C   UNL     1      -4.688   0.944  25.247  0.00  0.00    +0.073 C 
ATOM     27  N   UNL     1      -4.094   1.397  24.898  0.00  0.00    -0.265 NA
ATOM     28  C   UNL     1      -4.026   2.219  24.935  0.00  0.00    +0.090 C 
ENDBRANCH  21  23
ENDBRANCH  15  18
TORSDOF 4
ENDMDL
MODEL 5
REMARK VINA RESULT:      -6.9     14.437     16.033
REMARK  Name = 
REMARK  4 active torsions:
REMARK  status: ('A' for Active; 'I' for Inactive)
REMARK    1  A    between atoms: O_2  and  C_3
REMARK    2  A    between atoms: C_6  and  C_9
REMARK    3  A    between atoms: C_15  and  C_18
REMARK    4  A    between atoms: C_21  and  C_23
REMARK                            x       y       z     vdW  Elec       q    Type
REMARK                         _______ _______ _______ _____ _____    ______ ____
ROOT
ATOM      9  C   UNL     1      -5.203 -10.538  16.166  0.00  0.00    +0.270 C 
ATOM     10  O   UNL     1      -4.482 -10.779  15.844  0.00  0.00    -0.268 OA
ATOM     11  N   UNL     1      -5.805 -10.266  15.671  0.00  0.00    -0.157 NA
ATOM     12  C   UNL     1      -5.687 -10.234  14.855  0.00  0.00    +0.155 A 
ATOM     13  N   UNL     1      -6.288  -9.962  14.361  0.00  0.00    -0.227 NA
ATOM     14  C   UNL     1      -6.170  -9.931  13.546  0.00  0.00    +0.103 A 
ATOM     15  C   UNL     1      -5.449 -10.171  13.223  0.00  0.00    +0.058 A 
ATOM     16  C   UNL     1      -4.847 -10.444  13.718  0.00  0.00    +0.008 A 
ATOM     17  C   UNL     1      -4.966 -10.475  14.534  0.00  0.00    +0.036 A 
ENDROOT
BRANCH   9   6
ATOM      3  C   UNL     1      -5.559 -10.633  18.613  0.00  0.00    +0.139 A 
ATOM      4  C   UNL     1      -6.189 -10.454  18.111  0.00  0.00    +0.037 A 
ATOM      5  C   UNL     1      -6.071 -10.422  17.295  0.00  0.00    +0.008 A 
ATOM      6  C   UNL     1      -5.322 -10.570  16.981  0.00  0.00    +0.056 A 
ATOM      7  C   UNL     1      -4.691 -10.749  17.483  0.00  0.00    +0.008 A 
ATOM      8  C   UNL     1      -4.810 -10.780  18.299  0.00  0.00    +0.037 A 
BRANCH   3   2
ATOM      1  C   UNL     1      -6.403 -10.436  19.749  0.00  0.00    +0.252 C 
ATOM      2  O   UNL     1      -5.678 -10.664  19.429  0.00  0.00    -0.471 OA
ENDBRANCH   3   2
ENDBRANCH   9   6
BRANCH  15  18
ATOM     18  C   UNL     1      -5.331 -10.140  12.408  0.00  0.00    +0.205 A 
ATOM     19  N   UNL     1      -5.783 -10.526  11.836  0.00  0.00    -0.056 NA
ATOM     20  O   UNL     1      -5.470 -10.341  11.095  0.00  0.00    -0.336 OA
ATOM     21  C   UNL     1      -4.825  -9.840  11.208  0.00  0.00    +0.251 A 
ATOM     22  N   UNL     1      -4.738  -9.716  12.020  0.00  0.00    -0.190 NA
BRANCH  21  23
ATOM     23  C   UNL     1      -4.349  -9.521  10.615  0.00  0.00    +0.138 C 
ATOM     24  C   UNL     1      -3.603  -9.792  10.394  0.00  0.00    +0.027 C 
ATOM     25  C   UNL     1      -3.329  -9.312   9.781  0.00  0.00    +0.019 C 
ATOM     26  C   UNL     1      -3.906  -8.744   9.625  0.00  0.00    +0.073 C 
ATOM     27  N   UNL     1      -4.536  -8.873  10.140  0.00  0.00    -0.265 NA
ATOM     28  C   UNL     1      -5.232  -8.431  10.174  0.00  0.00    +0.090 C 
ENDBRANCH  21  23
ENDBRANCH  15  18
TORSDOF 4
ENDMDL
MODEL 6
REMARK VINA RESULT:      -6.9     13.982     15.776
REMARK  Name = 
REMARK  4 active torsions:
REMARK  status: ('A' for Active; 'I' for Inactive)
REMARK    1  A    between atoms: O_2  and  C_3
REMARK    2  A    between atoms: C_6  and  C_9
REMARK    3  A    between atoms: C_15  and  C_18
REMARK    4  A    between atoms: C_21  and  C_23
REMARK                            x       y       z     vdW  Elec       q    Type
REMARK                         _______ _______ _______ _____ _____    ______ ____
ROOT
ATOM      9  C   UNL     1      -4.259 -10.367  15.748  0.00  0.00    +0.270 C 
ATOM     10  O   UNL     1      -4.721 -10.425  15.066  0.00  0.00    -0.268 OA
ATOM     11  N   UNL     1      -4.615 -10.205  16.475  0.00  0.00    -0.157 NA
ATOM     12  C   UNL     1      -5.432 -10.101  16.520  0.00  0.00    +0.155 A 
ATOM     13  N   UNL     1      -5.788  -9.940  17.246  0.00  0.00    -0.227 NA
ATOM     14  C   UNL     1      -6.605  -9.836  17.291  0.00  0.00    +0.103 A 
ATOM     15  C   UNL     1      -7.067  -9.894  16.610  0.00  0.00    +0.058 A 
ATOM     16  C   UNL     1      -6.711 -10.056  15.883  0.00  0.00    +0.008 A 
ATOM     17  C   UNL     1      -5.893 -10.160  15.838  0.00  0.00    +0.036 A 
ENDROOT
BRANCH   9   6
ATOM      3  C   UNL     1      -1.807 -10.677  15.613  0.00  0.00    +0.139 A 
ATOM      4  C   UNL     1      -2.188 -10.708  16.345  0.00  0.00    +0.037 A 
ATOM      5  C   UNL     1      -3.005 -10.605  16.390  0.00  0.00    +0.008 A 
ATOM      6  C   UNL     1      -3.442 -10.470  15.703  0.00  0.00    +0.056 A 
ATOM      7  C   UNL     1      -3.062 -10.438  14.971  0.00  0.00    +0.008 A 
ATOM      8  C   UNL     1      -2.245 -10.542  14.926  0.00  0.00    +0.037 A 
BRANCH   3   2
ATOM      1  C   UNL     1      -0.487 -10.134  15.667  0.00  0.00    +0.252 C 
ATOM      2  O   UNL     1      -0.990 -10.780  15.568  0.00  0.00    -0.471 OA
ENDBRANCH   3   2
ENDBRANCH   9   6
BRANCH  15  18
ATOM     18  C   UNL     1      -7.884  -9.791  16.656  0.00  0.00    +0.205 A 
ATOM     19  N   UNL     1      -8.446 -10.391  16.727  0.00  0.00    -0.056 NA
ATOM     20  O   UNL     1      -9.192 -10.040  16.753  0.00  0.00    -0.336 OA
ATOM     21  C   UNL     1      -9.092  -9.223  16.697  0.00  0.00    +0.251 A 
ATOM     22  N   UNL     1      -8.283  -9.069  16.637  0.00  0.00    -0.190 NA
BRANCH  21  23
ATOM     23  C   UNL     1      -9.694  -8.659  16.701  0.00  0.00    +0.138 C 
ATOM     24  C   UNL     1     -10.015  -8.298  17.369  0.00  0.00    +0.027 C 
ATOM     25  C   UNL     1     -10.600  -7.773  17.119  0.00  0.00    +0.019 C 
ATOM     26  C   UNL     1     -10.640  -7.810  16.296  0.00  0.00    +0.073 C 
ATOM     27  N   UNL     1     -10.080  -8.357  16.038  0.00  0.00    -0.265 NA
ATOM     28  C   UNL     1      -9.933  -8.566  15.254  0.00  0.00    +0.090 C 
ENDBRANCH  21  23
ENDBRANCH  15  18
TORSDOF 4
ENDMDL
MODEL 7
REMARK VINA RESULT:      -6.6     17.087     18.992
REMARK  Name = 
REMARK  4 active torsions:
REMARK  status: ('A' for Active; 'I' for Inactive)
REMARK    1  A    between atoms: O_2  and  C_3
REMARK    2  A    between atoms: C_6  and  C_9
REMARK    3  A    between atoms: C_15  and  C_18
REMARK    4  A    between atoms: C_21  and  C_23
REMARK                            x       y       z     vdW  Elec       q    Type
REMARK                         _______ _______ _______ _____ _____    ______ ____
ROOT
ATOM      9  C   UNL     1      -4.120  -9.563  10.272  0.00  0.00    +0.270 C 
ATOM     10  O   UNL     1      -4.145  -9.634   9.450  0.00  0.00    -0.268 OA
ATOM     11  N   UNL     1      -4.761  -9.236  10.677  0.00  0.00    -0.157 NA
ATOM     12  C   UNL     1      -5.425  -8.980  10.261  0.00  0.00    +0.155 A 
ATOM     13  N   UNL     1      -6.065  -8.654  10.666  0.00  0.00    -0.227 NA
ATOM     14  C   UNL     1      -6.730  -8.398  10.250  0.00  0.00    +0.103 A 
ATOM     15  C   UNL     1      -6.755  -8.468   9.428  0.00  0.00    +0.058 A 
ATOM     16  C   UNL     1      -6.114  -8.795   9.023  0.00  0.00    +0.008 A 
ATOM     17  C   UNL     1      -5.450  -9.051   9.439  0.00  0.00    +0.036 A 
ENDROOT
BRANCH   9   6
ATOM      3  C   UNL     1      -2.126 -10.330  11.521  0.00  0.00    +0.139 A 
ATOM      4  C   UNL     1      -2.818 -10.780  11.531  0.00  0.00    +0.037 A 
ATOM      5  C   UNL     1      -3.483 -10.525  11.115  0.00  0.00    +0.008 A 
ATOM      6  C   UNL     1      -3.455  -9.819  10.688  0.00  0.00    +0.056 A 
ATOM      7  C   UNL     1      -2.764  -9.368  10.677  0.00  0.00    +0.008 A 
ATOM      8  C   UNL     1      -2.099  -9.624  11.094  0.00  0.00    +0.037 A 
BRANCH   3   2
ATOM      1  C   UNL     1      -1.495 -10.668  12.758  0.00  0.00    +0.252 C 
ATOM      2  O   UNL     1      -1.461 -10.586  11.937  0.00  0.00    -0.471 OA
ENDBRANCH   3   2
ENDBRANCH   9   6
BRANCH  15  18
ATOM     18  C   UNL     1      -7.420  -8.213   9.012  0.00  0.00    +0.205 A 
ATOM     19  N   UNL     1      -7.811  -8.631   8.419  0.00  0.00    -0.056 NA
ATOM     20  O   UNL     1      -8.443  -8.170   8.156  0.00  0.00    -0.336 OA
ATOM     21  C   UNL     1      -8.443  -7.467   8.587  0.00  0.00    +0.251 A 
ATOM     22  N   UNL     1      -7.810  -7.493   9.116  0.00  0.00    -0.190 NA
BRANCH  21  23
ATOM     23  C   UNL     1      -8.980  -6.846   8.504  0.00  0.00    +0.138 C 
ATOM     24  C   UNL     1      -8.833  -6.125   8.132  0.00  0.00    +0.027 C 
ATOM     25  C   UNL     1      -9.520  -5.671   8.176  0.00  0.00    +0.019 C 
ATOM     26  C   UNL     1     -10.092  -6.112   8.576  0.00  0.00    +0.073 C 
ATOM     27  N   UNL     1      -9.758  -6.838   8.778  0.00  0.00    -0.265 NA
ATOM     28  C   UNL     1     -10.135  -7.449   9.184  0.00  0.00    +0.090 C 
ENDBRANCH  21  23
ENDBRANCH  15  18
TORSDOF 4
ENDMDL
