MODEL 1
REMARK VINA RESULT:     -11.1      0.000      0.000
REMARK  Name = 
REMARK  8 active torsions:
REMARK  status: ('A' for Active; 'I' for Inactive)
REMARK    1  A    between atoms: O_2  and  C_3
REMARK    2  A    between atoms: C_3  and  C_4
REMARK    3  A    between atoms: C_9  and  C_11
REMARK    4  A    between atoms: C_11  and  C_12
REMARK    5  A    between atoms: C_14  and  C_15
REMARK    6  A    between atoms: C_15  and  N_16
REMARK    7  A    between atoms: N_16  and  S_17
REMARK    8  A    between atoms: S_17  and  C_20
REMARK                            x       y       z     vdW  Elec       q    Type
REMARK                         _______ _______ _______ _____ _____    ______ ____
ROOT
ATOM     12  C   UNL     1      -4.005   3.030  25.255  0.00  0.00    +0.157 C 
ATOM     13  O   UNL     1      -3.779   2.257  25.074  0.00  0.00    -0.351 OA
ATOM     14  C   UNL     1      -4.464   1.807  24.980  0.00  0.00    +0.167 C 
ATOM     27  C   UNL     1      -5.114   2.301  25.103  0.00  0.00    +0.213 C 
ATOM     28  O   UNL     1      -5.907   2.078  25.063  0.00  0.00    -0.218 OA
ATOM     29  C   UNL     1      -4.830   3.057  25.273  0.00  0.00    +0.212 C 
ATOM     30  O   UNL     1      -5.290   3.723  25.433  0.00  0.00    -0.218 OA
ENDROOT
BRANCH  12  11
ATOM     11  C   UNL     1      -3.496   3.665  25.394  0.00  0.00    +0.117 C 
BRANCH  11   9
ATOM      4  C   UNL     1      -1.318   4.014  25.480  0.00  0.00    +0.105 C 
ATOM      5  C   UNL     1      -0.955   4.685  25.167  0.00  0.00    +0.024 C 
ATOM      6  C   UNL     1      -1.541   5.163  24.839  0.00  0.00    +0.023 C 
ATOM      7  C   UNL     1      -2.268   4.787  24.948  0.00  0.00    +0.093 C 
ATOM      8  N   UNL     1      -2.130   4.077  25.345  0.00  0.00    -0.279 N 
ATOM      9  C   UNL     1      -2.702   3.526  25.567  0.00  0.00    +0.228 C 
ATOM     10  O   UNL     1      -2.481   2.837  25.962  0.00  0.00    -0.275 OA
BRANCH   4   3
ATOM      3  C   UNL     1      -0.937   3.389  25.861  0.00  0.00    +0.162 C 
BRANCH   3   2
ATOM      1  C   UNL     1       0.248   2.632  26.112  0.00  0.00    +0.174 C 
ATOM      2  O   UNL     1      -0.126   3.277  25.760  0.00  0.00    -0.349 OA
ENDBRANCH   3   2
ENDBRANCH   4   3
ENDBRANCH  11   9
ENDBRANCH  12  11
BRANCH  14  15
ATOM     15  C   UNL     1      -4.494   1.003  24.795  0.00  0.00    +0.148 C 
BRANCH  15  16
ATOM     16  N   UNL     1      -3.797   0.588  24.648  0.00  0.00    -0.075 NA
BRANCH  16  17
ATOM     17  S   UNL     1      -3.816  -0.233  24.565  0.00  0.00    +0.077 S 
ATOM     18  O   UNL     1      -3.844  -0.315  25.386  0.00  0.00    -0.152 OA
ATOM     19  O   UNL     1      -3.788  -0.151  23.744  0.00  0.00    -0.152 OA
BRANCH  17  20
ATOM     20  C   UNL     1      -3.835  -1.053  24.482  0.00  0.00    +0.124 A 
ATOM     21  C   UNL     1      -3.421  -1.531  25.012  0.00  0.00    +0.021 A 
ATOM     22  C   UNL     1      -3.440  -2.352  24.928  0.00  0.00    +0.013 A 
ATOM     23  C   UNL     1      -3.873  -2.695  24.315  0.00  0.00    +0.058 A 
ATOM     24 CL   UNL     1      -3.891  -3.515  24.232  0.00  0.00    -0.082 Cl
ATOM     25  C   UNL     1      -4.286  -2.216  23.785  0.00  0.00    +0.013 A 
ATOM     26  C   UNL     1      -4.267  -1.396  23.868  0.00  0.00    +0.021 A 
ENDBRANCH  17  20
ENDBRANCH  16  17
ENDBRANCH  15  16
ENDBRANCH  14  15
TORSDOF 8
ENDMDL
MODEL 2
REMARK VINA RESULT:     -10.0      1.583      3.029
REMARK  Name = 
REMARK  8 active torsions:
REMARK  status: ('A' for Active; 'I' for Inactive)
REMARK    1  A    between atoms: O_2  and  C_3
REMARK    2  A    between atoms: C_3  and  C_4
REMARK    3  A    between atoms: C_9  and  C_11
REMARK    4  A    between atoms: C_11  and  C_12
REMARK    5  A    between atoms: C_14  and  C_15
REMARK    6  A    between atoms: C_15  and  N_16
REMARK    7  A    between atoms: N_16  and  S_17
REMARK    8  A    between atoms: S_17  and  C_20
REMARK                            x       y       z     vdW  Elec       q    Type
REMARK                         _______ _______ _______ _____ _____    ______ ____
ROOT
ATOM     12  C   UNL     1      -0.371   1.997  24.796  0.00  0.00    +0.157 C 
ATOM     13  O   UNL     1      -0.988   1.449  24.840  0.00  0.00    -0.351 OA
ATOM     14  C   UNL     1      -0.748   0.763  24.450  0.00  0.00    +0.167 C 
ATOM     27  C   UNL     1       0.017   0.886  24.165  0.00  0.00    +0.213 C 
ATOM     28  O   UNL     1       0.469   0.342  23.740  0.00  0.00    -0.218 OA
ATOM     29  C   UNL     1       0.250   1.648  24.378  0.00  0.00    +0.212 C 
ATOM     30  O   UNL     1       0.975   2.000  24.205  0.00  0.00    -0.218 OA
ENDROOT
BRANCH  12  11
ATOM     11  C   UNL     1      -0.375   2.758  25.113  0.00  0.00    +0.117 C 
BRANCH  11   9
ATOM      4  C   UNL     1      -1.899   4.301  25.529  0.00  0.00    +0.105 C 
ATOM      5  C   UNL     1      -1.808   5.094  25.320  0.00  0.00    +0.024 C 
ATOM      6  C   UNL     1      -1.076   5.178  24.949  0.00  0.00    +0.023 C 
ATOM      7  C   UNL     1      -0.714   4.437  24.928  0.00  0.00    +0.093 C 
ATOM      8  N   UNL     1      -1.223   3.895  25.287  0.00  0.00    -0.279 N 
ATOM      9  C   UNL     1      -1.080   3.089  25.385  0.00  0.00    +0.228 C 
ATOM     10  O   UNL     1      -1.643   2.612  25.755  0.00  0.00    -0.275 OA
BRANCH   4   3
ATOM      3  C   UNL     1      -2.551   3.972  25.912  0.00  0.00    +0.162 C 
BRANCH   3   2
ATOM      1  C   UNL     1      -3.955   4.014  26.175  0.00  0.00    +0.174 C 
ATOM      2  O   UNL     1      -3.254   4.399  25.970  0.00  0.00    -0.349 OA
ENDBRANCH   3   2
ENDBRANCH   4   3
ENDBRANCH  11   9
ENDBRANCH  12  11
BRANCH  14  15
ATOM     15  C   UNL     1      -1.194   0.075  24.361  0.00  0.00    +0.148 C 
BRANCH  15  16
ATOM     16  N   UNL     1      -1.852  -0.055  24.841  0.00  0.00    -0.075 NA
BRANCH  16  17
ATOM     17  S   UNL     1      -2.372  -0.673  24.671  0.00  0.00    +0.077 S 
ATOM     18  O   UNL     1      -2.818  -0.167  24.195  0.00  0.00    -0.152 OA
ATOM     19  O   UNL     1      -1.926  -1.179  25.147  0.00  0.00    -0.152 OA
BRANCH  17  20
ATOM     20  C   UNL     1      -2.890  -1.291  24.501  0.00  0.00    +0.124 A 
ATOM     21  C   UNL     1      -3.610  -1.136  24.129  0.00  0.00    +0.021 A 
ATOM     22  C   UNL     1      -4.130  -1.754  23.960  0.00  0.00    +0.013 A 
ATOM     23  C   UNL     1      -3.929  -2.529  24.162  0.00  0.00    +0.058 A 
ATOM     24 CL   UNL     1      -4.447  -3.146  23.992  0.00  0.00    -0.082 Cl
ATOM     25  C   UNL     1      -3.209  -2.684  24.533  0.00  0.00    +0.013 A 
ATOM     26  C   UNL     1      -2.690  -2.066  24.703  0.00  0.00    +0.021 A 
ENDBRANCH  17  20
ENDBRANCH  16  17
ENDBRANCH  15  16
ENDBRANCH  14  15
TORSDOF 8
ENDMDL
MODEL 3
REMARK VINA RESULT:     -10.0      2.225      5.272
REMARK  Name = 
REMARK  8 active torsions:
REMARK  status: ('A' for Active; 'I' for Inactive)
REMARK    1  A    between atoms: O_2  and  C_3
REMARK    2  A    between atoms: C_3  and  C_4
REMARK    3  A    between atoms: C_9  and  C_11
REMARK    4  A    between atoms: C_11  and  C_12
REMARK    5  A    between atoms: C_14  and  C_15
REMARK    6  A    between atoms: C_15  and  N_16
REMARK    7  A    between atoms: N_16  and  S_17
REMARK    8  A    between atoms: S_17  and  C_20
REMARK                            x       y       z     vdW  Elec       q    Type
REMARK                         _______ _______ _______ _____ _____    ______ ____
ROOT
ATOM     12  C   UNL     1      -4.548   0.657  24.857  0.00  0.00    +0.157 C 
ATOM     13  O   UNL     1      -3.881   1.140  24.810  0.00  0.00    -0.351 OA
ATOM     14  C   UNL     1      -4.125   1.922  24.909  0.00  0.00    +0.167 C 
ATOM     27  C   UNL     1      -4.943   1.922  25.018  0.00  0.00    +0.213 C 
ATOM     28  O   UNL     1      -5.416   2.587  25.138  0.00  0.00    -0.218 OA
ATOM     29  C   UNL     1      -5.205   1.140  24.985  0.00  0.00    +0.212 C 
ATOM     30  O   UNL     1      -5.985   0.886  25.067  0.00  0.00    -0.218 OA
ENDROOT
BRANCH  12  11
ATOM     11  C   UNL     1      -4.557  -0.166  24.787  0.00  0.00    +0.117 C 
BRANCH  11   9
ATOM      4  C   UNL     1      -3.116  -1.829  24.607  0.00  0.00    +0.105 C 
ATOM      5  C   UNL     1      -3.266  -2.511  24.168  0.00  0.00    +0.024 C 
ATOM      6  C   UNL     1      -4.018  -2.441  23.835  0.00  0.00    +0.023 C 
ATOM      7  C   UNL     1      -4.333  -1.715  24.068  0.00  0.00    +0.093 C 
ATOM      8  N   UNL     1      -3.776  -1.337  24.545  0.00  0.00    -0.279 N 
ATOM      9  C   UNL     1      -3.863  -0.597  24.899  0.00  0.00    +0.228 C 
ATOM     10  O   UNL     1      -3.256  -0.287  25.364  0.00  0.00    -0.275 OA
BRANCH   4   3
ATOM      3  C   UNL     1      -2.429  -1.667  25.033  0.00  0.00    +0.162 C 
BRANCH   3   2
ATOM      1  C   UNL     1      -1.027  -1.877  25.214  0.00  0.00    +0.174 C 
ATOM      2  O   UNL     1      -1.755  -2.129  24.918  0.00  0.00    -0.349 OA
ENDBRANCH   3   2
ENDBRANCH   4   3
ENDBRANCH  11   9
ENDBRANCH  12  11
BRANCH  14  15
ATOM     15  C   UNL     1      -3.637   2.587  24.902  0.00  0.00    +0.148 C 
BRANCH  15  16
ATOM     16  N   UNL     1      -2.837   2.513  25.087  0.00  0.00    -0.075 NA
BRANCH  16  17
ATOM     17  S   UNL     1      -2.340   3.171  25.041  0.00  0.00    +0.077 S 
ATOM     18  O   UNL     1      -2.352   3.239  25.863  0.00  0.00    -0.152 OA
ATOM     19  O   UNL     1      -2.328   3.103  24.218  0.00  0.00    -0.152 OA
BRANCH  17  20
ATOM     20  C   UNL     1      -1.844   3.828  24.994  0.00  0.00    +0.124 A 
ATOM     21  C   UNL     1      -1.062   3.738  24.745  0.00  0.00    +0.021 A 
ATOM     22  C   UNL     1      -0.566   4.396  24.698  0.00  0.00    +0.013 A 
ATOM     23  C   UNL     1      -0.851   5.143  24.900  0.00  0.00    +0.058 A 
ATOM     24 CL   UNL     1      -0.355   5.800  24.853  0.00  0.00    -0.082 Cl
ATOM     25  C   UNL     1      -1.633   5.233  25.148  0.00  0.00    +0.013 A 
ATOM     26  C   UNL     1      -2.129   4.576  25.195  0.00  0.00    +0.021 A 
ENDBRANCH  17  20
ENDBRANCH  16  17
ENDBRANCH  15  16
ENDBRANCH  14  15
TORSDOF 8
ENDMDL
MODEL 4
REMARK VINA RESULT:      -8.8      2.832      6.221
REMARK  Name = 
REMARK  8 active torsions:
REMARK  status: ('A' for Active; 'I' for Inactive)
REMARK    1  A    between atoms: O_2  and  C_3
REMARK    2  A    between atoms: C_3  and  C_4
REMARK    3  A    between atoms: C_9  and  C_11
REMARK    4  A    between atoms: C_11  and  C_12
REMARK    5  A    between atoms: C_14  and  C_15
REMARK    6  A    between atoms: C_15  and  N_16
REMARK    7  A    between atoms: N_16  and  S_17
REMARK    8  A    between atoms: S_17  and  C_20
REMARK                            x       y       z     vdW  Elec       q    Type
REMARK                         _______ _______ _______ _____ _____    ______ ____
ROOT
ATOM     12  C   UNL     1      -0.594  -0.349  24.288  0.00  0.00    +0.157 C 
ATOM     13  O   UNL     1      -0.814   0.396  24.569  0.00  0.00    -0.351 OA
ATOM     14  C   UNL     1      -0.244   0.939  24.323  0.00  0.00    +0.167 C 
ATOM     27  C   UNL     1       0.328   0.530  23.890  0.00  0.00    +0.213 C 
ATOM     28  O   UNL     1       0.998   0.860  23.540  0.00  0.00    -0.218 OA
ATOM     29  C   UNL     1       0.111  -0.265  23.868  0.00  0.00    +0.212 C 
ATOM     30  O   UNL     1       0.527  -0.871  23.493  0.00  0.00    -0.218 OA
ENDROOT
BRANCH  12  11
ATOM     11  C   UNL     1      -1.008  -1.053  24.406  0.00  0.00    +0.117 C 
BRANCH  11   9
ATOM      4  C   UNL     1      -3.065  -1.854  24.455  0.00  0.00    +0.105 C 
ATOM      5  C   UNL     1      -3.237  -2.652  24.572  0.00  0.00    +0.024 C 
ATOM      6  C   UNL     1      -2.523  -3.057  24.660  0.00  0.00    +0.023 C 
ATOM      7  C   UNL     1      -1.910  -2.508  24.598  0.00  0.00    +0.093 C 
ATOM      8  N   UNL     1      -2.245  -1.765  24.471  0.00  0.00    -0.279 N 
ATOM      9  C   UNL     1      -1.833  -1.057  24.377  0.00  0.00    +0.228 C 
ATOM     10  O   UNL     1      -2.244  -0.353  24.253  0.00  0.00    -0.275 OA
BRANCH   4   3
ATOM      3  C   UNL     1      -3.617  -1.251  24.343  0.00  0.00    +0.162 C 
BRANCH   3   2
ATOM      1  C   UNL     1      -4.975  -0.821  24.245  0.00  0.00    +0.174 C 
ATOM      2  O   UNL     1      -4.421  -1.429  24.307  0.00  0.00    -0.349 OA
ENDBRANCH   3   2
ENDBRANCH   4   3
ENDBRANCH  11   9
ENDBRANCH  12  11
BRANCH  14  15
ATOM     15  C   UNL     1      -0.245   1.749  24.482  0.00  0.00    +0.148 C 
BRANCH  15  16
ATOM     16  N   UNL     1      -0.764   2.057  25.043  0.00  0.00    -0.075 NA
BRANCH  16  17
ATOM     17  S   UNL     1      -0.926   2.867  25.055  0.00  0.00    +0.077 S 
ATOM     18  O   UNL     1      -1.453   2.771  24.427  0.00  0.00    -0.152 OA
ATOM     19  O   UNL     1      -0.398   2.963  25.682  0.00  0.00    -0.152 OA
BRANCH  17  20
ATOM     20  C   UNL     1      -1.086   3.675  25.066  0.00  0.00    +0.124 A 
ATOM     21  C   UNL     1      -1.764   3.956  25.445  0.00  0.00    +0.021 A 
ATOM     22  C   UNL     1      -1.924   4.766  25.456  0.00  0.00    +0.013 A 
ATOM     23  C   UNL     1      -1.408   5.294  25.089  0.00  0.00    +0.058 A 
ATOM     24 CL   UNL     1      -1.569   6.103  25.101  0.00  0.00    -0.082 Cl
ATOM     25  C   UNL     1      -0.731   5.013  24.711  0.00  0.00    +0.013 A 
ATOM     26  C   UNL     1      -0.570   4.205  24.699  0.00  0.00    +0.021 A 
ENDBRANCH  17  20
ENDBRANCH  16  17
ENDBRANCH  15  16
ENDBRANCH  14  15
TORSDOF 8
ENDMDL
MODEL 5
REMARK VINA RESULT:      -8.6      2.518      4.352
REMARK  Name = 
REMARK  8 active torsions:
REMARK  status: ('A' for Active; 'I' for Inactive)
REMARK    1  A    between atoms: O_2  and  C_3
REMARK    2  A    between atoms: C_3  and  C_4
REMARK    3  A    between atoms: C_9  and  C_11
REMARK    4  A    between atoms: C_11  and  C_12
REMARK    5  A    between atoms: C_14  and  C_15
REMARK    6  A    between atoms: C_15  and  N_16
REMARK    7  A    between atoms: N_16  and  S_17
REMARK    8  A    between atoms: S_17  and  C_20
REMARK                            x       y       z     vdW  Elec       q    Type
REMARK                         _______ _______ _______ _____ _____    ______ ____
ROOT
ATOM     12  C   UNL     1      -1.862  -1.142  24.788  0.00  0.00    +0.157 C 
ATOM     13  O   UNL     1      -2.402  -0.525  24.880  0.00  0.00    -0.351 OA
ATOM     14  C   UNL     1      -3.137  -0.853  25.058  0.00  0.00    +0.167 C 
ATOM     27  C   UNL     1      -3.052  -1.674  25.076  0.00  0.00    +0.213 C 
ATOM     28  O   UNL     1      -3.650  -2.219  25.234  0.00  0.00    -0.218 OA
ATOM     29  C   UNL     1      -2.264  -1.853  24.909  0.00  0.00    +0.212 C 
ATOM     30  O   UNL     1      -1.936  -2.608  24.870  0.00  0.00    -0.218 OA
ENDROOT
BRANCH  12  11
ATOM     11  C   UNL     1      -1.061  -1.064  24.606  0.00  0.00    +0.117 C 
BRANCH  11   9
ATOM      4  C   UNL     1       0.263   0.593  23.989  0.00  0.00    +0.105 C 
ATOM      5  C   UNL     1       0.781   0.543  23.349  0.00  0.00    +0.024 C 
ATOM      6  C   UNL     1       0.702  -0.207  23.014  0.00  0.00    +0.023 C 
ATOM      7  C   UNL     1       0.135  -0.621  23.447  0.00  0.00    +0.093 C 
ATOM      8  N   UNL     1      -0.137  -0.127  24.050  0.00  0.00    -0.279 N 
ATOM      9  C   UNL     1      -0.707  -0.318  24.614  0.00  0.00    +0.228 C 
ATOM     10  O   UNL     1      -0.925   0.235  25.186  0.00  0.00    -0.275 OA
BRANCH   4   3
ATOM      3  C   UNL     1       0.161   1.247  24.482  0.00  0.00    +0.162 C 
BRANCH   3   2
ATOM      1  C   UNL     1       0.270   2.658  24.676  0.00  0.00    +0.174 C 
ATOM      2  O   UNL     1       0.500   1.971  24.280  0.00  0.00    -0.349 OA
ENDBRANCH   3   2
ENDBRANCH   4   3
ENDBRANCH  11   9
ENDBRANCH  12  11
BRANCH  14  15
ATOM     15  C   UNL     1      -3.835  -0.434  25.195  0.00  0.00    +0.148 C 
BRANCH  15  16
ATOM     16  N   UNL     1      -4.131   0.073  24.616  0.00  0.00    -0.075 NA
BRANCH  16  17
ATOM     17  S   UNL     1      -4.484   0.786  24.834  0.00  0.00    +0.077 S 
ATOM     18  O   UNL     1      -4.800   0.425  25.505  0.00  0.00    -0.152 OA
ATOM     19  O   UNL     1      -4.168   1.148  24.162  0.00  0.00    -0.152 OA
BRANCH  17  20
ATOM     20  C   UNL     1      -4.836   1.500  25.051  0.00  0.00    +0.124 A 
ATOM     21  C   UNL     1      -4.392   2.195  25.053  0.00  0.00    +0.021 A 
ATOM     22  C   UNL     1      -4.745   2.909  25.271  0.00  0.00    +0.013 A 
ATOM     23  C   UNL     1      -5.541   2.927  25.487  0.00  0.00    +0.058 A 
ATOM     24 CL   UNL     1      -5.893   3.640  25.704  0.00  0.00    -0.082 Cl
ATOM     25  C   UNL     1      -5.984   2.231  25.485  0.00  0.00    +0.013 A 
ATOM     26  C   UNL     1      -5.632   1.518  25.267  0.00  0.00    +0.021 A 
ENDBRANCH  17  20
ENDBRANCH  16  17
ENDBRANCH  15  16
ENDBRANCH  14  15
TORSDOF 8
ENDMDL
MODEL 6
REMARK VINA RESULT:      -8.1      3.351      5.010
REMARK  Name = 
REMARK  8 active torsions:
REMARK  status: ('A' for Active; 'I' for Inactive)
REMARK    1  A    between atoms: O_2  and  C_3
REMARK    2  A    between atoms: C_3  and  C_4
REMARK    3  A    between atoms: C_9  and  C_11
REMARK    4  A    between atoms: C_11  and  C_12
REMARK    5  A    between atoms: C_14  and  C_15
REMARK    6  A    between atoms: C_15  and  N_16
REMARK    7  A    between atoms: N_16  and  S_17
REMARK    8  A    between atoms: S_17  and  C_20
REMARK                            x       y       z     vdW  Elec       q    Type
REMARK                         _______ _______ _______ _____ _____    ______ ____
ROOT
ATOM     12  C   UNL     1      -2.244  -0.037  24.798  0.00  0.00    +0.157 C 
ATOM     13  O   UNL     1      -1.588   0.174  24.343  0.00  0.00    -0.351 OA
ATOM     14  C   UNL     1      -0.975  -0.348  24.522  0.00  0.00    +0.167 C 
ATOM     27  C   UNL     1      -1.251  -0.882  25.087  0.00  0.00    +0.213 C 
ATOM     28  O   UNL     1      -0.819  -1.499  25.422  0.00  0.00    -0.218 OA
ATOM     29  C   UNL     1      -2.035  -0.690  25.258  0.00  0.00    +0.212 C 
ATOM     30  O   UNL     1      -2.525  -1.081  25.794  0.00  0.00    -0.218 OA
ENDROOT
BRANCH  12  11
ATOM     11  C   UNL     1      -2.979   0.339  24.794  0.00  0.00    +0.117 C 
BRANCH  11   9
ATOM      4  C   UNL     1      -3.886   2.344  24.976  0.00  0.00    +0.105 C 
ATOM      5  C   UNL     1      -4.688   2.490  24.854  0.00  0.00    +0.024 C 
ATOM      6  C   UNL     1      -5.052   1.774  24.662  0.00  0.00    +0.023 C 
ATOM      7  C   UNL     1      -4.474   1.185  24.666  0.00  0.00    +0.093 C 
ATOM      8  N   UNL     1      -3.753   1.537  24.860  0.00  0.00    -0.279 N 
ATOM      9  C   UNL     1      -3.027   1.152  24.926  0.00  0.00    +0.228 C 
ATOM     10  O   UNL     1      -2.349   1.578  25.125  0.00  0.00    -0.275 OA
BRANCH   4   3
ATOM      3  C   UNL     1      -3.316   2.905  25.178  0.00  0.00    +0.162 C 
BRANCH   3   2
ATOM      1  C   UNL     1      -2.981   4.227  25.604  0.00  0.00    +0.174 C 
ATOM      2  O   UNL     1      -3.542   3.680  25.346  0.00  0.00    -0.349 OA
ENDBRANCH   3   2
ENDBRANCH   4   3
ENDBRANCH  11   9
ENDBRANCH  12  11
BRANCH  14  15
ATOM     15  C   UNL     1      -0.218  -0.338  24.193  0.00  0.00    +0.148 C 
BRANCH  15  16
ATOM     16  N   UNL     1      -0.043   0.182  23.577  0.00  0.00    -0.075 NA
BRANCH  16  17
ATOM     17  S   UNL     1       0.735   0.263  23.314  0.00  0.00    +0.077 S 
ATOM     18  O   UNL     1       0.774   1.011  23.661  0.00  0.00    -0.152 OA
ATOM     19  O   UNL     1       0.696  -0.485  22.968  0.00  0.00    -0.152 OA
BRANCH  17  20
ATOM     20  C   UNL     1       1.512   0.344  23.052  0.00  0.00    +0.124 A 
ATOM     21  C   UNL     1       2.008   0.908  23.395  0.00  0.00    +0.021 A 
ATOM     22  C   UNL     1       2.786   0.989  23.132  0.00  0.00    +0.013 A 
ATOM     23  C   UNL     1       3.069   0.505  22.526  0.00  0.00    +0.058 A 
ATOM     24 CL   UNL     1       3.846   0.586  22.264  0.00  0.00    -0.082 Cl
ATOM     25  C   UNL     1       2.573  -0.059  22.183  0.00  0.00    +0.013 A 
ATOM     26  C   UNL     1       1.796  -0.139  22.446  0.00  0.00    +0.021 A 
ENDBRANCH  17  20
ENDBRANCH  16  17
ENDBRANCH  15  16
ENDBRANCH  14  15
TORSDOF 8
ENDMDL
MODEL 7
REMARK VINA RESULT:      -8.1      2.448      4.357
REMARK  Name = 
REMARK  8 active torsions:
REMARK  status: ('A' for Active; 'I' for Inactive)
REMARK    1  A    between atoms: O_2  and  C_3
REMARK    2  A    between atoms: C_3  and  C_4
REMARK    3  A    between atoms: C_9  and  C_11
REMARK    4  A    between atoms: C_11  and  C_12
REMARK    5  A    between atoms: C_14  and  C_15
REMARK    6  A    between atoms: C_15  and  N_16
REMARK    7  A    between atoms: N_16  and  S_17
REMARK    8  A    between atoms: S_17  and  C_20
REMARK                            x       y       z     vdW  Elec       q    Type
REMARK                         _______ _______ _______ _____ _____    ______ ____
ROOT
ATOM     12  C   UNL     1      -0.590   2.627  24.711  0.00  0.00    +0.157 C 
ATOM     13  O   UNL     1      -1.410   2.536  24.707  0.00  0.00    -0.351 OA
ATOM     14  C   UNL     1      -1.747   3.254  24.932  0.00  0.00    +0.167 C 
ATOM     27  C   UNL     1      -1.136   3.789  25.075  0.00  0.00    +0.213 C 
ATOM     28  O   UNL     1      -1.224   4.574  25.312  0.00  0.00    -0.218 OA
ATOM     29  C   UNL     1      -0.420   3.402  24.938  0.00  0.00    +0.212 C 
ATOM     30  O   UNL     1       0.332   3.731  25.015  0.00  0.00    -0.218 OA
ENDROOT
BRANCH  12  11
ATOM     11  C   UNL     1      -0.036   2.045  24.521  0.00  0.00    +0.117 C 
BRANCH  11   9
ATOM      4  C   UNL     1      -0.076  -0.132  24.156  0.00  0.00    +0.105 C 
ATOM      5  C   UNL     1       0.299  -0.490  23.515  0.00  0.00    +0.024 C 
ATOM      6  C   UNL     1       0.668   0.101  23.072  0.00  0.00    +0.023 C 
ATOM      7  C   UNL     1       0.519   0.824  23.439  0.00  0.00    +0.093 C 
ATOM      8  N   UNL     1       0.059   0.681  24.109  0.00  0.00    -0.279 N 
ATOM      9  C   UNL     1      -0.217   1.249  24.639  0.00  0.00    +0.228 C 
ATOM     10  O   UNL     1      -0.673   1.022  25.288  0.00  0.00    -0.275 OA
BRANCH   4   3
ATOM      3  C   UNL     1      -0.512  -0.519  24.741  0.00  0.00    +0.162 C 
BRANCH   3   2
ATOM      1  C   UNL     1      -1.095  -1.718  25.252  0.00  0.00    +0.174 C 
ATOM      2  O   UNL     1      -0.584  -1.340  24.726  0.00  0.00    -0.349 OA
ENDBRANCH   3   2
ENDBRANCH   4   3
ENDBRANCH  11   9
ENDBRANCH  12  11
BRANCH  14  15
ATOM     15  C   UNL     1      -2.555   3.410  25.001  0.00  0.00    +0.148 C 
BRANCH  15  16
ATOM     16  N   UNL     1      -3.083   3.103  24.447  0.00  0.00    -0.075 NA
BRANCH  16  17
ATOM     17  S   UNL     1      -3.837   2.864  24.684  0.00  0.00    +0.077 S 
ATOM     18  O   UNL     1      -3.678   2.100  24.416  0.00  0.00    -0.152 OA
ATOM     19  O   UNL     1      -3.995   3.629  24.952  0.00  0.00    -0.152 OA
BRANCH  17  20
ATOM     20  C   UNL     1      -4.589   2.626  24.920  0.00  0.00    +0.124 A 
ATOM     21  C   UNL     1      -5.022   3.088  25.450  0.00  0.00    +0.021 A 
ATOM     22  C   UNL     1      -5.775   2.849  25.687  0.00  0.00    +0.013 A 
ATOM     23  C   UNL     1      -6.097   2.148  25.394  0.00  0.00    +0.058 A 
ATOM     24 CL   UNL     1      -6.850   1.910  25.631  0.00  0.00    -0.082 Cl
ATOM     25  C   UNL     1      -5.665   1.686  24.864  0.00  0.00    +0.013 A 
ATOM     26  C   UNL     1      -4.912   1.924  24.628  0.00  0.00    +0.021 A 
ENDBRANCH  17  20
ENDBRANCH  16  17
ENDBRANCH  15  16
ENDBRANCH  14  15
TORSDOF 8
ENDMDL
MODEL 8
REMARK VINA RESULT:      -8.0      2.569      5.291
REMARK  Name = 
REMARK  8 active torsions:
REMARK  status: ('A' for Active; 'I' for Inactive)
REMARK    1  A    between atoms: O_2  and  C_3
REMARK    2  A    between atoms: C_3  and  C_4
REMARK    3  A    between atoms: C_9  and  C_11
REMARK    4  A    between atoms: C_11  and  C_12
REMARK    5  A    between atoms: C_14  and  C_15
REMARK    6  A    between atoms: C_15  and  N_16
REMARK    7  A    between atoms: N_16  and  S_17
REMARK    8  A    between atoms: S_17  and  C_20
REMARK                            x       y       z     vdW  Elec       q    Type
REMARK                         _______ _______ _______ _____ _____    ______ ____
ROOT
ATOM     12  C   UNL     1      -0.747   0.826  24.301  0.00  0.00    +0.157 C 
ATOM     13  O   UNL     1      -1.506   1.111  24.456  0.00  0.00    -0.351 OA
ATOM     14  C   UNL     1      -1.478   1.935  24.438  0.00  0.00    +0.167 C 
ATOM     27  C   UNL     1      -0.701   2.160  24.271  0.00  0.00    +0.213 C 
ATOM     28  O   UNL     1      -0.426   2.934  24.202  0.00  0.00    -0.218 OA
ATOM     29  C   UNL     1      -0.250   1.475  24.187  0.00  0.00    +0.212 C 
ATOM     30  O   UNL     1       0.557   1.444  24.018  0.00  0.00    -0.218 OA
ENDROOT
BRANCH  12  11
ATOM     11  C   UNL     1      -0.523   0.032  24.266  0.00  0.00    +0.117 C 
BRANCH  11   9
ATOM      4  C   UNL     1      -1.451  -1.911  24.754  0.00  0.00    +0.105 C 
ATOM      5  C   UNL     1      -1.062  -2.505  25.173  0.00  0.00    +0.024 C 
ATOM      6  C   UNL     1      -0.305  -2.234  25.358  0.00  0.00    +0.023 C 
ATOM      7  C   UNL     1      -0.226  -1.472  25.052  0.00  0.00    +0.093 C 
ATOM      8  N   UNL     1      -0.935  -1.272  24.678  0.00  0.00    -0.279 N 
ATOM      9  C   UNL     1      -1.098  -0.559  24.297  0.00  0.00    +0.228 C 
ATOM     10  O   UNL     1      -1.835  -0.438  23.946  0.00  0.00    -0.275 OA
BRANCH   4   3
ATOM      3  C   UNL     1      -2.222  -1.949  24.460  0.00  0.00    +0.162 C 
BRANCH   3   2
ATOM      1  C   UNL     1      -3.479  -2.620  24.372  0.00  0.00    +0.174 C 
ATOM      2  O   UNL     1      -2.722  -2.561  24.694  0.00  0.00    -0.349 OA
ENDBRANCH   3   2
ENDBRANCH   4   3
ENDBRANCH  11   9
ENDBRANCH  12  11
BRANCH  14  15
ATOM     15  C   UNL     1      -2.114   2.444  24.564  0.00  0.00    +0.148 C 
BRANCH  15  16
ATOM     16  N   UNL     1      -2.874   2.220  24.332  0.00  0.00    -0.075 NA
BRANCH  16  17
ATOM     17  S   UNL     1      -3.530   2.631  24.618  0.00  0.00    +0.077 S 
ATOM     18  O   UNL     1      -3.381   2.342  25.377  0.00  0.00    -0.152 OA
ATOM     19  O   UNL     1      -3.679   2.920  23.859  0.00  0.00    -0.152 OA
BRANCH  17  20
ATOM     20  C   UNL     1      -4.186   3.042  24.903  0.00  0.00    +0.124 A 
ATOM     21  C   UNL     1      -4.149   3.860  25.003  0.00  0.00    +0.021 A 
ATOM     22  C   UNL     1      -4.806   4.271  25.288  0.00  0.00    +0.013 A 
ATOM     23  C   UNL     1      -5.499   3.863  25.474  0.00  0.00    +0.058 A 
ATOM     24 CL   UNL     1      -6.154   4.274  25.759  0.00  0.00    -0.082 Cl
ATOM     25  C   UNL     1      -5.535   3.045  25.374  0.00  0.00    +0.013 A 
ATOM     26  C   UNL     1      -4.879   2.635  25.089  0.00  0.00    +0.021 A 
ENDBRANCH  17  20
ENDBRANCH  16  17
ENDBRANCH  15  16
ENDBRANCH  14  15
TORSDOF 8
ENDMDL
MODEL 9
REMARK VINA RESULT:      -7.4      2.499      4.481
REMARK  Name = 
REMARK  8 active torsions:
REMARK  status: ('A' for Active; 'I' for Inactive)
REMARK    1  A    between atoms: O_2  and  C_3
REMARK    2  A    between atoms: C_3  and  C_4
REMARK    3  A    between atoms: C_9  and  C_11
REMARK    4  A    between atoms: C_11  and  C_12
REMARK    5  A    between atoms: C_14  and  C_15
REMARK    6  A    between atoms: C_15  and  N_16
REMARK    7  A    between atoms: N_16  and  S_17
REMARK    8  A    between atoms: S_17  and  C_20
REMARK                            x       y       z     vdW  Elec       q    Type
REMARK                         _______ _______ _______ _____ _____    ______ ____
ROOT
ATOM     12  C   UNL     1      -2.309   3.840  25.184  0.00  0.00    +0.157 C 
ATOM     13  O   UNL     1      -1.900   3.202  24.855  0.00  0.00    -0.351 OA
ATOM     14  C   UNL     1      -1.125   3.444  24.711  0.00  0.00    +0.167 C 
ATOM     27  C   UNL     1      -1.054   4.231  24.949  0.00  0.00    +0.213 C 
ATOM     28  O   UNL     1      -0.372   4.691  24.903  0.00  0.00    -0.218 OA
ATOM     29  C   UNL     1      -1.786   4.475  25.241  0.00  0.00    +0.212 C 
ATOM     30  O   UNL     1      -1.964   5.224  25.539  0.00  0.00    -0.218 OA
ENDROOT
BRANCH  12  11
ATOM     11  C   UNL     1      -3.102   3.841  25.414  0.00  0.00    +0.117 C 
BRANCH  11   9
ATOM      4  C   UNL     1      -4.891   2.549  25.355  0.00  0.00    +0.105 C 
ATOM      5  C   UNL     1      -5.660   2.837  25.436  0.00  0.00    +0.024 C 
ATOM      6  C   UNL     1      -5.617   3.655  25.536  0.00  0.00    +0.023 C 
ATOM      7  C   UNL     1      -4.821   3.872  25.517  0.00  0.00    +0.093 C 
ATOM      8  N   UNL     1      -4.372   3.189  25.405  0.00  0.00    -0.279 N 
ATOM      9  C   UNL     1      -3.550   3.152  25.353  0.00  0.00    +0.228 C 
ATOM     10  O   UNL     1      -3.176   2.425  25.241  0.00  0.00    -0.275 OA
BRANCH   4   3
ATOM      3  C   UNL     1      -4.678   1.759  25.244  0.00  0.00    +0.162 C 
BRANCH   3   2
ATOM      1  C   UNL     1      -5.048   0.396  25.035  0.00  0.00    +0.174 C 
ATOM      2  O   UNL     1      -5.261   1.186  25.141  0.00  0.00    -0.349 OA
ENDBRANCH   3   2
ENDBRANCH   4   3
ENDBRANCH  11   9
ENDBRANCH  12  11
BRANCH  14  15
ATOM     15  C   UNL     1      -0.526   2.980  24.384  0.00  0.00    +0.148 C 
BRANCH  15  16
ATOM     16  N   UNL     1      -0.412   2.207  24.650  0.00  0.00    -0.075 NA
BRANCH  16  17
ATOM     17  S   UNL     1       0.077   1.694  24.227  0.00  0.00    +0.077 S 
ATOM     18  O   UNL     1      -0.519   1.586  23.667  0.00  0.00    -0.152 OA
ATOM     19  O   UNL     1       0.674   1.802  24.788  0.00  0.00    -0.152 OA
BRANCH  17  20
ATOM     20  C   UNL     1       0.567   1.181  23.806  0.00  0.00    +0.124 A 
ATOM     21  C   UNL     1       0.274   0.457  23.539  0.00  0.00    +0.021 A 
ATOM     22  C   UNL     1       0.764  -0.055  23.117  0.00  0.00    +0.013 A 
ATOM     23  C   UNL     1       1.547   0.156  22.962  0.00  0.00    +0.058 A 
ATOM     24 CL   UNL     1       2.036  -0.357  22.540  0.00  0.00    -0.082 Cl
ATOM     25  C   UNL     1       1.839   0.880  23.228  0.00  0.00    +0.013 A 
ATOM     26  C   UNL     1       1.350   1.392  23.650  0.00  0.00    +0.021 A 
ENDBRANCH  17  20
ENDBRANCH  16  17
ENDBRANCH  15  16
ENDBRANCH  14  15
TORSDOF 8
ENDMDL
MODEL 10
REMARK VINA RESULT:      -7.2      1.582      2.065
REMARK  Name = 
REMARK  8 active torsions:
REMARK  status: ('A' for Active; 'I' for Inactive)
REMARK    1  A    between atoms: O_2  and  C_3
REMARK    2  A    between atoms: C_3  and  C_4
REMARK    3  A    between atoms: C_9  and  C_11
REMARK    4  A    between atoms: C_11  and  C_12
REMARK    5  A    between atoms: C_14  and  C_15
REMARK    6  A    between atoms: C_15  and  N_16
REMARK    7  A    between atoms: N_16  and  S_17
REMARK    8  A    between atoms: S_17  and  C_20
REMARK                            x       y       z     vdW  Elec       q    Type
REMARK                         _______ _______ _______ _____ _____    ______ ____
ROOT
ATOM     12  C   UNL     1      -4.390   2.209  24.841  0.00  0.00    +0.157 C 
ATOM     13  O   UNL     1      -3.742   1.698  24.819  0.00  0.00    -0.351 OA
ATOM     14  C   UNL     1      -4.028   0.927  24.748  0.00  0.00    +0.167 C 
ATOM     27  C   UNL     1      -4.853   0.962  24.726  0.00  0.00    +0.213 C 
ATOM     28  O   UNL     1      -5.363   0.318  24.658  0.00  0.00    -0.218 OA
ATOM     29  C   UNL     1      -5.076   1.754  24.783  0.00  0.00    +0.212 C 
ATOM     30  O   UNL     1      -5.849   2.041  24.783  0.00  0.00    -0.218 OA
ENDROOT
BRANCH  12  11
ATOM     11  C   UNL     1      -4.357   3.031  24.909  0.00  0.00    +0.117 C 
BRANCH  11   9
ATOM      4  C   UNL     1      -2.688   4.293  25.615  0.00  0.00    +0.105 C 
ATOM      5  C   UNL     1      -2.688   4.674  26.346  0.00  0.00    +0.024 C 
ATOM      6  C   UNL     1      -3.397   4.494  26.729  0.00  0.00    +0.023 C 
ATOM      7  C   UNL     1      -3.835   4.001  26.234  0.00  0.00    +0.093 C 
ATOM      8  N   UNL     1      -3.397   3.876  25.545  0.00  0.00    -0.279 N 
ATOM      9  C   UNL     1      -3.628   3.417  24.901  0.00  0.00    +0.228 C 
ATOM     10  O   UNL     1      -3.130   3.343  24.247  0.00  0.00    -0.275 OA
BRANCH   4   3
ATOM      3  C   UNL     1      -2.085   4.322  25.053  0.00  0.00    +0.162 C 
BRANCH   3   2
ATOM      1  C   UNL     1      -0.767   4.722  24.676  0.00  0.00    +0.174 C 
ATOM      2  O   UNL     1      -1.398   4.750  25.207  0.00  0.00    -0.349 OA
ENDBRANCH   3   2
ENDBRANCH   4   3
ENDBRANCH  11   9
ENDBRANCH  12  11
BRANCH  14  15
ATOM     15  C   UNL     1      -3.570   0.242  24.706  0.00  0.00    +0.148 C 
BRANCH  15  16
ATOM     16  N   UNL     1      -2.766   0.294  24.532  0.00  0.00    -0.075 NA
BRANCH  16  17
ATOM     17  S   UNL     1      -2.270  -0.350  24.676  0.00  0.00    +0.077 S 
ATOM     18  O   UNL     1      -2.546  -0.715  23.988  0.00  0.00    -0.152 OA
ATOM     19  O   UNL     1      -1.995   0.014  25.363  0.00  0.00    -0.152 OA
BRANCH  17  20
ATOM     20  C   UNL     1      -1.775  -0.994  24.819  0.00  0.00    +0.124 A 
ATOM     21  C   UNL     1      -1.042  -0.879  25.180  0.00  0.00    +0.021 A 
ATOM     22  C   UNL     1      -0.547  -1.523  25.323  0.00  0.00    +0.013 A 
ATOM     23  C   UNL     1      -0.785  -2.283  25.107  0.00  0.00    +0.058 A 
ATOM     24 CL   UNL     1      -0.290  -2.926  25.250  0.00  0.00    -0.082 Cl
ATOM     25  C   UNL     1      -1.518  -2.398  24.746  0.00  0.00    +0.013 A 
ATOM     26  C   UNL     1      -2.013  -1.754  24.602  0.00  0.00    +0.021 A 
ENDBRANCH  17  20
ENDBRANCH  16  17
ENDBRANCH  15  16
ENDBRANCH  14  15
TORSDOF 8
ENDMDL
