MODEL 1
REMARK VINA RESULT:      -8.3      0.000      0.000
REMARK  Name = 
REMARK  9 active torsions:
REMARK  status: ('A' for Active; 'I' for Inactive)
REMARK    1  A    between atoms: C_2  and  C_4
REMARK    2  A    between atoms: C_6  and  C_7
REMARK    3  A    between atoms: C_7  and  C_8
REMARK    4  A    between atoms: N_10  and  C_11
REMARK    5  A    between atoms: C_19  and  C_20
REMARK    6  A    between atoms: C_20  and  N_21
REMARK    7  A    between atoms: N_21  and  S_22
REMARK    8  A    between atoms: S_22  and  C_25
REMARK    9  A    between atoms: C_28  and  N_29
REMARK                            x       y       z     vdW  Elec       q    Type
REMARK                         _______ _______ _______ _____ _____    ______ ____
ROOT
ATOM      4  C   UNL     1      -2.267   1.230  23.716  0.00  0.00    +0.006 C 
ATOM      5  C   UNL     1      -3.052   1.118  23.939  0.00  0.00    +0.005 C 
ATOM      6  C   UNL     1      -3.281   0.418  24.310  0.00  0.00    +0.027 C 
ATOM     16  C   UNL     1      -2.723  -0.172  24.458  0.00  0.00    -0.048 C 
ATOM     17  C   UNL     1      -2.951  -0.872  24.829  0.00  0.00    +0.026 C 
ATOM     18  C   UNL     1      -1.936  -0.060  24.234  0.00  0.00    -0.033 C 
ATOM     19  C   UNL     1      -1.708   0.641  23.863  0.00  0.00    +0.041 C 
ENDROOT
BRANCH   4   2
ATOM      1  C   UNL     1      -2.127   2.013  22.528  0.00  0.00    +0.000 C 
ATOM      2  C   UNL     1      -2.038   1.930  23.344  0.00  0.00    +0.000 C 
ATOM      3  C   UNL     1      -1.722   2.549  23.789  0.00  0.00    +0.000 C 
ENDBRANCH   4   2
BRANCH   6   7
ATOM      7  C   UNL     1      -4.068   0.306  24.533  0.00  0.00    +0.091 C 
BRANCH   7   8
ATOM      8  C   UNL     1      -4.450   0.874  24.993  0.00  0.00    +0.242 C 
ATOM      9  O   UNL     1      -4.193   1.022  25.763  0.00  0.00    -0.273 OA
ATOM     10  N   UNL     1      -5.090   1.292  24.684  0.00  0.00    -0.207 NA
BRANCH  10  11
ATOM     11  C   UNL     1      -5.473   1.860  25.145  0.00  0.00    +0.095 C 
ATOM     12  C   UNL     1      -5.351   2.676  25.109  0.00  0.00    +0.022 C 
ATOM     13  C   UNL     1      -5.848   3.032  25.664  0.00  0.00    +0.002 C 
ATOM     14  C   UNL     1      -6.275   2.436  26.042  0.00  0.00    +0.002 C 
ATOM     15  C   UNL     1      -6.043   1.712  25.721  0.00  0.00    +0.022 C 
ENDBRANCH  10  11
ENDBRANCH   7   8
ENDBRANCH   6   7
BRANCH  19  20
ATOM     20  C   UNL     1      -0.922   0.752  23.640  0.00  0.00    +0.120 C 
BRANCH  20  21
ATOM     21  N   UNL     1      -0.374   0.143  23.741  0.00  0.00    -0.077 NA
BRANCH  21  22
ATOM     22  S   UNL     1       0.407   0.246  23.496  0.00  0.00    +0.077 S 
ATOM     23  O   UNL     1       0.245  -0.172  22.804  0.00  0.00    -0.152 OA
ATOM     24  O   UNL     1       0.570   0.664  24.189  0.00  0.00    -0.152 OA
BRANCH  22  25
ATOM     25  C   UNL     1       1.188   0.349  23.251  0.00  0.00    +0.124 A 
ATOM     26  C   UNL     1       1.517  -0.166  22.696  0.00  0.00    +0.021 A 
ATOM     27  C   UNL     1       2.299  -0.063  22.451  0.00  0.00    +0.018 A 
ATOM     28  C   UNL     1       2.750   0.554  22.760  0.00  0.00    +0.073 A 
ATOM     33  C   UNL     1       2.421   1.068  23.315  0.00  0.00    +0.018 A 
ATOM     34  C   UNL     1       1.640   0.966  23.560  0.00  0.00    +0.021 A 
BRANCH  28  29
ATOM     29  N   UNL     1       3.531   0.656  22.515  0.00  0.00    -0.179 NA
ATOM     30  C   UNL     1       4.145   0.304  22.938  0.00  0.00    +0.246 C 
ATOM     31  C   UNL     1       4.927   0.406  22.693  0.00  0.00    +0.097 C 
ATOM     32  O   UNL     1       3.980  -0.151  23.606  0.00  0.00    -0.273 OA
ENDBRANCH  28  29
ENDBRANCH  22  25
ENDBRANCH  21  22
ENDBRANCH  20  21
ENDBRANCH  19  20
TORSDOF 9
ENDMDL
MODEL 2
REMARK VINA RESULT:      -8.0      0.776      1.076
REMARK  Name = 
REMARK  9 active torsions:
REMARK  status: ('A' for Active; 'I' for Inactive)
REMARK    1  A    between atoms: C_2  and  C_4
REMARK    2  A    between atoms: C_6  and  C_7
REMARK    3  A    between atoms: C_7  and  C_8
REMARK    4  A    between atoms: N_10  and  C_11
REMARK    5  A    between atoms: C_19  and  C_20
REMARK    6  A    between atoms: C_20  and  N_21
REMARK    7  A    between atoms: N_21  and  S_22
REMARK    8  A    between atoms: S_22  and  C_25
REMARK    9  A    between atoms: C_28  and  N_29
REMARK                            x       y       z     vdW  Elec       q    Type
REMARK                         _______ _______ _______ _____ _____    ______ ____
ROOT
ATOM      4  C   UNL     1      -1.786   1.000  24.821  0.00  0.00    +0.006 C 
ATOM      5  C   UNL     1      -2.574   0.896  25.041  0.00  0.00    +0.005 C 
ATOM      6  C   UNL     1      -2.975   0.209  24.823  0.00  0.00    +0.027 C 
ATOM     16  C   UNL     1      -2.589  -0.375  24.386  0.00  0.00    -0.048 C 
ATOM     17  C   UNL     1      -2.990  -1.062  24.169  0.00  0.00    +0.026 C 
ATOM     18  C   UNL     1      -1.800  -0.270  24.166  0.00  0.00    -0.033 C 
ATOM     19  C   UNL     1      -1.399   0.417  24.384  0.00  0.00    +0.041 C 
ENDROOT
BRANCH   4   2
ATOM      1  C   UNL     1      -1.409   2.352  24.549  0.00  0.00    +0.000 C 
ATOM      2  C   UNL     1      -1.385   1.687  25.038  0.00  0.00    +0.000 C 
ATOM      3  C   UNL     1      -0.959   1.711  25.745  0.00  0.00    +0.000 C 
ENDBRANCH   4   2
BRANCH   6   7
ATOM      7  C   UNL     1      -3.764   0.104  25.043  0.00  0.00    +0.091 C 
BRANCH   7   8
ATOM      8  C   UNL     1      -4.309   0.713  24.928  0.00  0.00    +0.242 C 
ATOM      9  O   UNL     1      -4.415   1.034  24.175  0.00  0.00    -0.273 OA
ATOM     10  N   UNL     1      -4.747   1.000  25.565  0.00  0.00    -0.207 NA
BRANCH  10  11
ATOM     11  C   UNL     1      -5.291   1.609  25.450  0.00  0.00    +0.095 C 
ATOM     12  C   UNL     1      -6.033   1.535  25.095  0.00  0.00    +0.022 C 
ATOM     13  C   UNL     1      -6.390   2.279  25.095  0.00  0.00    +0.002 C 
ATOM     14  C   UNL     1      -5.870   2.812  25.450  0.00  0.00    +0.002 C 
ATOM     15  C   UNL     1      -5.191   2.397  25.669  0.00  0.00    +0.022 C 
ENDBRANCH  10  11
ENDBRANCH   7   8
ENDBRANCH   6   7
BRANCH  19  20
ATOM     20  C   UNL     1      -0.611   0.522  24.164  0.00  0.00    +0.120 C 
BRANCH  20  21
ATOM     21  N   UNL     1      -0.258  -0.000  23.631  0.00  0.00    -0.077 NA
BRANCH  21  22
ATOM     22  S   UNL     1       0.524   0.114  23.397  0.00  0.00    +0.077 S 
ATOM     23  O   UNL     1       0.778  -0.387  24.001  0.00  0.00    -0.152 OA
ATOM     24  O   UNL     1       0.272   0.616  22.793  0.00  0.00    -0.152 OA
BRANCH  22  25
ATOM     25  C   UNL     1       1.308   0.229  23.164  0.00  0.00    +0.124 A 
ATOM     26  C   UNL     1       1.752   0.839  23.497  0.00  0.00    +0.021 A 
ATOM     27  C   UNL     1       2.535   0.954  23.263  0.00  0.00    +0.018 A 
ATOM     28  C   UNL     1       2.874   0.458  22.698  0.00  0.00    +0.073 A 
ATOM     33  C   UNL     1       2.429  -0.153  22.365  0.00  0.00    +0.018 A 
ATOM     34  C   UNL     1       1.647  -0.267  22.598  0.00  0.00    +0.021 A 
BRANCH  28  29
ATOM     29  N   UNL     1       3.656   0.572  22.465  0.00  0.00    -0.179 NA
ATOM     30  C   UNL     1       4.271   0.248  22.910  0.00  0.00    +0.246 C 
ATOM     31  C   UNL     1       5.054   0.363  22.678  0.00  0.00    +0.097 C 
ATOM     32  O   UNL     1       4.103  -0.190  23.588  0.00  0.00    -0.273 OA
ENDBRANCH  28  29
ENDBRANCH  22  25
ENDBRANCH  21  22
ENDBRANCH  20  21
ENDBRANCH  19  20
TORSDOF 9
ENDMDL
MODEL 3
REMARK VINA RESULT:      -6.8      1.280      6.880
REMARK  Name = 
REMARK  9 active torsions:
REMARK  status: ('A' for Active; 'I' for Inactive)
REMARK    1  A    between atoms: C_2  and  C_4
REMARK    2  A    between atoms: C_6  and  C_7
REMARK    3  A    between atoms: C_7  and  C_8
REMARK    4  A    between atoms: N_10  and  C_11
REMARK    5  A    between atoms: C_19  and  C_20
REMARK    6  A    between atoms: C_20  and  N_21
REMARK    7  A    between atoms: N_21  and  S_22
REMARK    8  A    between atoms: S_22  and  C_25
REMARK    9  A    between atoms: C_28  and  N_29
REMARK                            x       y       z     vdW  Elec       q    Type
REMARK                         _______ _______ _______ _____ _____    ______ ____
ROOT
ATOM      4  C   UNL     1       0.571   1.180  23.801  0.00  0.00    +0.006 C 
ATOM      5  C   UNL     1       1.269   1.064  23.378  0.00  0.00    +0.005 C 
ATOM      6  C   UNL     1       1.347   0.408  22.884  0.00  0.00    +0.027 C 
ATOM     16  C   UNL     1       0.727  -0.131  22.811  0.00  0.00    -0.048 C 
ATOM     17  C   UNL     1       0.805  -0.786  22.317  0.00  0.00    +0.026 C 
ATOM     18  C   UNL     1       0.027  -0.014  23.235  0.00  0.00    -0.033 C 
ATOM     19  C   UNL     1      -0.051   0.642  23.729  0.00  0.00    +0.041 C 
ENDROOT
BRANCH   4   2
ATOM      1  C   UNL     1       0.284   2.569  23.980  0.00  0.00    +0.000 C 
ATOM      2  C   UNL     1       0.493   1.836  24.296  0.00  0.00    +0.000 C 
ATOM      3  C   UNL     1       0.624   1.759  25.107  0.00  0.00    +0.000 C 
ENDBRANCH   4   2
BRANCH   6   7
ATOM      7  C   UNL     1       2.046   0.291  22.460  0.00  0.00    +0.091 C 
BRANCH   7   8
ATOM      8  C   UNL     1       2.754   0.158  22.862  0.00  0.00    +0.242 C 
ATOM      9  O   UNL     1       2.769  -0.346  23.515  0.00  0.00    -0.273 OA
ATOM     10  N   UNL     1       3.447   0.528  22.611  0.00  0.00    -0.207 NA
BRANCH  10  11
ATOM     11  C   UNL     1       4.155   0.395  23.012  0.00  0.00    +0.095 C 
ATOM     12  C   UNL     1       4.605   0.965  23.404  0.00  0.00    +0.022 C 
ATOM     13  C   UNL     1       5.266   0.590  23.727  0.00  0.00    +0.002 C 
ATOM     14  C   UNL     1       5.224  -0.211  23.534  0.00  0.00    +0.002 C 
ATOM     15  C   UNL     1       4.537  -0.331  23.093  0.00  0.00    +0.022 C 
ENDBRANCH  10  11
ENDBRANCH   7   8
ENDBRANCH   6   7
BRANCH  19  20
ATOM     20  C   UNL     1      -0.749   0.758  24.152  0.00  0.00    +0.120 C 
BRANCH  20  21
ATOM     21  N   UNL     1      -1.377   0.230  24.066  0.00  0.00    -0.077 NA
BRANCH  21  22
ATOM     22  S   UNL     1      -2.129   0.436  24.334  0.00  0.00    +0.077 S 
ATOM     23  O   UNL     1      -2.301   0.768  23.599  0.00  0.00    -0.152 OA
ATOM     24  O   UNL     1      -1.959   0.104  25.070  0.00  0.00    -0.152 OA
BRANCH  22  25
ATOM     25  C   UNL     1      -2.882   0.642  24.602  0.00  0.00    +0.124 A 
ATOM     26  C   UNL     1      -3.510   0.114  24.513  0.00  0.00    +0.021 A 
ATOM     27  C   UNL     1      -4.263   0.320  24.781  0.00  0.00    +0.018 A 
ATOM     28  C   UNL     1      -4.388   1.053  25.138  0.00  0.00    +0.073 A 
ATOM     33  C   UNL     1      -3.759   1.581  25.226  0.00  0.00    +0.018 A 
ATOM     34  C   UNL     1      -3.007   1.375  24.959  0.00  0.00    +0.021 A 
BRANCH  28  29
ATOM     29  N   UNL     1      -5.140   1.259  25.405  0.00  0.00    -0.179 NA
ATOM     30  C   UNL     1      -5.575   1.836  25.008  0.00  0.00    +0.246 C 
ATOM     31  C   UNL     1      -6.328   2.042  25.275  0.00  0.00    +0.097 C 
ATOM     32  O   UNL     1      -5.258   2.208  24.343  0.00  0.00    -0.273 OA
ENDBRANCH  28  29
ENDBRANCH  22  25
ENDBRANCH  21  22
ENDBRANCH  20  21
ENDBRANCH  19  20
TORSDOF 9
ENDMDL
