MODEL 1
REMARK VINA RESULT:     -12.5      0.000      0.000
REMARK  Name = 
REMARK  6 active torsions:
REMARK  status: ('A' for Active; 'I' for Inactive)
REMARK    1  A    between atoms: O_2  and  C_3
REMARK    2  A    between atoms: C_6  and  C_7
REMARK    3  A    between atoms: C_7  and  C_8
REMARK    4  A    between atoms: C_15  and  O_17
REMARK    5  A    between atoms: O_17  and  C_18
REMARK    6  A    between atoms: C_21  and  C_24
REMARK                            x       y       z     vdW  Elec       q    Type
REMARK                         _______ _______ _______ _____ _____    ______ ____
ROOT
ATOM      8  C   UNL     1      -4.318   0.688  24.529  0.00  0.00    +0.230 C 
ATOM      9  O   UNL     1      -3.711   0.653  23.972  0.00  0.00    -0.275 OA
ATOM     10  N   UNL     1      -4.585   1.420  24.801  0.00  0.00    -0.273 N 
ATOM     11  C   UNL     1      -5.195   1.394  25.357  0.00  0.00    +0.126 C 
ATOM     12  C   UNL     1      -5.577   2.023  25.730  0.00  0.00    +0.164 C 
ATOM     13  O   UNL     1      -5.445   2.832  25.639  0.00  0.00    -0.348 OA
ATOM     14  C   UNL     1      -4.898   3.212  25.153  0.00  0.00    +0.187 C 
ATOM     15  C   UNL     1      -4.348   2.878  24.637  0.00  0.00    +0.217 C 
ATOM     16  C   UNL     1      -4.209   2.080  24.480  0.00  0.00    +0.140 C 
ENDROOT
BRANCH   8   7
ATOM      7  C   UNL     1      -4.658  -0.007  24.815  0.00  0.00    +0.112 C 
BRANCH   7   6
ATOM      3  C   UNL     1      -3.455  -2.158  24.583  0.00  0.00    +0.139 A 
ATOM      4  C   UNL     1      -3.952  -1.896  23.979  0.00  0.00    +0.037 A 
ATOM      5  C   UNL     1      -4.353  -1.179  24.056  0.00  0.00    -0.001 A 
ATOM      6  C   UNL     1      -4.257  -0.725  24.737  0.00  0.00    -0.013 A 
ATOM     28  C   UNL     1      -3.760  -0.986  25.342  0.00  0.00    -0.001 A 
ATOM     29  C   UNL     1      -3.359  -1.703  25.265  0.00  0.00    +0.037 A 
BRANCH   3   2
ATOM      1  C   UNL     1      -2.236  -2.880  24.395  0.00  0.00    +0.252 C 
ATOM      2  O   UNL     1      -3.054  -2.875  24.506  0.00  0.00    -0.471 OA
ENDBRANCH   3   2
ENDBRANCH   7   6
ENDBRANCH   8   7
BRANCH  15  17
ATOM     17  O   UNL     1      -3.874   3.412  24.223  0.00  0.00    -0.460 OA
BRANCH  17  18
ATOM     18  C   UNL     1      -3.121   3.598  24.504  0.00  0.00    +0.225 A 
ATOM     19  C   UNL     1      -3.033   4.139  25.121  0.00  0.00    +0.058 A 
ATOM     20  C   UNL     1      -2.280   4.325  25.401  0.00  0.00    +0.010 A 
ATOM     21  C   UNL     1      -1.616   3.971  25.066  0.00  0.00    +0.091 A 
ATOM     22  C   UNL     1      -1.703   3.430  24.449  0.00  0.00    +0.106 A 
ATOM     23  N   UNL     1      -2.457   3.244  24.168  0.00  0.00    -0.210 NA
BRANCH  21  24
ATOM     24  C   UNL     1      -0.862   4.157  25.346  0.00  0.00    +0.420 C 
ATOM     25  F   UNL     1      -0.108   4.344  25.627  0.00  0.00    -0.166 F 
ATOM     26  F   UNL     1      -0.814   3.416  25.707  0.00  0.00    -0.166 F 
ATOM     27  F   UNL     1      -0.911   4.897  24.985  0.00  0.00    -0.166 F 
ENDBRANCH  21  24
ENDBRANCH  17  18
ENDBRANCH  15  17
TORSDOF 6
ENDMDL
MODEL 2
REMARK VINA RESULT:     -11.8      3.254      6.156
REMARK  Name = 
REMARK  6 active torsions:
REMARK  status: ('A' for Active; 'I' for Inactive)
REMARK    1  A    between atoms: O_2  and  C_3
REMARK    2  A    between atoms: C_6  and  C_7
REMARK    3  A    between atoms: C_7  and  C_8
REMARK    4  A    between atoms: C_15  and  O_17
REMARK    5  A    between atoms: O_17  and  C_18
REMARK    6  A    between atoms: C_21  and  C_24
REMARK                            x       y       z     vdW  Elec       q    Type
REMARK                         _______ _______ _______ _____ _____    ______ ____
ROOT
ATOM      8  C   UNL     1      -0.826   1.403  24.933  0.00  0.00    +0.230 C 
ATOM      9  O   UNL     1      -1.373   1.437  25.549  0.00  0.00    -0.275 OA
ATOM     10  N   UNL     1      -0.582   0.672  24.638  0.00  0.00    -0.273 N 
ATOM     11  C   UNL     1      -0.033   0.700  24.022  0.00  0.00    +0.126 C 
ATOM     12  C   UNL     1       0.313   0.072  23.614  0.00  0.00    +0.164 C 
ATOM     13  O   UNL     1       0.197  -0.737  23.720  0.00  0.00    -0.348 OA
ATOM     14  C   UNL     1      -0.295  -1.120  24.262  0.00  0.00    +0.187 C 
ATOM     15  C   UNL     1      -0.792  -0.786  24.829  0.00  0.00    +0.217 C 
ATOM     16  C   UNL     1      -0.920   0.011  24.997  0.00  0.00    +0.140 C 
ENDROOT
BRANCH   8   7
ATOM      7  C   UNL     1      -0.521   2.100  24.612  0.00  0.00    +0.112 C 
BRANCH   7   6
ATOM      3  C   UNL     1      -1.514   4.283  25.226  0.00  0.00    +0.139 A 
ATOM      4  C   UNL     1      -0.788   4.055  25.545  0.00  0.00    +0.037 A 
ATOM      5  C   UNL     1      -0.457   3.328  25.340  0.00  0.00    -0.001 A 
ATOM      6  C   UNL     1      -0.852   2.828  24.817  0.00  0.00    -0.013 A 
ATOM     28  C   UNL     1      -1.579   3.055  24.497  0.00  0.00    -0.001 A 
ATOM     29  C   UNL     1      -1.910   3.782  24.702  0.00  0.00    +0.037 A 
BRANCH   3   2
ATOM      1  C   UNL     1      -1.596   5.698  25.050  0.00  0.00    +0.252 C 
ATOM      2  O   UNL     1      -1.845   5.010  25.431  0.00  0.00    -0.471 OA
ENDBRANCH   3   2
ENDBRANCH   7   6
ENDBRANCH   8   7
BRANCH  15  17
ATOM     17  O   UNL     1      -1.217  -1.322  25.291  0.00  0.00    -0.460 OA
BRANCH  17  18
ATOM     18  C   UNL     1      -1.916  -1.651  25.002  0.00  0.00    +0.225 A 
ATOM     19  C   UNL     1      -2.645  -1.350  25.246  0.00  0.00    +0.058 A 
ATOM     20  C   UNL     1      -3.344  -1.679  24.957  0.00  0.00    +0.010 A 
ATOM     21  C   UNL     1      -3.315  -2.308  24.425  0.00  0.00    +0.091 A 
ATOM     22  C   UNL     1      -2.587  -2.609  24.181  0.00  0.00    +0.106 A 
ATOM     23  N   UNL     1      -1.887  -2.280  24.470  0.00  0.00    -0.210 NA
BRANCH  21  24
ATOM     24  C   UNL     1      -4.014  -2.637  24.136  0.00  0.00    +0.420 C 
ATOM     25  F   UNL     1      -4.714  -2.965  23.846  0.00  0.00    -0.166 F 
ATOM     26  F   UNL     1      -3.898  -3.301  24.611  0.00  0.00    -0.166 F 
ATOM     27  F   UNL     1      -4.130  -1.972  23.661  0.00  0.00    -0.166 F 
ENDBRANCH  21  24
ENDBRANCH  17  18
ENDBRANCH  15  17
TORSDOF 6
ENDMDL
MODEL 3
REMARK VINA RESULT:     -11.1      3.051      5.735
REMARK  Name = 
REMARK  6 active torsions:
REMARK  status: ('A' for Active; 'I' for Inactive)
REMARK    1  A    between atoms: O_2  and  C_3
REMARK    2  A    between atoms: C_6  and  C_7
REMARK    3  A    between atoms: C_7  and  C_8
REMARK    4  A    between atoms: C_15  and  O_17
REMARK    5  A    between atoms: O_17  and  C_18
REMARK    6  A    between atoms: C_21  and  C_24
REMARK                            x       y       z     vdW  Elec       q    Type
REMARK                         _______ _______ _______ _____ _____    ______ ____
ROOT
ATOM      8  C   UNL     1      -1.970   1.671  25.002  0.00  0.00    +0.230 C 
ATOM      9  O   UNL     1      -2.490   1.443  25.599  0.00  0.00    -0.275 OA
ATOM     10  N   UNL     1      -1.414   1.135  24.712  0.00  0.00    -0.273 N 
ATOM     11  C   UNL     1      -0.920   1.419  24.114  0.00  0.00    +0.126 C 
ATOM     12  C   UNL     1      -0.316   1.024  23.716  0.00  0.00    +0.164 C 
ATOM     13  O   UNL     1      -0.055   0.248  23.816  0.00  0.00    -0.348 OA
ATOM     14  C   UNL     1      -0.334  -0.325  24.340  0.00  0.00    +0.187 C 
ATOM     15  C   UNL     1      -0.943  -0.263  24.892  0.00  0.00    +0.217 C 
ATOM     16  C   UNL     1      -1.424   0.386  25.058  0.00  0.00    +0.140 C 
ENDROOT
BRANCH   8   7
ATOM      7  C   UNL     1      -2.006   2.435  24.692  0.00  0.00    +0.112 C 
BRANCH   7   6
ATOM      3  C   UNL     1      -4.036   3.811  25.030  0.00  0.00    +0.139 A 
ATOM      4  C   UNL     1      -3.403   3.874  25.554  0.00  0.00    +0.037 A 
ATOM      5  C   UNL     1      -2.726   3.416  25.442  0.00  0.00    -0.001 A 
ATOM      6  C   UNL     1      -2.683   2.894  24.805  0.00  0.00    -0.013 A 
ATOM     28  C   UNL     1      -3.316   2.830  24.279  0.00  0.00    -0.001 A 
ATOM     29  C   UNL     1      -3.993   3.289  24.392  0.00  0.00    +0.037 A 
BRANCH   3   2
ATOM      1  C   UNL     1      -5.378   3.941  25.501  0.00  0.00    +0.252 C 
ATOM      2  O   UNL     1      -4.712   4.270  25.142  0.00  0.00    -0.471 OA
ENDBRANCH   3   2
ENDBRANCH   7   6
ENDBRANCH   8   7
BRANCH  15  17
ATOM     17  O   UNL     1      -1.092  -0.942  25.339  0.00  0.00    -0.460 OA
BRANCH  17  18
ATOM     18  C   UNL     1      -1.709  -1.447  25.128  0.00  0.00    +0.225 A 
ATOM     19  C   UNL     1      -2.418  -1.430  25.550  0.00  0.00    +0.058 A 
ATOM     20  C   UNL     1      -3.035  -1.935  25.339  0.00  0.00    +0.010 A 
ATOM     21  C   UNL     1      -2.944  -2.457  24.707  0.00  0.00    +0.091 A 
ATOM     22  C   UNL     1      -2.235  -2.473  24.285  0.00  0.00    +0.106 A 
ATOM     23  N   UNL     1      -1.618  -1.968  24.496  0.00  0.00    -0.210 NA
BRANCH  21  24
ATOM     24  C   UNL     1      -3.561  -2.962  24.496  0.00  0.00    +0.420 C 
ATOM     25  F   UNL     1      -4.179  -3.468  24.285  0.00  0.00    -0.166 F 
ATOM     26  F   UNL     1      -3.652  -2.554  23.785  0.00  0.00    -0.166 F 
ATOM     27  F   UNL     1      -3.470  -3.370  25.207  0.00  0.00    -0.166 F 
ENDBRANCH  21  24
ENDBRANCH  17  18
ENDBRANCH  15  17
TORSDOF 6
ENDMDL
MODEL 4
REMARK VINA RESULT:     -11.1      2.667      5.471
REMARK  Name = 
REMARK  6 active torsions:
REMARK  status: ('A' for Active; 'I' for Inactive)
REMARK    1  A    between atoms: O_2  and  C_3
REMARK    2  A    between atoms: C_6  and  C_7
REMARK    3  A    between atoms: C_7  and  C_8
REMARK    4  A    between atoms: C_15  and  O_17
REMARK    5  A    between atoms: O_17  and  C_18
REMARK    6  A    between atoms: C_21  and  C_24
REMARK                            x       y       z     vdW  Elec       q    Type
REMARK                         _______ _______ _______ _____ _____    ______ ____
ROOT
ATOM      8  C   UNL     1      -3.100   2.476  24.941  0.00  0.00    +0.230 C 
ATOM      9  O   UNL     1      -2.413   2.298  24.522  0.00  0.00    -0.275 OA
ATOM     10  N   UNL     1      -3.751   1.970  24.899  0.00  0.00    -0.273 N 
ATOM     11  C   UNL     1      -4.411   2.199  25.340  0.00  0.00    +0.126 C 
ATOM     12  C   UNL     1      -5.138   1.817  25.412  0.00  0.00    +0.164 C 
ATOM     13  O   UNL     1      -5.386   1.112  25.062  0.00  0.00    -0.348 OA
ATOM     14  C   UNL     1      -4.967   0.615  24.554  0.00  0.00    +0.187 C 
ATOM     15  C   UNL     1      -4.198   0.701  24.270  0.00  0.00    +0.217 C 
ATOM     16  C   UNL     1      -3.656   1.304  24.423  0.00  0.00    +0.140 C 
ENDROOT
BRANCH   8   7
ATOM      7  C   UNL     1      -3.138   3.159  25.403  0.00  0.00    +0.112 C 
BRANCH   7   6
ATOM      3  C   UNL     1      -1.379   4.889  25.197  0.00  0.00    +0.139 A 
ATOM      4  C   UNL     1      -1.202   4.159  25.538  0.00  0.00    +0.037 A 
ATOM      5  C   UNL     1      -1.788   3.582  25.606  0.00  0.00    -0.001 A 
ATOM      6  C   UNL     1      -2.551   3.736  25.334  0.00  0.00    -0.013 A 
ATOM     28  C   UNL     1      -2.729   4.466  24.993  0.00  0.00    -0.001 A 
ATOM     29  C   UNL     1      -2.143   5.042  24.924  0.00  0.00    +0.037 A 
BRANCH   3   2
ATOM      1  C   UNL     1      -0.293   5.469  24.471  0.00  0.00    +0.252 C 
ATOM      2  O   UNL     1      -0.793   5.465  25.128  0.00  0.00    -0.471 OA
ENDBRANCH   3   2
ENDBRANCH   7   6
ENDBRANCH   8   7
BRANCH  15  17
ATOM     17  O   UNL     1      -3.934   0.103  23.764  0.00  0.00    -0.460 OA
BRANCH  17  18
ATOM     18  C   UNL     1      -3.817  -0.660  24.055  0.00  0.00    +0.225 A 
ATOM     19  C   UNL     1      -4.357  -1.257  23.875  0.00  0.00    +0.058 A 
ATOM     20  C   UNL     1      -4.239  -2.020  24.165  0.00  0.00    +0.010 A 
ATOM     21  C   UNL     1      -3.582  -2.186  24.635  0.00  0.00    +0.091 A 
ATOM     22  C   UNL     1      -3.041  -1.589  24.814  0.00  0.00    +0.106 A 
ATOM     23  N   UNL     1      -3.159  -0.826  24.524  0.00  0.00    -0.210 NA
BRANCH  21  24
ATOM     24  C   UNL     1      -3.464  -2.949  24.925  0.00  0.00    +0.420 C 
ATOM     25  F   UNL     1      -3.346  -3.713  25.215  0.00  0.00    -0.166 F 
ATOM     26  F   UNL     1      -3.624  -2.683  25.690  0.00  0.00    -0.166 F 
ATOM     27  F   UNL     1      -3.304  -3.215  24.161  0.00  0.00    -0.166 F 
ENDBRANCH  21  24
ENDBRANCH  17  18
ENDBRANCH  15  17
TORSDOF 6
ENDMDL
MODEL 5
REMARK VINA RESULT:     -11.0      2.351      3.188
REMARK  Name = 
REMARK  6 active torsions:
REMARK  status: ('A' for Active; 'I' for Inactive)
REMARK    1  A    between atoms: O_2  and  C_3
REMARK    2  A    between atoms: C_6  and  C_7
REMARK    3  A    between atoms: C_7  and  C_8
REMARK    4  A    between atoms: C_15  and  O_17
REMARK    5  A    between atoms: O_17  and  C_18
REMARK    6  A    between atoms: C_21  and  C_24
REMARK                            x       y       z     vdW  Elec       q    Type
REMARK                         _______ _______ _______ _____ _____    ______ ____
ROOT
ATOM      8  C   UNL     1      -1.214  -0.198  24.988  0.00  0.00    +0.230 C 
ATOM      9  O   UNL     1      -1.687  -0.108  25.657  0.00  0.00    -0.275 OA
ATOM     10  N   UNL     1      -0.678   0.394  24.779  0.00  0.00    -0.273 N 
ATOM     11  C   UNL     1      -0.231   0.249  24.100  0.00  0.00    +0.126 C 
ATOM     12  C   UNL     1       0.343   0.727  23.751  0.00  0.00    +0.164 C 
ATOM     13  O   UNL     1       0.614   1.467  23.995  0.00  0.00    -0.348 OA
ATOM     14  C   UNL     1       0.376   1.912  24.647  0.00  0.00    +0.187 C 
ATOM     15  C   UNL     1      -0.191   1.727  25.217  0.00  0.00    +0.217 C 
ATOM     16  C   UNL     1      -0.660   1.052  25.276  0.00  0.00    +0.140 C 
ENDROOT
BRANCH   8   7
ATOM      7  C   UNL     1      -1.275  -0.880  24.526  0.00  0.00    +0.112 C 
BRANCH   7   6
ATOM      3  C   UNL     1      -3.383  -2.178  24.514  0.00  0.00    +0.139 A 
ATOM      4  C   UNL     1      -3.391  -1.375  24.323  0.00  0.00    +0.037 A 
ATOM      5  C   UNL     1      -2.689  -0.943  24.327  0.00  0.00    -0.001 A 
ATOM      6  C   UNL     1      -1.978  -1.313  24.522  0.00  0.00    -0.013 A 
ATOM     28  C   UNL     1      -1.969  -2.115  24.713  0.00  0.00    -0.001 A 
ATOM     29  C   UNL     1      -2.671  -2.548  24.709  0.00  0.00    +0.037 A 
BRANCH   3   2
ATOM      1  C   UNL     1      -4.511  -2.699  23.808  0.00  0.00    +0.252 C 
ATOM      2  O   UNL     1      -4.086  -2.610  24.510  0.00  0.00    -0.471 OA
ENDBRANCH   3   2
ENDBRANCH   7   6
ENDBRANCH   8   7
BRANCH  15  17
ATOM     17  O   UNL     1      -0.303   2.294  25.807  0.00  0.00    -0.460 OA
BRANCH  17  18
ATOM     18  C   UNL     1      -0.659   3.015  25.623  0.00  0.00    +0.225 A 
ATOM     19  C   UNL     1      -1.430   3.169  25.873  0.00  0.00    +0.058 A 
ATOM     20  C   UNL     1      -1.786   3.890  25.690  0.00  0.00    +0.010 A 
ATOM     21  C   UNL     1      -1.372   4.457  25.257  0.00  0.00    +0.091 A 
ATOM     22  C   UNL     1      -0.601   4.303  25.007  0.00  0.00    +0.106 A 
ATOM     23  N   UNL     1      -0.245   3.581  25.190  0.00  0.00    -0.210 NA
BRANCH  21  24
ATOM     24  C   UNL     1      -1.728   5.178  25.073  0.00  0.00    +0.420 C 
ATOM     25  F   UNL     1      -2.085   5.899  24.889  0.00  0.00    -0.166 F 
ATOM     26  F   UNL     1      -1.038   5.574  25.291  0.00  0.00    -0.166 F 
ATOM     27  F   UNL     1      -2.418   4.781  24.855  0.00  0.00    -0.166 F 
ENDBRANCH  21  24
ENDBRANCH  17  18
ENDBRANCH  15  17
TORSDOF 6
ENDMDL
MODEL 6
REMARK VINA RESULT:     -10.9      2.168      3.096
REMARK  Name = 
REMARK  6 active torsions:
REMARK  status: ('A' for Active; 'I' for Inactive)
REMARK    1  A    between atoms: O_2  and  C_3
REMARK    2  A    between atoms: C_6  and  C_7
REMARK    3  A    between atoms: C_7  and  C_8
REMARK    4  A    between atoms: C_15  and  O_17
REMARK    5  A    between atoms: O_17  and  C_18
REMARK    6  A    between atoms: C_21  and  C_24
REMARK                            x       y       z     vdW  Elec       q    Type
REMARK                         _______ _______ _______ _____ _____    ______ ____
ROOT
ATOM      8  C   UNL     1      -1.820   0.526  24.844  0.00  0.00    +0.230 C 
ATOM      9  O   UNL     1      -2.448   0.506  24.311  0.00  0.00    -0.275 OA
ATOM     10  N   UNL     1      -1.519   1.250  25.100  0.00  0.00    -0.273 N 
ATOM     11  C   UNL     1      -0.891   1.208  25.634  0.00  0.00    +0.126 C 
ATOM     12  C   UNL     1      -0.475   1.826  25.988  0.00  0.00    +0.164 C 
ATOM     13  O   UNL     1      -0.584   2.638  25.896  0.00  0.00    -0.348 OA
ATOM     14  C   UNL     1      -1.136   3.033  25.428  0.00  0.00    +0.187 C 
ATOM     15  C   UNL     1      -1.715   2.714  24.935  0.00  0.00    +0.217 C 
ATOM     16  C   UNL     1      -1.886   1.920  24.790  0.00  0.00    +0.140 C 
ENDROOT
BRANCH   8   7
ATOM      7  C   UNL     1      -1.492  -0.178  25.122  0.00  0.00    +0.112 C 
BRANCH   7   6
ATOM      3  C   UNL     1      -2.742  -2.303  24.886  0.00  0.00    +0.139 A 
ATOM      4  C   UNL     1      -3.022  -1.712  25.389  0.00  0.00    +0.037 A 
ATOM      5  C   UNL     1      -2.606  -1.004  25.468  0.00  0.00    -0.001 A 
ATOM      6  C   UNL     1      -1.909  -0.887  25.043  0.00  0.00    -0.013 A 
ATOM     28  C   UNL     1      -1.627  -1.477  24.540  0.00  0.00    -0.001 A 
ATOM     29  C   UNL     1      -2.044  -2.185  24.461  0.00  0.00    +0.037 A 
BRANCH   3   2
ATOM      1  C   UNL     1      -3.798  -3.057  24.288  0.00  0.00    +0.252 C 
ATOM      2  O   UNL     1      -3.158  -3.010  24.808  0.00  0.00    -0.471 OA
ENDBRANCH   3   2
ENDBRANCH   7   6
ENDBRANCH   8   7
BRANCH  15  17
ATOM     17  O   UNL     1      -2.186   3.261  24.535  0.00  0.00    -0.460 OA
BRANCH  17  18
ATOM     18  C   UNL     1      -2.966   3.386  24.775  0.00  0.00    +0.225 A 
ATOM     19  C   UNL     1      -3.587   3.224  24.256  0.00  0.00    +0.058 A 
ATOM     20  C   UNL     1      -4.366   3.349  24.496  0.00  0.00    +0.010 A 
ATOM     21  C   UNL     1      -4.525   3.636  25.253  0.00  0.00    +0.091 A 
ATOM     22  C   UNL     1      -3.904   3.797  25.771  0.00  0.00    +0.106 A 
ATOM     23  N   UNL     1      -3.124   3.672  25.532  0.00  0.00    -0.210 NA
BRANCH  21  24
ATOM     24  C   UNL     1      -5.304   3.761  25.492  0.00  0.00    +0.420 C 
ATOM     25  F   UNL     1      -6.085   3.885  25.732  0.00  0.00    -0.166 F 
ATOM     26  F   UNL     1      -5.229   4.564  25.318  0.00  0.00    -0.166 F 
ATOM     27  F   UNL     1      -5.380   2.958  25.666  0.00  0.00    -0.166 F 
ENDBRANCH  21  24
ENDBRANCH  17  18
ENDBRANCH  15  17
TORSDOF 6
ENDMDL
MODEL 7
REMARK VINA RESULT:     -10.6      2.562      3.704
REMARK  Name = 
REMARK  6 active torsions:
REMARK  status: ('A' for Active; 'I' for Inactive)
REMARK    1  A    between atoms: O_2  and  C_3
REMARK    2  A    between atoms: C_6  and  C_7
REMARK    3  A    between atoms: C_7  and  C_8
REMARK    4  A    between atoms: C_15  and  O_17
REMARK    5  A    between atoms: O_17  and  C_18
REMARK    6  A    between atoms: C_21  and  C_24
REMARK                            x       y       z     vdW  Elec       q    Type
REMARK                         _______ _______ _______ _____ _____    ______ ____
ROOT
ATOM      8  C   UNL     1      -1.528   1.683  24.542  0.00  0.00    +0.230 C 
ATOM      9  O   UNL     1      -2.072   1.265  24.086  0.00  0.00    -0.275 OA
ATOM     10  N   UNL     1      -1.699   2.452  24.786  0.00  0.00    -0.273 N 
ATOM     11  C   UNL     1      -1.116   2.821  25.240  0.00  0.00    +0.126 C 
ATOM     12  C   UNL     1      -1.122   3.580  25.564  0.00  0.00    +0.164 C 
ATOM     13  O   UNL     1      -1.709   4.157  25.514  0.00  0.00    -0.348 OA
ATOM     14  C   UNL     1      -2.437   4.117  25.128  0.00  0.00    +0.187 C 
ATOM     15  C   UNL     1      -2.757   3.492  24.696  0.00  0.00    +0.217 C 
ATOM     16  C   UNL     1      -2.428   2.751  24.544  0.00  0.00    +0.140 C 
ENDROOT
BRANCH   8   7
ATOM      7  C   UNL     1      -0.811   1.333  24.755  0.00  0.00    +0.112 C 
BRANCH   7   6
ATOM      3  C   UNL     1      -0.648  -1.130  24.946  0.00  0.00    +0.139 A 
ATOM      4  C   UNL     1      -1.013  -0.693  25.542  0.00  0.00    +0.037 A 
ATOM      5  C   UNL     1      -1.068   0.127  25.478  0.00  0.00    -0.001 A 
ATOM      6  C   UNL     1      -0.757   0.511  24.818  0.00  0.00    -0.013 A 
ATOM     28  C   UNL     1      -0.391   0.075  24.221  0.00  0.00    -0.001 A 
ATOM     29  C   UNL     1      -0.336  -0.746  24.285  0.00  0.00    +0.037 A 
BRANCH   3   2
ATOM      1  C   UNL     1      -1.246  -2.423  24.829  0.00  0.00    +0.252 C 
ATOM      2  O   UNL     1      -0.593  -1.951  25.009  0.00  0.00    -0.471 OA
ENDBRANCH   3   2
ENDBRANCH   7   6
ENDBRANCH   8   7
BRANCH  15  17
ATOM     17  O   UNL     1      -3.505   3.625  24.374  0.00  0.00    -0.460 OA
BRANCH  17  18
ATOM     18  C   UNL     1      -4.169   3.272  24.714  0.00  0.00    +0.225 A 
ATOM     19  C   UNL     1      -4.558   2.661  24.319  0.00  0.00    +0.058 A 
ATOM     20  C   UNL     1      -5.222   2.309  24.659  0.00  0.00    +0.010 A 
ATOM     21  C   UNL     1      -5.496   2.567  25.393  0.00  0.00    +0.091 A 
ATOM     22  C   UNL     1      -5.107   3.178  25.787  0.00  0.00    +0.106 A 
ATOM     23  N   UNL     1      -4.443   3.530  25.447  0.00  0.00    -0.210 NA
BRANCH  21  24
ATOM     24  C   UNL     1      -6.160   2.214  25.733  0.00  0.00    +0.420 C 
ATOM     25  F   UNL     1      -6.825   1.862  26.074  0.00  0.00    -0.166 F 
ATOM     26  F   UNL     1      -6.432   2.002  24.983  0.00  0.00    -0.166 F 
ATOM     27  F   UNL     1      -5.889   2.427  26.483  0.00  0.00    -0.166 F 
ENDBRANCH  21  24
ENDBRANCH  17  18
ENDBRANCH  15  17
TORSDOF 6
ENDMDL
MODEL 8
REMARK VINA RESULT:     -10.2      2.410      4.557
REMARK  Name = 
REMARK  6 active torsions:
REMARK  status: ('A' for Active; 'I' for Inactive)
REMARK    1  A    between atoms: O_2  and  C_3
REMARK    2  A    between atoms: C_6  and  C_7
REMARK    3  A    between atoms: C_7  and  C_8
REMARK    4  A    between atoms: C_15  and  O_17
REMARK    5  A    between atoms: O_17  and  C_18
REMARK    6  A    between atoms: C_21  and  C_24
REMARK                            x       y       z     vdW  Elec       q    Type
REMARK                         _______ _______ _______ _____ _____    ______ ____
ROOT
ATOM      8  C   UNL     1      -3.953   0.282  24.978  0.00  0.00    +0.230 C 
ATOM      9  O   UNL     1      -3.465   0.809  25.383  0.00  0.00    -0.275 OA
ATOM     10  N   UNL     1      -3.672  -0.467  24.775  0.00  0.00    -0.273 N 
ATOM     11  C   UNL     1      -4.205  -0.951  24.371  0.00  0.00    +0.126 C 
ATOM     12  C   UNL     1      -4.092  -1.720  24.095  0.00  0.00    +0.164 C 
ATOM     13  O   UNL     1      -3.421  -2.195  24.155  0.00  0.00    -0.348 OA
ATOM     14  C   UNL     1      -2.695  -2.018  24.505  0.00  0.00    +0.187 C 
ATOM     15  C   UNL     1      -2.462  -1.323  24.882  0.00  0.00    +0.217 C 
ATOM     16  C   UNL     1      -2.897  -0.632  25.002  0.00  0.00    +0.140 C 
ENDROOT
BRANCH   8   7
ATOM      7  C   UNL     1      -4.722   0.503  24.776  0.00  0.00    +0.112 C 
BRANCH   7   6
ATOM      3  C   UNL     1      -5.556   2.759  25.362  0.00  0.00    +0.139 A 
ATOM      4  C   UNL     1      -5.020   2.665  24.742  0.00  0.00    +0.037 A 
ATOM      5  C   UNL     1      -4.742   1.913  24.547  0.00  0.00    -0.001 A 
ATOM      6  C   UNL     1      -5.000   1.255  24.971  0.00  0.00    -0.013 A 
ATOM     28  C   UNL     1      -5.536   1.348  25.592  0.00  0.00    -0.001 A 
ATOM     29  C   UNL     1      -5.814   2.100  25.788  0.00  0.00    +0.037 A 
BRANCH   3   2
ATOM      1  C   UNL     1      -5.331   4.163  25.501  0.00  0.00    +0.252 C 
ATOM      2  O   UNL     1      -5.833   3.511  25.558  0.00  0.00    -0.471 OA
ENDBRANCH   3   2
ENDBRANCH   7   6
ENDBRANCH   8   7
BRANCH  15  17
ATOM     17  O   UNL     1      -1.692  -1.317  25.179  0.00  0.00    -0.460 OA
BRANCH  17  18
ATOM     18  C   UNL     1      -1.084  -0.972  24.741  0.00  0.00    +0.225 A 
ATOM     19  C   UNL     1      -0.757  -0.255  24.985  0.00  0.00    +0.058 A 
ATOM     20  C   UNL     1      -0.149   0.091  24.546  0.00  0.00    +0.010 A 
ATOM     21  C   UNL     1       0.131  -0.280  23.865  0.00  0.00    +0.091 A 
ATOM     22  C   UNL     1      -0.197  -0.997  23.621  0.00  0.00    +0.106 A 
ATOM     23  N   UNL     1      -0.804  -1.342  24.059  0.00  0.00    -0.210 NA
BRANCH  21  24
ATOM     24  C   UNL     1       0.739   0.065  23.427  0.00  0.00    +0.420 C 
ATOM     25  F   UNL     1       1.347   0.410  22.988  0.00  0.00    -0.166 F 
ATOM     26  F   UNL     1       0.365   0.798  23.486  0.00  0.00    -0.166 F 
ATOM     27  F   UNL     1       1.113  -0.668  23.368  0.00  0.00    -0.166 F 
ENDBRANCH  21  24
ENDBRANCH  17  18
ENDBRANCH  15  17
TORSDOF 6
ENDMDL
