MODEL 1
REMARK VINA RESULT:     -11.4      0.000      0.000
REMARK  Name = 
REMARK  7 active torsions:
REMARK  status: ('A' for Active; 'I' for Inactive)
REMARK    1  A    between atoms: O_2  and  C_3
REMARK    2  A    between atoms: C_4  and  C_5
REMARK    3  A    between atoms: C_5  and  N_6
REMARK    4  A    between atoms: C_7  and  C_9
REMARK    5  A    between atoms: C_16  and  C_17
REMARK    6  A    between atoms: C_17  and  N_18
REMARK    7  A    between atoms: C_20  and  C_23
REMARK                            x       y       z     vdW  Elec       q    Type
REMARK                         _______ _______ _______ _____ _____    ______ ____
ROOT
ATOM      9  C   UNL     1      -0.522   1.068  25.157  0.00  0.00    +0.094 C 
ATOM     10  C   UNL     1      -0.858   0.797  25.805  0.00  0.00    +0.081 C 
ATOM     11  N   UNL     1      -0.615   0.347  25.157  0.00  0.00    -0.272 NA
ATOM     12  C   UNL     1      -0.204   1.010  24.456  0.00  0.00    +0.072 C 
ATOM     13  C   UNL     1       0.079   1.121  23.878  0.00  0.00    +0.018 C 
ATOM     14  C   UNL     1      -0.287   0.620  24.525  0.00  0.00    +0.013 C 
ATOM     15  C   UNL     1      -0.327  -0.243  24.369  0.00  0.00    +0.019 C 
ATOM     16  C   UNL     1      -0.653  -0.549  24.987  0.00  0.00    +0.082 C 
ENDROOT
BRANCH   9   7
ATOM      6  N   UNL     1      -1.002   2.407  25.297  0.00  0.00    -0.200 NA
ATOM      7  C   UNL     1      -0.394   1.883  25.110  0.00  0.00    +0.243 C 
ATOM      8  O   UNL     1       0.343   2.171  24.876  0.00  0.00    -0.273 OA
BRANCH   6   5
ATOM      5  C   UNL     1      -0.874   3.220  25.250  0.00  0.00    +0.144 C 
BRANCH   5   4
ATOM      3  C   UNL     1      -1.417   4.542  25.221  0.00  0.00    +0.136 A 
ATOM      4  C   UNL     1      -1.487   3.745  25.422  0.00  0.00    +0.033 A 
ATOM     29  C   UNL     1      -2.170   3.473  25.796  0.00  0.00    +0.000 A 
ATOM     30  C   UNL     1      -2.784   3.997  25.969  0.00  0.00    -0.000 A 
ATOM     31  C   UNL     1      -2.713   4.795  25.767  0.00  0.00    +0.003 A 
ATOM     32  C   UNL     1      -2.030   5.066  25.394  0.00  0.00    +0.037 A 
BRANCH   3   2
ATOM      1  C   UNL     1      -0.680   5.603  24.610  0.00  0.00    +0.252 C 
ATOM      2  O   UNL     1      -0.734   4.815  24.847  0.00  0.00    -0.472 OA
ENDBRANCH   3   2
ENDBRANCH   5   4
ENDBRANCH   6   5
ENDBRANCH   9   7
BRANCH  16  17
ATOM     17  C   UNL     1      -0.897  -1.267  25.311  0.00  0.00    +0.145 C 
BRANCH  17  18
ATOM     18  N   UNL     1      -1.430  -1.745  24.901  0.00  0.00    -0.229 N 
ATOM     19  C   UNL     1      -2.252  -1.725  24.970  0.00  0.00    +0.116 A 
ATOM     20  C   UNL     1      -2.564  -2.295  24.462  0.00  0.00    +0.128 A 
ATOM     21  N   UNL     1      -1.934  -2.667  24.079  0.00  0.00    -0.131 NA
ATOM     22  N   UNL     1      -1.234  -2.327  24.351  0.00  0.00    -0.064 NA
BRANCH  20  23
ATOM     23  C   UNL     1      -3.364  -2.464  24.355  0.00  0.00    +0.165 C 
ATOM     24  O   UNL     1      -3.174  -3.178  24.722  0.00  0.00    -0.220 OA
ATOM     25  C   UNL     1      -3.387  -1.714  24.011  0.00  0.00    +0.036 C 
ATOM     26  C   UNL     1      -4.162  -1.569  23.768  0.00  0.00    +0.003 C 
ATOM     27  C   UNL     1      -4.618  -2.229  23.962  0.00  0.00    +0.003 C 
ATOM     28  C   UNL     1      -4.125  -2.781  24.325  0.00  0.00    +0.036 C 
ENDBRANCH  20  23
ENDBRANCH  17  18
ENDBRANCH  16  17
TORSDOF 7
ENDMDL
MODEL 2
REMARK VINA RESULT:     -11.3      2.249      6.344
REMARK  Name = 
REMARK  7 active torsions:
REMARK  status: ('A' for Active; 'I' for Inactive)
REMARK    1  A    between atoms: O_2  and  C_3
REMARK    2  A    between atoms: C_4  and  C_5
REMARK    3  A    between atoms: C_5  and  N_6
REMARK    4  A    between atoms: C_7  and  C_9
REMARK    5  A    between atoms: C_16  and  C_17
REMARK    6  A    between atoms: C_17  and  N_18
REMARK    7  A    between atoms: C_20  and  C_23
REMARK                            x       y       z     vdW  Elec       q    Type
REMARK                         _______ _______ _______ _____ _____    ______ ____
ROOT
ATOM      9  C   UNL     1      -4.672   1.473  24.732  0.00  0.00    +0.094 C 
ATOM     10  C   UNL     1      -4.146   1.764  24.239  0.00  0.00    +0.081 C 
ATOM     11  N   UNL     1      -4.580   2.191  24.797  0.00  0.00    -0.272 NA
ATOM     12  C   UNL     1      -5.197   1.507  25.298  0.00  0.00    +0.072 C 
ATOM     13  C   UNL     1      -5.650   1.376  25.749  0.00  0.00    +0.018 C 
ATOM     14  C   UNL     1      -5.094   1.898  25.277  0.00  0.00    +0.013 C 
ATOM     15  C   UNL     1      -5.102   2.752  25.479  0.00  0.00    +0.019 C 
ATOM     16  C   UNL     1      -4.593   3.077  25.012  0.00  0.00    +0.082 C 
ENDROOT
BRANCH   9   7
ATOM      6  N   UNL     1      -4.182   0.130  24.732  0.00  0.00    -0.200 NA
ATOM      7  C   UNL     1      -4.813   0.659  24.698  0.00  0.00    +0.243 C 
ATOM      8  O   UNL     1      -5.586   0.377  24.629  0.00  0.00    -0.273 OA
BRANCH   6   5
ATOM      5  C   UNL     1      -4.323  -0.682  24.697  0.00  0.00    +0.144 C 
BRANCH   5   4
ATOM      3  C   UNL     1      -3.721  -1.930  24.348  0.00  0.00    +0.136 A 
ATOM      4  C   UNL     1      -3.694  -1.213  24.754  0.00  0.00    +0.033 A 
ATOM     29  C   UNL     1      -3.038  -1.026  25.218  0.00  0.00    +0.000 A 
ATOM     30  C   UNL     1      -2.408  -1.557  25.276  0.00  0.00    -0.000 A 
ATOM     31  C   UNL     1      -2.436  -2.275  24.869  0.00  0.00    +0.003 A 
ATOM     32  C   UNL     1      -3.092  -2.461  24.406  0.00  0.00    +0.037 A 
BRANCH   3   2
ATOM      1  C   UNL     1      -4.425  -2.853  23.514  0.00  0.00    +0.252 C 
ATOM      2  O   UNL     1      -4.377  -2.117  23.884  0.00  0.00    -0.472 OA
ENDBRANCH   3   2
ENDBRANCH   5   4
ENDBRANCH   6   5
ENDBRANCH   9   7
BRANCH  16  17
ATOM     17  C   UNL     1      -4.254   3.804  24.817  0.00  0.00    +0.145 C 
BRANCH  17  18
ATOM     18  N   UNL     1      -3.543   4.034  25.165  0.00  0.00    -0.229 N 
ATOM     19  C   UNL     1      -2.821   4.126  24.776  0.00  0.00    +0.116 A 
ATOM     20  C   UNL     1      -2.260   4.362  25.333  0.00  0.00    +0.128 A 
ATOM     21  N   UNL     1      -2.636   4.415  26.066  0.00  0.00    -0.131 NA
ATOM     22  N   UNL     1      -3.428   4.213  25.962  0.00  0.00    -0.064 NA
BRANCH  20  23
ATOM     23  C   UNL     1      -1.463   4.516  25.184  0.00  0.00    +0.165 C 
ATOM     24  O   UNL     1      -1.727   5.288  25.056  0.00  0.00    -0.220 OA
ATOM     25  C   UNL     1      -1.367   3.712  25.343  0.00  0.00    +0.036 C 
ATOM     26  C   UNL     1      -0.566   3.532  25.265  0.00  0.00    +0.003 C 
ATOM     27  C   UNL     1      -0.167   4.224  25.057  0.00  0.00    +0.003 C 
ATOM     28  C   UNL     1      -0.722   4.832  25.007  0.00  0.00    +0.036 C 
ENDBRANCH  20  23
ENDBRANCH  17  18
ENDBRANCH  16  17
TORSDOF 7
ENDMDL
MODEL 3
REMARK VINA RESULT:     -10.4      1.355      1.897
REMARK  Name = 
REMARK  7 active torsions:
REMARK  status: ('A' for Active; 'I' for Inactive)
REMARK    1  A    between atoms: O_2  and  C_3
REMARK    2  A    between atoms: C_4  and  C_5
REMARK    3  A    between atoms: C_5  and  N_6
REMARK    4  A    between atoms: C_7  and  C_9
REMARK    5  A    between atoms: C_16  and  C_17
REMARK    6  A    between atoms: C_17  and  N_18
REMARK    7  A    between atoms: C_20  and  C_23
REMARK                            x       y       z     vdW  Elec       q    Type
REMARK                         _______ _______ _______ _____ _____    ______ ____
ROOT
ATOM      9  C   UNL     1      -1.275   1.796  24.363  0.00  0.00    +0.094 C 
ATOM     10  C   UNL     1      -1.574   1.330  23.817  0.00  0.00    +0.081 C 
ATOM     11  N   UNL     1      -0.941   1.152  24.316  0.00  0.00    -0.272 NA
ATOM     12  C   UNL     1      -0.788   1.988  24.931  0.00  0.00    +0.072 C 
ATOM     13  C   UNL     1      -0.461   2.288  25.410  0.00  0.00    +0.018 C 
ATOM     14  C   UNL     1      -0.653   1.615  24.849  0.00  0.00    +0.013 C 
ATOM     15  C   UNL     1      -0.152   0.899  24.921  0.00  0.00    +0.019 C 
ATOM     16  C   UNL     1      -0.415   0.411  24.396  0.00  0.00    +0.082 C 
ENDROOT
BRANCH   9   7
ATOM      6  N   UNL     1      -2.417   2.603  24.659  0.00  0.00    -0.200 NA
ATOM      7  C   UNL     1      -1.621   2.541  24.454  0.00  0.00    +0.243 C 
ATOM      8  O   UNL     1      -1.169   3.222  24.341  0.00  0.00    -0.273 OA
BRANCH   6   5
ATOM      5  C   UNL     1      -2.762   3.346  24.750  0.00  0.00    +0.144 C 
BRANCH   5   4
ATOM      3  C   UNL     1      -3.797   3.825  25.612  0.00  0.00    +0.136 A 
ATOM      4  C   UNL     1      -3.563   3.409  24.939  0.00  0.00    +0.033 A 
ATOM     29  C   UNL     1      -4.130   3.056  24.454  0.00  0.00    +0.000 A 
ATOM     30  C   UNL     1      -4.931   3.119  24.642  0.00  0.00    -0.000 A 
ATOM     31  C   UNL     1      -5.164   3.535  25.316  0.00  0.00    +0.003 A 
ATOM     32  C   UNL     1      -4.598   3.888  25.800  0.00  0.00    +0.037 A 
BRANCH   3   2
ATOM      1  C   UNL     1      -3.449   4.487  26.829  0.00  0.00    +0.252 C 
ATOM      2  O   UNL     1      -3.231   4.178  26.097  0.00  0.00    -0.472 OA
ENDBRANCH   3   2
ENDBRANCH   5   4
ENDBRANCH   6   5
ENDBRANCH   9   7
BRANCH  16  17
ATOM     17  C   UNL     1      -0.295  -0.343  24.085  0.00  0.00    +0.145 C 
BRANCH  17  18
ATOM     18  N   UNL     1      -0.693  -0.991  24.406  0.00  0.00    -0.229 N 
ATOM     19  C   UNL     1      -1.408  -1.302  24.137  0.00  0.00    +0.116 A 
ATOM     20  C   UNL     1      -1.602  -1.945  24.618  0.00  0.00    +0.128 A 
ATOM     21  N   UNL     1      -1.007  -2.029  25.183  0.00  0.00    -0.131 NA
ATOM     22  N   UNL     1      -0.446  -1.440  25.052  0.00  0.00    -0.064 NA
BRANCH  20  23
ATOM     23  C   UNL     1      -2.274  -2.419  24.546  0.00  0.00    +0.165 C 
ATOM     24  O   UNL     1      -1.794  -2.872  24.050  0.00  0.00    -0.220 OA
ATOM     25  C   UNL     1      -2.613  -1.866  25.056  0.00  0.00    +0.036 C 
ATOM     26  C   UNL     1      -3.393  -2.093  25.196  0.00  0.00    +0.003 C 
ATOM     27  C   UNL     1      -3.537  -2.787  24.771  0.00  0.00    +0.003 C 
ATOM     28  C   UNL     1      -2.845  -2.987  24.370  0.00  0.00    +0.036 C 
ENDBRANCH  20  23
ENDBRANCH  17  18
ENDBRANCH  16  17
TORSDOF 7
ENDMDL
MODEL 4
REMARK VINA RESULT:     -10.3      3.023      5.659
REMARK  Name = 
REMARK  7 active torsions:
REMARK  status: ('A' for Active; 'I' for Inactive)
REMARK    1  A    between atoms: O_2  and  C_3
REMARK    2  A    between atoms: C_4  and  C_5
REMARK    3  A    between atoms: C_5  and  N_6
REMARK    4  A    between atoms: C_7  and  C_9
REMARK    5  A    between atoms: C_16  and  C_17
REMARK    6  A    between atoms: C_17  and  N_18
REMARK    7  A    between atoms: C_20  and  C_23
REMARK                            x       y       z     vdW  Elec       q    Type
REMARK                         _______ _______ _______ _____ _____    ______ ____
ROOT
ATOM      9  C   UNL     1      -0.217  -0.109  24.031  0.00  0.00    +0.094 C 
ATOM     10  C   UNL     1       0.012  -0.806  23.772  0.00  0.00    +0.081 C 
ATOM     11  N   UNL     1       0.362  -0.080  23.593  0.00  0.00    -0.272 NA
ATOM     12  C   UNL     1      -0.182   0.659  24.098  0.00  0.00    +0.072 C 
ATOM     13  C   UNL     1      -0.283   1.287  24.251  0.00  0.00    +0.018 C 
ATOM     14  C   UNL     1       0.132   0.599  23.851  0.00  0.00    +0.013 C 
ATOM     15  C   UNL     1       0.822   0.804  23.349  0.00  0.00    +0.019 C 
ATOM     16  C   UNL     1       1.079   0.140  23.072  0.00  0.00    +0.082 C 
ENDROOT
BRANCH   9   7
ATOM      6  N   UNL     1      -1.572  -0.464  24.312  0.00  0.00    -0.200 NA
ATOM      7  C   UNL     1      -0.872  -0.090  24.534  0.00  0.00    +0.243 C 
ATOM      8  O   UNL     1      -0.825   0.304  25.257  0.00  0.00    -0.273 OA
BRANCH   6   5
ATOM      5  C   UNL     1      -2.226  -0.444  24.814  0.00  0.00    +0.144 C 
BRANCH   5   4
ATOM      3  C   UNL     1      -3.640  -0.484  24.610  0.00  0.00    +0.136 A 
ATOM      4  C   UNL     1      -2.909  -0.865  24.620  0.00  0.00    +0.033 A 
ATOM     29  C   UNL     1      -2.860  -1.668  24.435  0.00  0.00    +0.000 A 
ATOM     30  C   UNL     1      -3.542  -2.089  24.241  0.00  0.00    -0.000 A 
ATOM     31  C   UNL     1      -4.274  -1.707  24.231  0.00  0.00    +0.003 A 
ATOM     32  C   UNL     1      -4.322  -0.905  24.415  0.00  0.00    +0.037 A 
BRANCH   3   2
ATOM      1  C   UNL     1      -4.428   0.681  24.867  0.00  0.00    +0.252 C 
ATOM      2  O   UNL     1      -3.690   0.319  24.794  0.00  0.00    -0.472 OA
ENDBRANCH   3   2
ENDBRANCH   5   4
ENDBRANCH   6   5
ENDBRANCH   9   7
BRANCH  16  17
ATOM     17  C   UNL     1       1.661  -0.185  22.588  0.00  0.00    +0.145 C 
BRANCH  17  18
ATOM     18  N   UNL     1       2.453   0.021  22.698  0.00  0.00    -0.229 N 
ATOM     19  C   UNL     1       3.017  -0.424  23.103  0.00  0.00    +0.116 A 
ATOM     20  C   UNL     1       3.732  -0.012  23.078  0.00  0.00    +0.128 A 
ATOM     21  N   UNL     1       3.608   0.687  22.657  0.00  0.00    -0.131 NA
ATOM     22  N   UNL     1       2.818   0.707  22.423  0.00  0.00    -0.064 NA
BRANCH  20  23
ATOM     23  C   UNL     1       4.444  -0.256  23.414  0.00  0.00    +0.165 C 
ATOM     24  O   UNL     1       4.076  -0.994  23.447  0.00  0.00    -0.220 OA
ATOM     25  C   UNL     1       4.663   0.533  23.311  0.00  0.00    +0.036 C 
ATOM     26  C   UNL     1       5.434   0.622  23.591  0.00  0.00    +0.003 C 
ATOM     27  C   UNL     1       5.692  -0.112  23.867  0.00  0.00    +0.003 C 
ATOM     28  C   UNL     1       5.080  -0.654  23.758  0.00  0.00    +0.036 C 
ENDBRANCH  20  23
ENDBRANCH  17  18
ENDBRANCH  16  17
TORSDOF 7
ENDMDL
MODEL 5
REMARK VINA RESULT:     -10.2      1.273      5.347
REMARK  Name = 
REMARK  7 active torsions:
REMARK  status: ('A' for Active; 'I' for Inactive)
REMARK    1  A    between atoms: O_2  and  C_3
REMARK    2  A    between atoms: C_4  and  C_5
REMARK    3  A    between atoms: C_5  and  N_6
REMARK    4  A    between atoms: C_7  and  C_9
REMARK    5  A    between atoms: C_16  and  C_17
REMARK    6  A    between atoms: C_17  and  N_18
REMARK    7  A    between atoms: C_20  and  C_23
REMARK                            x       y       z     vdW  Elec       q    Type
REMARK                         _______ _______ _______ _____ _____    ______ ____
ROOT
ATOM      9  C   UNL     1      -0.655   0.716  25.073  0.00  0.00    +0.094 C 
ATOM     10  C   UNL     1      -0.925   0.953  25.763  0.00  0.00    +0.081 C 
ATOM     11  N   UNL     1      -0.581   1.430  25.183  0.00  0.00    -0.272 NA
ATOM     12  C   UNL     1      -0.327   0.807  24.380  0.00  0.00    +0.072 C 
ATOM     13  C   UNL     1      -0.072   0.723  23.784  0.00  0.00    +0.018 C 
ATOM     14  C   UNL     1      -0.319   1.190  24.509  0.00  0.00    +0.013 C 
ATOM     15  C   UNL     1      -0.159   2.052  24.486  0.00  0.00    +0.019 C 
ATOM     16  C   UNL     1      -0.412   2.326  25.152  0.00  0.00    +0.082 C 
ENDROOT
BRANCH   9   7
ATOM      6  N   UNL     1      -1.438  -0.478  24.995  0.00  0.00    -0.200 NA
ATOM      7  C   UNL     1      -0.717  -0.090  24.900  0.00  0.00    +0.243 C 
ATOM      8  O   UNL     1      -0.056  -0.506  24.632  0.00  0.00    -0.273 OA
BRANCH   6   5
ATOM      5  C   UNL     1      -1.499  -1.282  24.822  0.00  0.00    +0.144 C 
BRANCH   5   4
ATOM      3  C   UNL     1      -2.353  -2.385  24.509  0.00  0.00    +0.136 A 
ATOM      4  C   UNL     1      -2.227  -1.665  24.892  0.00  0.00    +0.033 A 
ATOM     29  C   UNL     1      -2.829  -1.328  25.344  0.00  0.00    +0.000 A 
ATOM     30  C   UNL     1      -3.557  -1.710  25.414  0.00  0.00    -0.000 A 
ATOM     31  C   UNL     1      -3.682  -2.430  25.031  0.00  0.00    +0.003 A 
ATOM     32  C   UNL     1      -3.080  -2.767  24.579  0.00  0.00    +0.037 A 
BRANCH   3   2
ATOM      1  C   UNL     1      -1.904  -3.394  23.603  0.00  0.00    +0.252 C 
ATOM      2  O   UNL     1      -1.751  -2.722  24.057  0.00  0.00    -0.472 OA
ENDBRANCH   3   2
ENDBRANCH   5   4
ENDBRANCH   6   5
ENDBRANCH   9   7
BRANCH  16  17
ATOM     17  C   UNL     1      -0.487   3.023  25.587  0.00  0.00    +0.145 C 
BRANCH  17  18
ATOM     18  N   UNL     1      -1.151   3.502  25.487  0.00  0.00    -0.229 N 
ATOM     19  C   UNL     1      -1.912   3.338  25.760  0.00  0.00    +0.116 A 
ATOM     20  C   UNL     1      -2.402   3.965  25.538  0.00  0.00    +0.128 A 
ATOM     21  N   UNL     1      -1.943   4.514  25.128  0.00  0.00    -0.131 NA
ATOM     22  N   UNL     1      -1.170   4.229  25.097  0.00  0.00    -0.064 NA
BRANCH  20  23
ATOM     23  C   UNL     1      -3.209   4.030  25.698  0.00  0.00    +0.165 C 
ATOM     24  O   UNL     1      -2.953   4.301  26.433  0.00  0.00    -0.220 OA
ATOM     25  C   UNL     1      -3.296   3.744  24.928  0.00  0.00    +0.036 C 
ATOM     26  C   UNL     1      -4.103   3.689  24.767  0.00  0.00    +0.003 C 
ATOM     27  C   UNL     1      -4.515   3.941  25.437  0.00  0.00    +0.003 C 
ATOM     28  C   UNL     1      -3.962   4.151  26.011  0.00  0.00    +0.036 C 
ENDBRANCH  20  23
ENDBRANCH  17  18
ENDBRANCH  16  17
TORSDOF 7
ENDMDL
MODEL 6
REMARK VINA RESULT:     -10.2      0.958      5.569
REMARK  Name = 
REMARK  7 active torsions:
REMARK  status: ('A' for Active; 'I' for Inactive)
REMARK    1  A    between atoms: O_2  and  C_3
REMARK    2  A    between atoms: C_4  and  C_5
REMARK    3  A    between atoms: C_5  and  N_6
REMARK    4  A    between atoms: C_7  and  C_9
REMARK    5  A    between atoms: C_16  and  C_17
REMARK    6  A    between atoms: C_17  and  N_18
REMARK    7  A    between atoms: C_20  and  C_23
REMARK                            x       y       z     vdW  Elec       q    Type
REMARK                         _______ _______ _______ _____ _____    ______ ____
ROOT
ATOM      9  C   UNL     1      -0.771   0.131  24.987  0.00  0.00    +0.094 C 
ATOM     10  C   UNL     1      -0.965   0.544  25.618  0.00  0.00    +0.081 C 
ATOM     11  N   UNL     1      -0.437   0.775  25.027  0.00  0.00    -0.272 NA
ATOM     12  C   UNL     1      -0.398  -0.001  24.324  0.00  0.00    +0.072 C 
ATOM     13  C   UNL     1      -0.164  -0.253  23.768  0.00  0.00    +0.018 C 
ATOM     14  C   UNL     1      -0.251   0.365  24.412  0.00  0.00    +0.013 C 
ATOM     15  C   UNL     1       0.225   1.096  24.312  0.00  0.00    +0.019 C 
ATOM     16  C   UNL     1       0.062   1.532  24.917  0.00  0.00    +0.082 C 
ENDROOT
BRANCH   9   7
ATOM      6  N   UNL     1      -1.940  -0.666  24.784  0.00  0.00    -0.200 NA
ATOM      7  C   UNL     1      -1.125  -0.610  24.896  0.00  0.00    +0.243 C 
ATOM      8  O   UNL     1      -0.663  -1.293  24.917  0.00  0.00    -0.273 OA
BRANCH   6   5
ATOM      5  C   UNL     1      -2.293  -1.406  24.693  0.00  0.00    +0.144 C 
BRANCH   5   4
ATOM      3  C   UNL     1      -3.415  -2.198  24.298  0.00  0.00    +0.136 A 
ATOM      4  C   UNL     1      -3.082  -1.460  24.459  0.00  0.00    +0.033 A 
ATOM     29  C   UNL     1      -3.539  -0.777  24.387  0.00  0.00    +0.000 A 
ATOM     30  C   UNL     1      -4.329  -0.831  24.153  0.00  0.00    -0.000 A 
ATOM     31  C   UNL     1      -4.661  -1.569  23.991  0.00  0.00    +0.003 A 
ATOM     32  C   UNL     1      -4.204  -2.252  24.064  0.00  0.00    +0.037 A 
BRANCH   3   2
ATOM      1  C   UNL     1      -3.323  -3.621  24.386  0.00  0.00    +0.252 C 
ATOM      2  O   UNL     1      -2.959  -2.881  24.370  0.00  0.00    -0.472 OA
ENDBRANCH   3   2
ENDBRANCH   5   4
ENDBRANCH   6   5
ENDBRANCH   9   7
BRANCH  16  17
ATOM     17  C   UNL     1       0.234   2.259  25.265  0.00  0.00    +0.145 C 
BRANCH  17  18
ATOM     18  N   UNL     1      -0.129   2.946  24.989  0.00  0.00    -0.229 N 
ATOM     19  C   UNL     1      -0.654   3.420  25.414  0.00  0.00    +0.116 A 
ATOM     20  C   UNL     1      -0.881   4.047  24.927  0.00  0.00    +0.128 A 
ATOM     21  N   UNL     1      -0.497   3.958  24.202  0.00  0.00    -0.131 NA
ATOM     22  N   UNL     1      -0.033   3.279  24.241  0.00  0.00    -0.064 NA
BRANCH  20  23
ATOM     23  C   UNL     1      -1.401   4.654  25.129  0.00  0.00    +0.165 C 
ATOM     24  O   UNL     1      -0.776   5.145  24.911  0.00  0.00    -0.220 OA
ATOM     25  C   UNL     1      -1.918   4.035  25.305  0.00  0.00    +0.036 C 
ATOM     26  C   UNL     1      -2.627   4.364  25.571  0.00  0.00    +0.003 C 
ATOM     27  C   UNL     1      -2.548   5.185  25.560  0.00  0.00    +0.003 C 
ATOM     28  C   UNL     1      -1.791   5.364  25.287  0.00  0.00    +0.036 C 
ENDBRANCH  20  23
ENDBRANCH  17  18
ENDBRANCH  16  17
TORSDOF 7
ENDMDL
MODEL 7
REMARK VINA RESULT:     -10.1      2.257      4.838
REMARK  Name = 
REMARK  7 active torsions:
REMARK  status: ('A' for Active; 'I' for Inactive)
REMARK    1  A    between atoms: O_2  and  C_3
REMARK    2  A    between atoms: C_4  and  C_5
REMARK    3  A    between atoms: C_5  and  N_6
REMARK    4  A    between atoms: C_7  and  C_9
REMARK    5  A    between atoms: C_16  and  C_17
REMARK    6  A    between atoms: C_17  and  N_18
REMARK    7  A    between atoms: C_20  and  C_23
REMARK                            x       y       z     vdW  Elec       q    Type
REMARK                         _______ _______ _______ _____ _____    ______ ____
ROOT
ATOM      9  C   UNL     1      -1.193   2.766  25.405  0.00  0.00    +0.094 C 
ATOM     10  C   UNL     1      -1.652   2.502  25.976  0.00  0.00    +0.081 C 
ATOM     11  N   UNL     1      -1.732   3.222  25.580  0.00  0.00    -0.272 NA
ATOM     12  C   UNL     1      -0.960   3.275  24.872  0.00  0.00    +0.072 C 
ATOM     13  C   UNL     1      -0.648   3.593  24.394  0.00  0.00    +0.018 C 
ATOM     14  C   UNL     1      -1.279   3.474  25.021  0.00  0.00    +0.013 C 
ATOM     15  C   UNL     1      -1.862   4.124  25.109  0.00  0.00    +0.019 C 
ATOM     16  C   UNL     1      -2.335   3.901  25.665  0.00  0.00    +0.082 C 
ENDROOT
BRANCH   9   7
ATOM      6  N   UNL     1      -0.708   1.505  24.942  0.00  0.00    -0.200 NA
ATOM      7  C   UNL     1      -0.565   2.284  25.170  0.00  0.00    +0.243 C 
ATOM      8  O   UNL     1       0.204   2.582  25.164  0.00  0.00    -0.273 OA
BRANCH   6   5
ATOM      5  C   UNL     1      -0.081   1.023  24.707  0.00  0.00    +0.144 C 
BRANCH   5   4
ATOM      3  C   UNL     1       0.150  -0.144  23.915  0.00  0.00    +0.136 A 
ATOM      4  C   UNL     1      -0.208   0.221  24.562  0.00  0.00    +0.033 A 
ATOM     29  C   UNL     1      -0.695  -0.217  25.064  0.00  0.00    +0.000 A 
ATOM     30  C   UNL     1      -0.823  -1.019  24.919  0.00  0.00    -0.000 A 
ATOM     31  C   UNL     1      -0.464  -1.384  24.271  0.00  0.00    +0.003 A 
ATOM     32  C   UNL     1       0.022  -0.946  23.770  0.00  0.00    +0.037 A 
BRANCH   3   2
ATOM      1  C   UNL     1       1.079  -0.089  22.830  0.00  0.00    +0.252 C 
ATOM      2  O   UNL     1       0.637   0.293  23.412  0.00  0.00    -0.472 OA
ENDBRANCH   3   2
ENDBRANCH   5   4
ENDBRANCH   6   5
ENDBRANCH   9   7
BRANCH  16  17
ATOM     17  C   UNL     1      -3.000   4.137  26.092  0.00  0.00    +0.145 C 
BRANCH  17  18
ATOM     18  N   UNL     1      -3.755   3.940  25.824  0.00  0.00    -0.229 N 
ATOM     19  C   UNL     1      -4.180   3.263  26.029  0.00  0.00    +0.116 A 
ATOM     20  C   UNL     1      -4.905   3.290  25.635  0.00  0.00    +0.128 A 
ATOM     21  N   UNL     1      -4.926   3.983  25.188  0.00  0.00    -0.131 NA
ATOM     22  N   UNL     1      -4.216   4.384  25.304  0.00  0.00    -0.064 NA
BRANCH  20  23
ATOM     23  C   UNL     1      -5.503   2.723  25.681  0.00  0.00    +0.165 C 
ATOM     24  O   UNL     1      -5.686   3.100  26.392  0.00  0.00    -0.220 OA
ATOM     25  C   UNL     1      -5.194   2.466  24.960  0.00  0.00    +0.036 C 
ATOM     26  C   UNL     1      -5.640   1.818  24.710  0.00  0.00    +0.003 C 
ATOM     27  C   UNL     1      -6.224   1.676  25.275  0.00  0.00    +0.003 C 
ATOM     28  C   UNL     1      -6.139   2.235  25.875  0.00  0.00    +0.036 C 
ENDBRANCH  20  23
ENDBRANCH  17  18
ENDBRANCH  16  17
TORSDOF 7
ENDMDL
MODEL 8
REMARK VINA RESULT:     -10.1      2.023      3.086
REMARK  Name = 
REMARK  7 active torsions:
REMARK  status: ('A' for Active; 'I' for Inactive)
REMARK    1  A    between atoms: O_2  and  C_3
REMARK    2  A    between atoms: C_4  and  C_5
REMARK    3  A    between atoms: C_5  and  N_6
REMARK    4  A    between atoms: C_7  and  C_9
REMARK    5  A    between atoms: C_16  and  C_17
REMARK    6  A    between atoms: C_17  and  N_18
REMARK    7  A    between atoms: C_20  and  C_23
REMARK                            x       y       z     vdW  Elec       q    Type
REMARK                         _______ _______ _______ _____ _____    ______ ____
ROOT
ATOM      9  C   UNL     1      -4.072   1.306  24.275  0.00  0.00    +0.094 C 
ATOM     10  C   UNL     1      -3.610   1.005  23.726  0.00  0.00    +0.081 C 
ATOM     11  N   UNL     1      -4.124   0.584  24.215  0.00  0.00    -0.272 NA
ATOM     12  C   UNL     1      -4.597   1.280  24.841  0.00  0.00    +0.072 C 
ATOM     13  C   UNL     1      -5.019   1.419  25.320  0.00  0.00    +0.018 C 
ATOM     14  C   UNL     1      -4.574   0.886  24.752  0.00  0.00    +0.013 C 
ATOM     15  C   UNL     1      -4.753   0.029  24.807  0.00  0.00    +0.019 C 
ATOM     16  C   UNL     1      -4.315  -0.306  24.278  0.00  0.00    +0.082 C 
ENDROOT
BRANCH   9   7
ATOM      6  N   UNL     1      -3.336   2.495  24.572  0.00  0.00    -0.200 NA
ATOM      7  C   UNL     1      -4.048   2.125  24.382  0.00  0.00    +0.243 C 
ATOM      8  O   UNL     1      -4.736   2.572  24.298  0.00  0.00    -0.273 OA
BRANCH   6   5
ATOM      5  C   UNL     1      -3.312   3.313  24.678  0.00  0.00    +0.144 C 
BRANCH   5   4
ATOM      3  C   UNL     1      -2.539   4.197  25.492  0.00  0.00    +0.136 A 
ATOM      4  C   UNL     1      -2.596   3.687  24.847  0.00  0.00    +0.033 A 
ATOM     29  C   UNL     1      -1.937   3.550  24.369  0.00  0.00    +0.000 A 
ATOM     30  C   UNL     1      -1.221   3.924  24.537  0.00  0.00    -0.000 A 
ATOM     31  C   UNL     1      -1.164   4.434  25.183  0.00  0.00    +0.003 A 
ATOM     32  C   UNL     1      -1.823   4.570  25.660  0.00  0.00    +0.037 A 
BRANCH   3   2
ATOM      1  C   UNL     1      -3.098   4.615  26.739  0.00  0.00    +0.252 C 
ATOM      2  O   UNL     1      -3.197   4.334  25.970  0.00  0.00    -0.472 OA
ENDBRANCH   3   2
ENDBRANCH   5   4
ENDBRANCH   6   5
ENDBRANCH   9   7
BRANCH  16  17
ATOM     17  C   UNL     1      -4.127  -1.041  23.955  0.00  0.00    +0.145 C 
BRANCH  17  18
ATOM     18  N   UNL     1      -3.572  -1.526  24.326  0.00  0.00    -0.229 N 
ATOM     19  C   UNL     1      -2.757  -1.512  24.203  0.00  0.00    +0.116 A 
ATOM     20  C   UNL     1      -2.416  -2.088  24.687  0.00  0.00    +0.128 A 
ATOM     21  N   UNL     1      -3.022  -2.456  25.109  0.00  0.00    -0.131 NA
ATOM     22  N   UNL     1      -3.736  -2.109  24.886  0.00  0.00    -0.064 NA
BRANCH  20  23
ATOM     23  C   UNL     1      -1.612  -2.263  24.740  0.00  0.00    +0.165 C 
ATOM     24  O   UNL     1      -1.812  -2.913  24.273  0.00  0.00    -0.220 OA
ATOM     25  C   UNL     1      -1.581  -1.575  25.195  0.00  0.00    +0.036 C 
ATOM     26  C   UNL     1      -0.798  -1.462  25.431  0.00  0.00    +0.003 C 
ATOM     27  C   UNL     1      -0.346  -2.080  25.122  0.00  0.00    +0.003 C 
ATOM     28  C   UNL     1      -0.849  -2.574  24.695  0.00  0.00    +0.036 C 
ENDBRANCH  20  23
ENDBRANCH  17  18
ENDBRANCH  16  17
TORSDOF 7
ENDMDL
