MODEL 1
REMARK VINA RESULT:     -11.2      0.000      0.000
REMARK  Name = 
REMARK  6 active torsions:
REMARK  status: ('A' for Active; 'I' for Inactive)
REMARK    1  A    between atoms: C_4  and  C_24
REMARK    2  A    between atoms: C_6  and  C_7
REMARK    3  A    between atoms: C_14  and  C_15
REMARK    4  A    between atoms: C_15  and  N_16
REMARK    5  A    between atoms: N_16  and  C_17
REMARK    6  A    between atoms: C_17  and  C_18
REMARK                            x       y       z     vdW  Elec       q    Type
REMARK                         _______ _______ _______ _____ _____    ______ ____
ROOT
ATOM      7  C   UNL     1      -1.052   0.090  24.943  0.00  0.00    +0.056 C 
ATOM      8  C   UNL     1      -1.128   0.519  25.587  0.00  0.00    +0.078 C 
ATOM      9  N   UNL     1      -0.689   0.719  24.918  0.00  0.00    -0.272 NA
ATOM     10  C   UNL     1      -0.792  -0.069  24.234  0.00  0.00    +0.072 C 
ATOM     11  C   UNL     1      -0.658  -0.339  23.654  0.00  0.00    +0.018 C 
ATOM     12  C   UNL     1      -0.619   0.292  24.290  0.00  0.00    +0.010 C 
ATOM     13  C   UNL     1      -0.134   0.999  24.102  0.00  0.00    +0.018 C 
ATOM     14  C   UNL     1      -0.183   1.451  24.715  0.00  0.00    +0.075 C 
ENDROOT
BRANCH   7   6
ATOM      1  C   UNL     1      -0.472  -1.447  25.671  0.00  0.00    +0.153 C 
ATOM      2  N   UNL     1      -1.179  -1.342  25.259  0.00  0.00    -0.253 N 
ATOM      3  N   UNL     1      -1.744  -1.924  25.108  0.00  0.00    -0.170 NA
ATOM      4  C   UNL     1      -2.359  -1.579  24.681  0.00  0.00    +0.102 A 
ATOM      5  C   UNL     1      -2.175  -0.783  24.567  0.00  0.00    +0.035 A 
ATOM      6  C   UNL     1      -1.446  -0.636  24.924  0.00  0.00    +0.058 A 
BRANCH   4  24
ATOM     24  C   UNL     1      -3.039  -1.962  24.414  0.00  0.00    +0.019 A 
ATOM     25  C   UNL     1      -3.069  -2.786  24.401  0.00  0.00    +0.002 A 
ATOM     26  C   UNL     1      -3.750  -3.169  24.134  0.00  0.00    +0.000 A 
ATOM     27  C   UNL     1      -4.399  -2.728  23.881  0.00  0.00    +0.000 A 
ATOM     28  C   UNL     1      -4.369  -1.904  23.894  0.00  0.00    +0.000 A 
ATOM     29  C   UNL     1      -3.689  -1.521  24.161  0.00  0.00    +0.002 A 
ENDBRANCH   4  24
ENDBRANCH   7   6
BRANCH  14  15
ATOM     15  C   UNL     1       0.071   2.175  25.017  0.00  0.00    +0.105 C 
BRANCH  15  16
ATOM     16  N   UNL     1      -0.341   2.866  24.834  0.00  0.00    -0.210 NA
BRANCH  16  17
ATOM     17  C   UNL     1      -0.265   3.530  25.318  0.00  0.00    +0.134 C 
BRANCH  17  18
ATOM     18  C   UNL     1      -0.815   4.144  25.263  0.00  0.00    +0.077 A 
ATOM     19  N   UNL     1      -1.564   4.057  25.599  0.00  0.00    -0.247 NA
ATOM     20  C   UNL     1      -2.113   4.671  25.544  0.00  0.00    +0.098 A 
ATOM     21  C   UNL     1      -1.913   5.370  25.155  0.00  0.00    +0.021 A 
ATOM     22  C   UNL     1      -1.164   5.456  24.820  0.00  0.00    +0.003 A 
ATOM     23  C   UNL     1      -0.616   4.844  24.874  0.00  0.00    +0.016 A 
ENDBRANCH  17  18
ENDBRANCH  16  17
ENDBRANCH  15  16
ENDBRANCH  14  15
TORSDOF 6
ENDMDL
MODEL 2
REMARK VINA RESULT:     -11.1      0.759      5.560
REMARK  Name = 
REMARK  6 active torsions:
REMARK  status: ('A' for Active; 'I' for Inactive)
REMARK    1  A    between atoms: C_4  and  C_24
REMARK    2  A    between atoms: C_6  and  C_7
REMARK    3  A    between atoms: C_14  and  C_15
REMARK    4  A    between atoms: C_15  and  N_16
REMARK    5  A    between atoms: N_16  and  C_17
REMARK    6  A    between atoms: C_17  and  C_18
REMARK                            x       y       z     vdW  Elec       q    Type
REMARK                         _______ _______ _______ _____ _____    ______ ____
ROOT
ATOM      7  C   UNL     1      -0.780   1.310  25.285  0.00  0.00    +0.056 C 
ATOM      8  C   UNL     1      -1.214   0.863  25.750  0.00  0.00    +0.078 C 
ATOM      9  N   UNL     1      -0.811   0.616  25.074  0.00  0.00    -0.272 NA
ATOM     10  C   UNL     1      -0.325   1.456  24.679  0.00  0.00    +0.072 C 
ATOM     11  C   UNL     1       0.058   1.730  24.225  0.00  0.00    +0.018 C 
ATOM     12  C   UNL     1      -0.387   1.060  24.623  0.00  0.00    +0.010 C 
ATOM     13  C   UNL     1      -0.322   0.273  24.240  0.00  0.00    +0.018 C 
ATOM     14  C   UNL     1      -0.739  -0.200  24.671  0.00  0.00    +0.075 C 
ENDROOT
BRANCH   7   6
ATOM      1  C   UNL     1       0.211   1.990  26.619  0.00  0.00    +0.153 C 
ATOM      2  N   UNL     1      -0.258   2.422  26.096  0.00  0.00    -0.253 N 
ATOM      3  N   UNL     1      -0.356   3.241  26.093  0.00  0.00    -0.170 NA
ATOM      4  C   UNL     1      -0.871   3.435  25.479  0.00  0.00    +0.102 A 
ATOM      5  C   UNL     1      -1.092   2.736  25.102  0.00  0.00    +0.035 A 
ATOM      6  C   UNL     1      -0.714   2.110  25.483  0.00  0.00    +0.058 A 
BRANCH   4  24
ATOM     24  C   UNL     1      -1.120   4.195  25.278  0.00  0.00    +0.019 A 
ATOM     25  C   UNL     1      -0.603   4.712  24.896  0.00  0.00    +0.002 A 
ATOM     26  C   UNL     1      -0.853   5.472  24.695  0.00  0.00    +0.000 A 
ATOM     27  C   UNL     1      -1.620   5.715  24.876  0.00  0.00    +0.000 A 
ATOM     28  C   UNL     1      -2.137   5.199  25.258  0.00  0.00    +0.000 A 
ATOM     29  C   UNL     1      -1.888   4.439  25.459  0.00  0.00    +0.002 A 
ENDBRANCH   4  24
ENDBRANCH   7   6
BRANCH  14  15
ATOM     15  C   UNL     1      -0.981  -0.985  24.734  0.00  0.00    +0.105 C 
BRANCH  15  16
ATOM     16  N   UNL     1      -1.711  -1.218  24.427  0.00  0.00    -0.210 NA
BRANCH  16  17
ATOM     17  C   UNL     1      -2.036  -1.944  24.645  0.00  0.00    +0.134 C 
BRANCH  17  18
ATOM     18  C   UNL     1      -2.810  -2.130  24.429  0.00  0.00    +0.077 A 
ATOM     19  N   UNL     1      -3.305  -1.545  24.121  0.00  0.00    -0.247 NA
ATOM     20  C   UNL     1      -4.079  -1.731  23.905  0.00  0.00    +0.098 A 
ATOM     21  C   UNL     1      -4.358  -2.502  23.995  0.00  0.00    +0.021 A 
ATOM     22  C   UNL     1      -3.864  -3.087  24.302  0.00  0.00    +0.003 A 
ATOM     23  C   UNL     1      -3.091  -2.901  24.519  0.00  0.00    +0.016 A 
ENDBRANCH  17  18
ENDBRANCH  16  17
ENDBRANCH  15  16
ENDBRANCH  14  15
TORSDOF 6
ENDMDL
MODEL 3
REMARK VINA RESULT:     -10.9      2.249      6.243
REMARK  Name = 
REMARK  6 active torsions:
REMARK  status: ('A' for Active; 'I' for Inactive)
REMARK    1  A    between atoms: C_4  and  C_24
REMARK    2  A    between atoms: C_6  and  C_7
REMARK    3  A    between atoms: C_14  and  C_15
REMARK    4  A    between atoms: C_15  and  N_16
REMARK    5  A    between atoms: N_16  and  C_17
REMARK    6  A    between atoms: C_17  and  C_18
REMARK                            x       y       z     vdW  Elec       q    Type
REMARK                         _______ _______ _______ _____ _____    ______ ____
ROOT
ATOM      7  C   UNL     1      -3.694   2.349  24.959  0.00  0.00    +0.056 C 
ATOM      8  C   UNL     1      -3.814   1.859  25.552  0.00  0.00    +0.078 C 
ATOM      9  N   UNL     1      -4.001   1.722  24.759  0.00  0.00    -0.272 NA
ATOM     10  C   UNL     1      -3.713   2.574  24.221  0.00  0.00    +0.072 C 
ATOM     11  C   UNL     1      -3.660   2.898  23.656  0.00  0.00    +0.018 C 
ATOM     12  C   UNL     1      -3.880   2.208  24.184  0.00  0.00    +0.010 C 
ATOM     13  C   UNL     1      -4.247   1.518  23.784  0.00  0.00    +0.018 C 
ATOM     14  C   UNL     1      -4.383   1.009  24.337  0.00  0.00    +0.075 C 
ENDROOT
BRANCH   7   6
ATOM      1  C   UNL     1      -4.424   3.658  25.948  0.00  0.00    +0.153 C 
ATOM      2  N   UNL     1      -3.681   3.678  25.590  0.00  0.00    -0.253 N 
ATOM      3  N   UNL     1      -3.143   4.303  25.624  0.00  0.00    -0.170 NA
ATOM      4  C   UNL     1      -2.475   4.088  25.191  0.00  0.00    +0.102 A 
ATOM      5  C   UNL     1      -2.600   3.330  24.889  0.00  0.00    +0.035 A 
ATOM      6  C   UNL     1      -3.345   3.077  25.136  0.00  0.00    +0.058 A 
BRANCH   4  24
ATOM     24  C   UNL     1      -1.801   4.550  25.079  0.00  0.00    +0.019 A 
ATOM     25  C   UNL     1      -1.060   4.191  25.024  0.00  0.00    +0.002 A 
ATOM     26  C   UNL     1      -0.386   4.654  24.912  0.00  0.00    +0.000 A 
ATOM     27  C   UNL     1      -0.453   5.474  24.856  0.00  0.00    +0.000 A 
ATOM     28  C   UNL     1      -1.194   5.832  24.911  0.00  0.00    +0.000 A 
ATOM     29  C   UNL     1      -1.868   5.371  25.023  0.00  0.00    +0.002 A 
ENDBRANCH   4  24
ENDBRANCH   7   6
BRANCH  14  15
ATOM     15  C   UNL     1      -4.692   0.257  24.472  0.00  0.00    +0.105 C 
BRANCH  15  16
ATOM     16  N   UNL     1      -4.231  -0.412  24.325  0.00  0.00    -0.210 NA
BRANCH  16  17
ATOM     17  C   UNL     1      -4.569  -1.163  24.371  0.00  0.00    +0.134 C 
BRANCH  17  18
ATOM     18  C   UNL     1      -4.087  -1.827  24.456  0.00  0.00    +0.077 A 
ATOM     19  N   UNL     1      -3.626  -1.918  25.135  0.00  0.00    -0.247 NA
ATOM     20  C   UNL     1      -3.143  -2.582  25.220  0.00  0.00    +0.098 A 
ATOM     21  C   UNL     1      -3.123  -3.155  24.627  0.00  0.00    +0.021 A 
ATOM     22  C   UNL     1      -3.584  -3.064  23.949  0.00  0.00    +0.003 A 
ATOM     23  C   UNL     1      -4.066  -2.401  23.864  0.00  0.00    +0.016 A 
ENDBRANCH  17  18
ENDBRANCH  16  17
ENDBRANCH  15  16
ENDBRANCH  14  15
TORSDOF 6
ENDMDL
MODEL 4
REMARK VINA RESULT:     -10.7      1.942      2.740
REMARK  Name = 
REMARK  6 active torsions:
REMARK  status: ('A' for Active; 'I' for Inactive)
REMARK    1  A    between atoms: C_4  and  C_24
REMARK    2  A    between atoms: C_6  and  C_7
REMARK    3  A    between atoms: C_14  and  C_15
REMARK    4  A    between atoms: C_15  and  N_16
REMARK    5  A    between atoms: N_16  and  C_17
REMARK    6  A    between atoms: C_17  and  C_18
REMARK                            x       y       z     vdW  Elec       q    Type
REMARK                         _______ _______ _______ _____ _____    ______ ____
ROOT
ATOM      7  C   UNL     1      -3.630   1.373  24.756  0.00  0.00    +0.056 C 
ATOM      8  C   UNL     1      -2.955   1.725  24.914  0.00  0.00    +0.078 C 
ATOM      9  N   UNL     1      -3.708   2.015  25.088  0.00  0.00    -0.272 NA
ATOM     10  C   UNL     1      -4.399   1.304  24.747  0.00  0.00    +0.072 C 
ATOM     11  C   UNL     1      -5.016   1.105  24.666  0.00  0.00    +0.018 C 
ATOM     12  C   UNL     1      -4.366   1.663  24.930  0.00  0.00    +0.010 C 
ATOM     13  C   UNL     1      -4.628   2.405  25.319  0.00  0.00    +0.018 C 
ATOM     14  C   UNL     1      -3.988   2.784  25.492  0.00  0.00    +0.075 C 
ENDROOT
BRANCH   7   6
ATOM      1  C   UNL     1      -3.233   1.092  23.028  0.00  0.00    +0.153 C 
ATOM      2  N   UNL     1      -3.412   0.510  23.585  0.00  0.00    -0.253 N 
ATOM      3  N   UNL     1      -3.440  -0.303  23.446  0.00  0.00    -0.170 NA
ATOM      4  C   UNL     1      -3.639  -0.676  24.154  0.00  0.00    +0.102 A 
ATOM      5  C   UNL     1      -3.735  -0.094  24.731  0.00  0.00    +0.035 A 
ATOM      6  C   UNL     1      -3.594   0.639  24.379  0.00  0.00    +0.058 A 
BRANCH   4  24
ATOM     24  C   UNL     1      -3.728  -1.489  24.265  0.00  0.00    +0.019 A 
ATOM     25  C   UNL     1      -3.301  -1.873  24.857  0.00  0.00    +0.002 A 
ATOM     26  C   UNL     1      -3.390  -2.685  24.967  0.00  0.00    +0.000 A 
ATOM     27  C   UNL     1      -3.905  -3.114  24.486  0.00  0.00    +0.000 A 
ATOM     28  C   UNL     1      -4.333  -2.729  23.895  0.00  0.00    +0.000 A 
ATOM     29  C   UNL     1      -4.244  -1.917  23.784  0.00  0.00    +0.002 A 
ENDBRANCH   4  24
ENDBRANCH   7   6
BRANCH  14  15
ATOM     15  C   UNL     1      -3.713   3.479  25.839  0.00  0.00    +0.105 C 
BRANCH  15  16
ATOM     16  N   UNL     1      -3.176   3.958  25.435  0.00  0.00    -0.210 NA
BRANCH  16  17
ATOM     17  C   UNL     1      -2.636   4.418  25.856  0.00  0.00    +0.134 C 
BRANCH  17  18
ATOM     18  C   UNL     1      -1.953   4.695  25.485  0.00  0.00    +0.077 A 
ATOM     19  N   UNL     1      -1.287   4.211  25.430  0.00  0.00    -0.247 NA
ATOM     20  C   UNL     1      -0.605   4.488  25.059  0.00  0.00    +0.098 A 
ATOM     21  C   UNL     1      -0.588   5.250  24.742  0.00  0.00    +0.021 A 
ATOM     22  C   UNL     1      -1.254   5.734  24.797  0.00  0.00    +0.003 A 
ATOM     23  C   UNL     1      -1.936   5.457  25.167  0.00  0.00    +0.016 A 
ENDBRANCH  17  18
ENDBRANCH  16  17
ENDBRANCH  15  16
ENDBRANCH  14  15
TORSDOF 6
ENDMDL
MODEL 5
REMARK VINA RESULT:     -10.6      2.785      4.329
REMARK  Name = 
REMARK  6 active torsions:
REMARK  status: ('A' for Active; 'I' for Inactive)
REMARK    1  A    between atoms: C_4  and  C_24
REMARK    2  A    between atoms: C_6  and  C_7
REMARK    3  A    between atoms: C_14  and  C_15
REMARK    4  A    between atoms: C_15  and  N_16
REMARK    5  A    between atoms: N_16  and  C_17
REMARK    6  A    between atoms: C_17  and  C_18
REMARK                            x       y       z     vdW  Elec       q    Type
REMARK                         _______ _______ _______ _____ _____    ______ ____
ROOT
ATOM      7  C   UNL     1      -0.573   0.725  23.951  0.00  0.00    +0.056 C 
ATOM      8  C   UNL     1      -0.219   1.267  23.520  0.00  0.00    +0.078 C 
ATOM      9  N   UNL     1       0.006   0.476  23.589  0.00  0.00    -0.272 NA
ATOM     10  C   UNL     1      -0.674   0.016  24.241  0.00  0.00    +0.072 C 
ATOM     11  C   UNL     1      -0.886  -0.513  24.560  0.00  0.00    +0.018 C 
ATOM     12  C   UNL     1      -0.346  -0.050  24.014  0.00  0.00    +0.010 C 
ATOM     13  C   UNL     1       0.314  -0.500  23.652  0.00  0.00    +0.018 C 
ATOM     14  C   UNL     1       0.691   0.001  23.217  0.00  0.00    +0.075 C 
ENDROOT
BRANCH   7   6
ATOM      1  C   UNL     1      -0.566   1.705  25.456  0.00  0.00    +0.153 C 
ATOM      2  N   UNL     1      -1.234   1.409  25.073  0.00  0.00    -0.253 N 
ATOM      3  N   UNL     1      -2.017   1.512  25.314  0.00  0.00    -0.170 NA
ATOM      4  C   UNL     1      -2.504   1.125  24.772  0.00  0.00    +0.102 A 
ATOM      5  C   UNL     1      -2.022   0.783  24.196  0.00  0.00    +0.035 A 
ATOM      6  C   UNL     1      -1.238   0.959  24.382  0.00  0.00    +0.058 A 
BRANCH   4  24
ATOM     24  C   UNL     1      -3.327   1.087  24.801  0.00  0.00    +0.019 A 
ATOM     25  C   UNL     1      -3.700   0.391  25.042  0.00  0.00    +0.002 A 
ATOM     26  C   UNL     1      -4.523   0.354  25.071  0.00  0.00    +0.000 A 
ATOM     27  C   UNL     1      -4.974   1.012  24.860  0.00  0.00    +0.000 A 
ATOM     28  C   UNL     1      -4.602   1.707  24.620  0.00  0.00    +0.000 A 
ATOM     29  C   UNL     1      -3.778   1.745  24.590  0.00  0.00    +0.002 A 
ENDBRANCH   4  24
ENDBRANCH   7   6
BRANCH  14  15
ATOM     15  C   UNL     1       1.336   0.072  22.709  0.00  0.00    +0.105 C 
BRANCH  15  16
ATOM     16  N   UNL     1       2.104   0.039  23.009  0.00  0.00    -0.210 NA
BRANCH  16  17
ATOM     17  C   UNL     1       2.749   0.085  22.497  0.00  0.00    +0.134 C 
BRANCH  17  18
ATOM     18  C   UNL     1       3.514   0.134  22.802  0.00  0.00    +0.077 A 
ATOM     19  N   UNL     1       3.859  -0.525  23.160  0.00  0.00    -0.247 NA
ATOM     20  C   UNL     1       4.624  -0.475  23.464  0.00  0.00    +0.098 A 
ATOM     21  C   UNL     1       5.044   0.233  23.411  0.00  0.00    +0.021 A 
ATOM     22  C   UNL     1       4.699   0.892  23.054  0.00  0.00    +0.003 A 
ATOM     23  C   UNL     1       3.935   0.842  22.749  0.00  0.00    +0.016 A 
ENDBRANCH  17  18
ENDBRANCH  16  17
ENDBRANCH  15  16
ENDBRANCH  14  15
TORSDOF 6
ENDMDL
MODEL 6
REMARK VINA RESULT:     -10.1      2.899      4.653
REMARK  Name = 
REMARK  6 active torsions:
REMARK  status: ('A' for Active; 'I' for Inactive)
REMARK    1  A    between atoms: C_4  and  C_24
REMARK    2  A    between atoms: C_6  and  C_7
REMARK    3  A    between atoms: C_14  and  C_15
REMARK    4  A    between atoms: C_15  and  N_16
REMARK    5  A    between atoms: N_16  and  C_17
REMARK    6  A    between atoms: C_17  and  C_18
REMARK                            x       y       z     vdW  Elec       q    Type
REMARK                         _______ _______ _______ _____ _____    ______ ____
ROOT
ATOM      7  C   UNL     1      -1.932   1.378  23.793  0.00  0.00    +0.056 C 
ATOM      8  C   UNL     1      -1.891   0.747  23.340  0.00  0.00    +0.078 C 
ATOM      9  N   UNL     1      -1.276   1.066  23.788  0.00  0.00    -0.272 NA
ATOM     10  C   UNL     1      -1.657   1.909  24.281  0.00  0.00    +0.072 C 
ATOM     11  C   UNL     1      -1.575   2.416  24.685  0.00  0.00    +0.018 C 
ATOM     12  C   UNL     1      -1.324   1.685  24.230  0.00  0.00    +0.010 C 
ATOM     13  C   UNL     1      -0.489   1.435  24.332  0.00  0.00    +0.018 C 
ATOM     14  C   UNL     1      -0.406   0.812  23.899  0.00  0.00    +0.075 C 
ENDROOT
BRANCH   7   6
ATOM      1  C   UNL     1      -2.729   2.263  22.449  0.00  0.00    +0.153 C 
ATOM      2  N   UNL     1      -3.025   2.175  23.214  0.00  0.00    -0.253 N 
ATOM      3  N   UNL     1      -3.738   2.478  23.497  0.00  0.00    -0.170 NA
ATOM      4  C   UNL     1      -3.813   2.259  24.288  0.00  0.00    +0.102 A 
ATOM      5  C   UNL     1      -3.146   1.821  24.496  0.00  0.00    +0.035 A 
ATOM      6  C   UNL     1      -2.659   1.769  23.832  0.00  0.00    +0.058 A 
BRANCH   4  24
ATOM     24  C   UNL     1      -4.445   2.446  24.785  0.00  0.00    +0.019 A 
ATOM     25  C   UNL     1      -4.527   3.214  25.076  0.00  0.00    +0.002 A 
ATOM     26  C   UNL     1      -5.159   3.400  25.572  0.00  0.00    +0.000 A 
ATOM     27  C   UNL     1      -5.707   2.820  25.779  0.00  0.00    +0.000 A 
ATOM     28  C   UNL     1      -5.625   2.052  25.488  0.00  0.00    +0.000 A 
ATOM     29  C   UNL     1      -4.993   1.865  24.991  0.00  0.00    +0.002 A 
ENDBRANCH   4  24
ENDBRANCH   7   6
BRANCH  14  15
ATOM     15  C   UNL     1       0.145   0.244  23.668  0.00  0.00    +0.105 C 
BRANCH  15  16
ATOM     16  N   UNL     1       0.858   0.476  23.325  0.00  0.00    -0.210 NA
BRANCH  16  17
ATOM     17  C   UNL     1       1.414  -0.093  23.106  0.00  0.00    +0.134 C 
BRANCH  17  18
ATOM     18  C   UNL     1       2.138   0.140  22.787  0.00  0.00    +0.077 A 
ATOM     19  N   UNL     1       2.343  -0.086  22.020  0.00  0.00    -0.247 NA
ATOM     20  C   UNL     1       3.067   0.147  21.700  0.00  0.00    +0.098 A 
ATOM     21  C   UNL     1       3.586   0.606  22.148  0.00  0.00    +0.021 A 
ATOM     22  C   UNL     1       3.381   0.832  22.915  0.00  0.00    +0.003 A 
ATOM     23  C   UNL     1       2.658   0.599  23.234  0.00  0.00    +0.016 A 
ENDBRANCH  17  18
ENDBRANCH  16  17
ENDBRANCH  15  16
ENDBRANCH  14  15
TORSDOF 6
ENDMDL
