REMARK  Name = 
REMARK  9 active torsions:
REMARK  status: ('A' for Active; 'I' for Inactive)
REMARK    1  A    between atoms: O_2  and  C_3
REMARK    2  A    between atoms: C_4  and  C_5
REMARK    3  A    between atoms: C_5  and  N_6
REMARK    4  A    between atoms: N_6  and  C_7
REMARK    5  A    between atoms: C_7  and  C_8
REMARK    6  A    between atoms: C_12  and  C_13
REMARK    7  A    between atoms: C_13  and  C_14
REMARK    8  A    between atoms: C_17  and  C_19
REMARK    9  A    between atoms: C_26  and  C_27
REMARK                            x       y       z     vdW  Elec       q    Type
REMARK                         _______ _______ _______ _____ _____    ______ ____
ROOT
ATOM      8  C   UNL     1       2.858   0.825   0.000  0.00  0.00    +0.039 C 
ATOM      9  C   UNL     1       2.858   0.000   0.000  0.00  0.00    -0.033 C 
ATOM     10  C   UNL     1       2.143  -0.412   0.000  0.00  0.00    -0.048 C 
ATOM     11  C   UNL     1       2.143  -1.238   0.000  0.00  0.00    +0.026 C 
ATOM     12  C   UNL     1       1.429   0.000   0.000  0.00  0.00    +0.027 C 
ATOM     25  C   UNL     1       1.429   0.825   0.000  0.00  0.00    +0.005 C 
ATOM     26  C   UNL     1       2.143   1.238   0.000  0.00  0.00    +0.006 C 
ENDROOT
BRANCH  26  27
ATOM     27  C   UNL     1       2.143   2.062   0.000  0.00  0.00    +0.000 C 
ATOM     28  C   UNL     1       2.858   2.475   0.000  0.00  0.00    +0.000 C 
ATOM     29  C   UNL     1       1.429   2.475   0.000  0.00  0.00    +0.000 C 
ENDBRANCH  26  27
BRANCH   8   7
ATOM      7  C   UNL     1       3.572   1.238   0.000  0.00  0.00    +0.093 C 
BRANCH   7   6
ATOM      6  N   UNL     1       3.572   2.062   0.000  0.00  0.00    -0.213 NA
BRANCH   6   5
ATOM      5  C   UNL     1       4.287   2.475   0.000  0.00  0.00    +0.118 C 
BRANCH   5   4
ATOM      3  C   UNL     1       5.001   3.712   0.000  0.00  0.00    +0.136 A 
ATOM      4  C   UNL     1       4.287   3.300   0.000  0.00  0.00    +0.029 A 
ATOM     30  C   UNL     1       3.572   3.712   0.000  0.00  0.00    +0.000 A 
ATOM     31  C   UNL     1       3.572   4.537   0.000  0.00  0.00    -0.000 A 
ATOM     32  C   UNL     1       4.287   4.950   0.000  0.00  0.00    +0.003 A 
ATOM     33  C   UNL     1       5.001   4.537   0.000  0.00  0.00    +0.037 A 
BRANCH   3   2
ATOM      1  C   UNL     1       6.430   3.712   0.000  0.00  0.00    +0.252 C 
ATOM      2  O   UNL     1       5.716   3.300   0.000  0.00  0.00    -0.472 OA
ENDBRANCH   3   2
ENDBRANCH   5   4
ENDBRANCH   6   5
ENDBRANCH   7   6
ENDBRANCH   8   7
BRANCH  12  13
ATOM     13  C   UNL     1       0.715  -0.412   0.000  0.00  0.00    +0.091 C 
BRANCH  13  14
ATOM     14  C   UNL     1       0.715  -1.238   0.000  0.00  0.00    +0.227 A 
ATOM     15  N   UNL     1       1.382  -1.722   0.000  0.00  0.00    -0.111 NA
ATOM     16  N   UNL     1       1.127  -2.507   0.000  0.00  0.00    -0.107 NA
ATOM     17  C   UNL     1       0.302  -2.507   0.000  0.00  0.00    +0.251 A 
ATOM     18  O   UNL     1       0.047  -1.722   0.000  0.00  0.00    -0.419 OA
BRANCH  17  19
ATOM     19  C   UNL     1      -0.183  -3.175   0.000  0.00  0.00    +0.074 A 
ATOM     20  C   UNL     1       0.153  -3.928   0.000  0.00  0.00    +0.104 A 
ATOM     21  N   UNL     1      -0.332  -4.596   0.000  0.00  0.00    -0.242 NA
ATOM     22  C   UNL     1      -1.153  -4.509   0.000  0.00  0.00    +0.099 A 
ATOM     23  C   UNL     1      -1.488  -3.756   0.000  0.00  0.00    +0.021 A 
ATOM     24  C   UNL     1      -1.003  -3.088   0.000  0.00  0.00    +0.008 A 
ENDBRANCH  17  19
ENDBRANCH  13  14
ENDBRANCH  12  13
TORSDOF 9
