MODEL 1
REMARK VINA RESULT:     -15.1      0.000      0.000
REMARK  Name = 
REMARK  5 active torsions:
REMARK  status: ('A' for Active; 'I' for Inactive)
REMARK    1  A    between atoms: C_2  and  C_4
REMARK    2  A    between atoms: C_8  and  C_10
REMARK    3  A    between atoms: C_21  and  N_22
REMARK    4  A    between atoms: N_22  and  S_23
REMARK    5  A    between atoms: S_23  and  C_26
REMARK                            x       y       z     vdW  Elec       q    Type
REMARK                         _______ _______ _______ _____ _____    ______ ____
ROOT
ATOM     10  C   UNL     1      -2.656  -0.974  25.768  0.00  0.00    +0.249 C 
ATOM     11  O   UNL     1      -2.191  -1.157  26.471  0.00  0.00    -0.270 OA
ATOM     12  N   UNL     1      -2.948  -1.717  25.421  0.00  0.00    -0.276 N 
ATOM     13  C   UNL     1      -3.015  -2.550  25.413  0.00  0.00    +0.096 C 
ATOM     14  C   UNL     1      -3.574  -2.663  24.606  0.00  0.00    +0.043 C 
ATOM     15  C   UNL     1      -4.021  -2.922  23.977  0.00  0.00    +0.011 C 
ATOM     16  C   UNL     1      -3.798  -2.310  24.237  0.00  0.00    +0.058 C 
ATOM     17  C   UNL     1      -3.258  -2.217  25.020  0.00  0.00    +0.099 C 
ATOM     18  C   UNL     1      -3.835  -1.405  24.084  0.00  0.00    +0.041 A 
ATOM     19  C   UNL     1      -4.154  -0.857  23.556  0.00  0.00    +0.014 A 
ATOM     20  C   UNL     1      -4.019  -0.051  23.666  0.00  0.00    +0.024 A 
ATOM     21  C   UNL     1      -3.564   0.208  24.305  0.00  0.00    +0.147 A 
ATOM     33  C   UNL     1      -3.246  -0.340  24.833  0.00  0.00    +0.277 A 
ATOM     34  O   UNL     1      -3.016   0.464  25.082  0.00  0.00    -0.266 OA
ATOM     35  N   UNL     1      -3.381  -1.146  24.722  0.00  0.00    -0.298 N 
ATOM     36  C   UNL     1      -3.607  -1.716  24.454  0.00  0.00    +0.110 C 
ENDROOT
BRANCH  10   8
ATOM      4  C   UNL     1      -2.883   0.781  24.151  0.00  0.00    +0.080 A 
ATOM      5  C   UNL     1      -3.688   1.187  24.157  0.00  0.00    +0.007 A 
ATOM      6  C   UNL     1      -4.075   0.549  24.982  0.00  0.00    +0.000 A 
ATOM      7  C   UNL     1      -3.731  -0.065  25.414  0.00  0.00    +0.005 A 
ATOM      8  C   UNL     1      -2.956  -0.298  25.253  0.00  0.00    +0.054 A 
ATOM      9  C   UNL     1      -2.525   0.081  24.661  0.00  0.00    +0.011 A 
BRANCH   4   2
ATOM      1  O   UNL     1      -2.929   1.654  22.636  0.00  0.00    -0.241 OA
ATOM      2  C   UNL     1      -2.528   1.302  23.457  0.00  0.00    +0.388 C 
ATOM      3  O   UNL     1      -1.600   1.434  23.744  0.00  0.00    -0.241 OA
ENDBRANCH   4   2
ENDBRANCH  10   8
BRANCH  21  22
ATOM     22  N   UNL     1      -3.330   1.070  24.555  0.00  0.00    -0.092 NA
BRANCH  22  23
ATOM     23  S   UNL     1      -4.059   1.618  24.686  0.00  0.00    +0.093 S 
ATOM     24  O   UNL     1      -3.773   2.150  25.354  0.00  0.00    -0.148 OA
ATOM     25  O   UNL     1      -4.646   1.238  24.000  0.00  0.00    -0.148 OA
BRANCH  23  26
ATOM     26  C   UNL     1      -4.584   2.214  24.975  0.00  0.00    +0.127 A 
ATOM     27  C   UNL     1      -4.161   2.922  24.961  0.00  0.00    +0.021 A 
ATOM     28  C   UNL     1      -4.520   3.621  25.212  0.00  0.00    +0.013 A 
ATOM     29  C   UNL     1      -5.302   3.612  25.476  0.00  0.00    +0.058 A 
ATOM     30 CL   UNL     1      -5.667   4.345  25.736  0.00  0.00    -0.082 Cl
ATOM     31  C   UNL     1      -5.724   2.903  25.490  0.00  0.00    +0.013 A 
ATOM     32  C   UNL     1      -5.365   2.204  25.239  0.00  0.00    +0.021 A 
ENDBRANCH  23  26
ENDBRANCH  22  23
ENDBRANCH  21  22
TORSDOF 5
ENDMDL
MODEL 2
REMARK VINA RESULT:     -14.6      1.792      4.315
REMARK  Name = 
REMARK  5 active torsions:
REMARK  status: ('A' for Active; 'I' for Inactive)
REMARK    1  A    between atoms: C_2  and  C_4
REMARK    2  A    between atoms: C_8  and  C_10
REMARK    3  A    between atoms: C_21  and  N_22
REMARK    4  A    between atoms: N_22  and  S_23
REMARK    5  A    between atoms: S_23  and  C_26
REMARK                            x       y       z     vdW  Elec       q    Type
REMARK                         _______ _______ _______ _____ _____    ______ ____
ROOT
ATOM     10  C   UNL     1      -4.660   2.999  24.850  0.00  0.00    +0.249 C 
ATOM     11  O   UNL     1      -5.480   3.258  24.802  0.00  0.00    -0.270 OA
ATOM     12  N   UNL     1      -4.220   3.547  25.365  0.00  0.00    -0.276 N 
ATOM     13  C   UNL     1      -4.178   4.221  25.857  0.00  0.00    +0.096 C 
ATOM     14  C   UNL     1      -3.222   4.186  26.103  0.00  0.00    +0.043 C 
ATOM     15  C   UNL     1      -2.469   4.297  26.396  0.00  0.00    +0.011 C 
ATOM     16  C   UNL     1      -2.801   3.842  25.977  0.00  0.00    +0.058 C 
ATOM     17  C   UNL     1      -3.727   3.889  25.749  0.00  0.00    +0.099 C 
ATOM     18  C   UNL     1      -2.656   3.084  25.478  0.00  0.00    +0.041 A 
ATOM     19  C   UNL     1      -2.056   2.557  25.273  0.00  0.00    +0.014 A 
ATOM     20  C   UNL     1      -2.218   1.921  24.773  0.00  0.00    +0.024 A 
ATOM     21  C   UNL     1      -2.981   1.812  24.479  0.00  0.00    +0.147 A 
ATOM     33  C   UNL     1      -3.582   2.338  24.684  0.00  0.00    +0.277 A 
ATOM     34  O   UNL     1      -3.908   1.726  24.155  0.00  0.00    -0.266 OA
ATOM     35  N   UNL     1      -3.419   2.974  25.184  0.00  0.00    -0.298 N 
ATOM     36  C   UNL     1      -3.080   3.394  25.579  0.00  0.00    +0.110 C 
ENDROOT
BRANCH  10   8
ATOM      4  C   UNL     1      -3.060   1.715  23.610  0.00  0.00    +0.080 A 
ATOM      5  C   UNL     1      -2.816   0.945  24.008  0.00  0.00    +0.007 A 
ATOM      6  C   UNL     1      -3.475   1.115  24.887  0.00  0.00    +0.000 A 
ATOM      7  C   UNL     1      -3.991   1.731  25.079  0.00  0.00    +0.005 A 
ATOM      8  C   UNL     1      -4.079   2.370  24.566  0.00  0.00    +0.054 A 
ATOM      9  C   UNL     1      -3.653   2.396  23.860  0.00  0.00    +0.011 A 
BRANCH   4   2
ATOM      1  O   UNL     1      -1.617   1.219  22.753  0.00  0.00    -0.241 OA
ATOM      2  C   UNL     1      -2.514   1.600  22.856  0.00  0.00    +0.388 C 
ATOM      3  O   UNL     1      -3.066   1.968  22.135  0.00  0.00    -0.241 OA
ENDBRANCH   4   2
ENDBRANCH  10   8
BRANCH  21  22
ATOM     22  N   UNL     1      -3.310   1.152  23.915  0.00  0.00    -0.092 NA
BRANCH  22  23
ATOM     23  S   UNL     1      -3.178   0.301  24.241  0.00  0.00    +0.093 S 
ATOM     24  O   UNL     1      -3.892  -0.137  23.912  0.00  0.00    -0.148 OA
ATOM     25  O   UNL     1      -2.342   0.464  24.726  0.00  0.00    -0.148 OA
BRANCH  23  26
ATOM     26  C   UNL     1      -3.261  -0.520  24.422  0.00  0.00    +0.127 A 
ATOM     27  C   UNL     1      -3.771  -0.832  23.854  0.00  0.00    +0.021 A 
ATOM     28  C   UNL     1      -3.970  -1.633  23.874  0.00  0.00    +0.013 A 
ATOM     29  C   UNL     1      -3.658  -2.121  24.461  0.00  0.00    +0.058 A 
ATOM     30 CL   UNL     1      -3.871  -2.953  24.474  0.00  0.00    -0.082 Cl
ATOM     31  C   UNL     1      -3.148  -1.809  25.030  0.00  0.00    +0.013 A 
ATOM     32  C   UNL     1      -2.949  -1.009  25.010  0.00  0.00    +0.021 A 
ENDBRANCH  23  26
ENDBRANCH  22  23
ENDBRANCH  21  22
TORSDOF 5
ENDMDL
MODEL 3
REMARK VINA RESULT:     -14.6      1.354      2.040
REMARK  Name = 
REMARK  5 active torsions:
REMARK  status: ('A' for Active; 'I' for Inactive)
REMARK    1  A    between atoms: C_2  and  C_4
REMARK    2  A    between atoms: C_8  and  C_10
REMARK    3  A    between atoms: C_21  and  N_22
REMARK    4  A    between atoms: N_22  and  S_23
REMARK    5  A    between atoms: S_23  and  C_26
REMARK                            x       y       z     vdW  Elec       q    Type
REMARK                         _______ _______ _______ _____ _____    ______ ____
ROOT
ATOM     10  C   UNL     1      -3.389  -1.111  25.979  0.00  0.00    +0.249 C 
ATOM     11  O   UNL     1      -3.206  -1.444  26.752  0.00  0.00    -0.270 OA
ATOM     12  N   UNL     1      -3.528  -1.761  25.416  0.00  0.00    -0.276 N 
ATOM     13  C   UNL     1      -3.579  -2.573  25.227  0.00  0.00    +0.096 C 
ATOM     14  C   UNL     1      -3.808  -2.505  24.268  0.00  0.00    +0.043 C 
ATOM     15  C   UNL     1      -3.996  -2.619  23.484  0.00  0.00    +0.011 C 
ATOM     16  C   UNL     1      -3.888  -2.079  23.918  0.00  0.00    +0.058 C 
ATOM     17  C   UNL     1      -3.668  -2.160  24.844  0.00  0.00    +0.099 C 
ATOM     18  C   UNL     1      -3.878  -1.160  23.936  0.00  0.00    +0.041 A 
ATOM     19  C   UNL     1      -3.991  -0.508  23.444  0.00  0.00    +0.014 A 
ATOM     20  C   UNL     1      -3.913   0.255  23.746  0.00  0.00    +0.024 A 
ATOM     21  C   UNL     1      -3.723   0.367  24.541  0.00  0.00    +0.147 A 
ATOM     33  C   UNL     1      -3.609  -0.284  25.034  0.00  0.00    +0.277 A 
ATOM     34  O   UNL     1      -3.494   0.446  25.496  0.00  0.00    -0.266 OA
ATOM     35  N   UNL     1      -3.687  -1.048  24.731  0.00  0.00    -0.298 N 
ATOM     36  C   UNL     1      -3.794  -1.546  24.297  0.00  0.00    +0.110 C 
ENDROOT
BRANCH  10   8
ATOM      4  C   UNL     1      -4.234   0.922  25.029  0.00  0.00    +0.080 A 
ATOM      5  C   UNL     1      -3.641   1.362  24.512  0.00  0.00    +0.007 A 
ATOM      6  C   UNL     1      -2.843   0.605  24.671  0.00  0.00    +0.000 A 
ATOM      7  C   UNL     1      -2.824  -0.095  25.108  0.00  0.00    +0.005 A 
ATOM      8  C   UNL     1      -3.491  -0.336  25.529  0.00  0.00    +0.054 A 
ATOM      9  C   UNL     1      -4.177   0.122  25.514  0.00  0.00    +0.011 A 
BRANCH   4   2
ATOM      1  O   UNL     1      -5.170   2.114  24.157  0.00  0.00    -0.241 OA
ATOM      2  C   UNL     1      -4.928   1.542  24.914  0.00  0.00    +0.388 C 
ATOM      3  O   UNL     1      -5.397   1.498  25.773  0.00  0.00    -0.241 OA
ENDBRANCH   4   2
ENDBRANCH  10   8
BRANCH  21  22
ATOM     22  N   UNL     1      -3.603   1.155  25.017  0.00  0.00    -0.092 NA
BRANCH  22  23
ATOM     23  S   UNL     1      -2.949   1.695  24.660  0.00  0.00    +0.093 S 
ATOM     24  O   UNL     1      -2.583   2.057  25.399  0.00  0.00    -0.148 OA
ATOM     25  O   UNL     1      -3.105   1.501  23.713  0.00  0.00    -0.148 OA
BRANCH  23  26
ATOM     26  C   UNL     1      -2.309   2.239  24.565  0.00  0.00    +0.127 A 
ATOM     27  C   UNL     1      -2.424   2.834  25.124  0.00  0.00    +0.021 A 
ATOM     28  C   UNL     1      -1.889   3.459  25.178  0.00  0.00    +0.013 A 
ATOM     29  C   UNL     1      -1.238   3.490  24.672  0.00  0.00    +0.058 A 
ATOM     30 CL   UNL     1      -0.686   4.145  24.735  0.00  0.00    -0.082 Cl
ATOM     31  C   UNL     1      -1.122   2.895  24.112  0.00  0.00    +0.013 A 
ATOM     32  C   UNL     1      -1.658   2.270  24.058  0.00  0.00    +0.021 A 
ENDBRANCH  23  26
ENDBRANCH  22  23
ENDBRANCH  21  22
TORSDOF 5
ENDMDL
MODEL 4
REMARK VINA RESULT:     -14.5      0.995      1.174
REMARK  Name = 
REMARK  5 active torsions:
REMARK  status: ('A' for Active; 'I' for Inactive)
REMARK    1  A    between atoms: C_2  and  C_4
REMARK    2  A    between atoms: C_8  and  C_10
REMARK    3  A    between atoms: C_21  and  N_22
REMARK    4  A    between atoms: N_22  and  S_23
REMARK    5  A    between atoms: S_23  and  C_26
REMARK                            x       y       z     vdW  Elec       q    Type
REMARK                         _______ _______ _______ _____ _____    ______ ____
ROOT
ATOM     10  C   UNL     1      -2.018  -0.990  25.293  0.00  0.00    +0.249 C 
ATOM     11  O   UNL     1      -1.444  -1.371  25.811  0.00  0.00    -0.270 OA
ATOM     12  N   UNL     1      -2.603  -1.582  25.036  0.00  0.00    -0.276 N 
ATOM     13  C   UNL     1      -2.910  -2.359  25.028  0.00  0.00    +0.096 C 
ATOM     14  C   UNL     1      -3.687  -2.224  24.433  0.00  0.00    +0.043 C 
ATOM     15  C   UNL     1      -4.354  -2.279  23.968  0.00  0.00    +0.011 C 
ATOM     16  C   UNL     1      -3.896  -1.784  24.162  0.00  0.00    +0.058 C 
ATOM     17  C   UNL     1      -3.149  -1.930  24.739  0.00  0.00    +0.099 C 
ATOM     18  C   UNL     1      -3.709  -0.891  24.051  0.00  0.00    +0.041 A 
ATOM     19  C   UNL     1      -3.994  -0.221  23.663  0.00  0.00    +0.014 A 
ATOM     20  C   UNL     1      -3.603   0.501  23.746  0.00  0.00    +0.024 A 
ATOM     21  C   UNL     1      -2.927   0.552  24.217  0.00  0.00    +0.147 A 
ATOM     33  C   UNL     1      -2.643  -0.118  24.605  0.00  0.00    +0.277 A 
ATOM     34  O   UNL     1      -2.126   0.560  24.791  0.00  0.00    -0.266 OA
ATOM     35  N   UNL     1      -3.034  -0.839  24.522  0.00  0.00    -0.298 N 
ATOM     36  C   UNL     1      -3.485  -1.292  24.322  0.00  0.00    +0.110 C 
ENDROOT
BRANCH  10   8
ATOM      4  C   UNL     1      -2.183   0.934  23.874  0.00  0.00    +0.080 A 
ATOM      5  C   UNL     1      -2.797   1.538  24.140  0.00  0.00    +0.007 A 
ATOM      6  C   UNL     1      -3.096   0.938  25.027  0.00  0.00    +0.000 A 
ATOM      7  C   UNL     1      -2.836   0.209  25.314  0.00  0.00    +0.005 A 
ATOM      8  C   UNL     1      -2.245  -0.204  24.915  0.00  0.00    +0.054 A 
ATOM      9  C   UNL     1      -1.913   0.110  24.229  0.00  0.00    +0.011 A 
BRANCH   4   2
ATOM      1  O   UNL     1      -2.416   1.908  22.440  0.00  0.00    -0.241 OA
ATOM      2  C   UNL     1      -1.908   1.417  23.118  0.00  0.00    +0.388 C 
ATOM      3  O   UNL     1      -0.934   1.321  23.147  0.00  0.00    -0.241 OA
ENDBRANCH   4   2
ENDBRANCH  10   8
BRANCH  21  22
ATOM     22  N   UNL     1      -2.389   1.285  24.403  0.00  0.00    -0.092 NA
BRANCH  22  23
ATOM     23  S   UNL     1      -2.861   2.005  24.729  0.00  0.00    +0.093 S 
ATOM     24  O   UNL     1      -2.263   2.382  25.287  0.00  0.00    -0.148 OA
ATOM     25  O   UNL     1      -3.696   1.861  24.238  0.00  0.00    -0.148 OA
BRANCH  23  26
ATOM     26  C   UNL     1      -3.090   2.702  25.149  0.00  0.00    +0.127 A 
ATOM     27  C   UNL     1      -2.391   3.089  25.355  0.00  0.00    +0.021 A 
ATOM     28  C   UNL     1      -2.421   3.798  25.776  0.00  0.00    +0.013 A 
ATOM     29  C   UNL     1      -3.149   4.120  25.990  0.00  0.00    +0.058 A 
ATOM     30 CL   UNL     1      -3.170   4.859  26.428  0.00  0.00    -0.082 Cl
ATOM     31  C   UNL     1      -3.848   3.733  25.784  0.00  0.00    +0.013 A 
ATOM     32  C   UNL     1      -3.818   3.024  25.363  0.00  0.00    +0.021 A 
ENDBRANCH  23  26
ENDBRANCH  22  23
ENDBRANCH  21  22
TORSDOF 5
ENDMDL
MODEL 5
REMARK VINA RESULT:     -13.5      1.845      4.267
REMARK  Name = 
REMARK  5 active torsions:
REMARK  status: ('A' for Active; 'I' for Inactive)
REMARK    1  A    between atoms: C_2  and  C_4
REMARK    2  A    between atoms: C_8  and  C_10
REMARK    3  A    between atoms: C_21  and  N_22
REMARK    4  A    between atoms: N_22  and  S_23
REMARK    5  A    between atoms: S_23  and  C_26
REMARK                            x       y       z     vdW  Elec       q    Type
REMARK                         _______ _______ _______ _____ _____    ______ ____
ROOT
ATOM     10  C   UNL     1      -2.895   2.099  22.893  0.00  0.00    +0.249 C 
ATOM     11  O   UNL     1      -2.730   2.290  22.070  0.00  0.00    -0.270 OA
ATOM     12  N   UNL     1      -3.339   2.757  23.252  0.00  0.00    -0.276 N 
ATOM     13  C   UNL     1      -3.704   3.507  23.212  0.00  0.00    +0.096 C 
ATOM     14  C   UNL     1      -4.035   3.579  24.141  0.00  0.00    +0.043 C 
ATOM     15  C   UNL     1      -4.367   3.790  24.854  0.00  0.00    +0.011 C 
ATOM     16  C   UNL     1      -4.010   3.247  24.588  0.00  0.00    +0.058 C 
ATOM     17  C   UNL     1      -3.697   3.192  23.688  0.00  0.00    +0.099 C 
ATOM     18  C   UNL     1      -3.670   2.425  24.819  0.00  0.00    +0.041 A 
ATOM     19  C   UNL     1      -3.616   1.912  25.462  0.00  0.00    +0.014 A 
ATOM     20  C   UNL     1      -3.227   1.189  25.381  0.00  0.00    +0.024 A 
ATOM     21  C   UNL     1      -2.892   0.979  24.657  0.00  0.00    +0.147 A 
ATOM     33  C   UNL     1      -2.946   1.493  24.014  0.00  0.00    +0.277 A 
ATOM     34  O   UNL     1      -2.510   0.777  23.772  0.00  0.00    -0.266 OA
ATOM     35  N   UNL     1      -3.335   2.216  24.094  0.00  0.00    -0.298 N 
ATOM     36  C   UNL     1      -3.676   2.720  24.372  0.00  0.00    +0.110 C 
ENDROOT
BRANCH  10   8
ATOM      4  C   UNL     1      -2.030   0.695  24.632  0.00  0.00    +0.080 A 
ATOM      5  C   UNL     1      -2.604   0.061  24.915  0.00  0.00    +0.007 A 
ATOM      6  C   UNL     1      -3.402   0.378  24.209  0.00  0.00    +0.000 A 
ATOM      7  C   UNL     1      -3.432   0.977  23.643  0.00  0.00    +0.005 A 
ATOM      8  C   UNL     1      -2.781   1.470  23.530  0.00  0.00    +0.054 A 
ATOM      9  C   UNL     1      -2.099   1.365  23.981  0.00  0.00    +0.011 A 
BRANCH   4   2
ATOM      1  O   UNL     1      -1.348   0.137  26.144  0.00  0.00    -0.241 OA
ATOM      2  C   UNL     1      -1.337   0.452  25.216  0.00  0.00    +0.388 C 
ATOM      3  O   UNL     1      -0.538   0.588  24.666  0.00  0.00    -0.241 OA
ENDBRANCH   4   2
ENDBRANCH  10   8
BRANCH  21  22
ATOM     22  N   UNL     1      -2.430   0.211  24.418  0.00  0.00    -0.092 NA
BRANCH  22  23
ATOM     23  S   UNL     1      -2.927  -0.556  24.527  0.00  0.00    +0.093 S 
ATOM     24  O   UNL     1      -2.683  -1.040  23.808  0.00  0.00    -0.148 OA
ATOM     25  O   UNL     1      -3.382  -0.313  25.360  0.00  0.00    -0.148 OA
BRANCH  23  26
ATOM     26  C   UNL     1      -3.272  -1.321  24.424  0.00  0.00    +0.127 A 
ATOM     27  C   UNL     1      -2.683  -1.868  24.610  0.00  0.00    +0.021 A 
ATOM     28  C   UNL     1      -2.843  -2.676  24.564  0.00  0.00    +0.013 A 
ATOM     29  C   UNL     1      -3.591  -2.937  24.332  0.00  0.00    +0.058 A 
ATOM     30 CL   UNL     1      -3.747  -3.781  24.288  0.00  0.00    -0.082 Cl
ATOM     31  C   UNL     1      -4.179  -2.390  24.146  0.00  0.00    +0.013 A 
ATOM     32  C   UNL     1      -4.020  -1.582  24.192  0.00  0.00    +0.021 A 
ENDBRANCH  23  26
ENDBRANCH  22  23
ENDBRANCH  21  22
TORSDOF 5
ENDMDL
MODEL 6
REMARK VINA RESULT:     -13.5      2.216      4.420
REMARK  Name = 
REMARK  5 active torsions:
REMARK  status: ('A' for Active; 'I' for Inactive)
REMARK    1  A    between atoms: C_2  and  C_4
REMARK    2  A    between atoms: C_8  and  C_10
REMARK    3  A    between atoms: C_21  and  N_22
REMARK    4  A    between atoms: N_22  and  S_23
REMARK    5  A    between atoms: S_23  and  C_26
REMARK                            x       y       z     vdW  Elec       q    Type
REMARK                         _______ _______ _______ _____ _____    ______ ____
ROOT
ATOM     10  C   UNL     1      -0.496   2.732  24.490  0.00  0.00    +0.249 C 
ATOM     11  O   UNL     1       0.359   2.688  24.395  0.00  0.00    -0.270 OA
ATOM     12  N   UNL     1      -0.702   3.498  24.849  0.00  0.00    -0.276 N 
ATOM     13  C   UNL     1      -0.494   4.244  25.162  0.00  0.00    +0.096 C 
ATOM     14  C   UNL     1      -1.393   4.583  25.393  0.00  0.00    +0.043 C 
ATOM     15  C   UNL     1      -2.049   5.000  25.637  0.00  0.00    +0.011 C 
ATOM     16  C   UNL     1      -1.909   4.376  25.347  0.00  0.00    +0.058 C 
ATOM     17  C   UNL     1      -1.033   4.063  25.130  0.00  0.00    +0.099 C 
ATOM     18  C   UNL     1      -2.321   3.613  25.044  0.00  0.00    +0.041 A 
ATOM     19  C   UNL     1      -3.071   3.280  24.963  0.00  0.00    +0.014 A 
ATOM     20  C   UNL     1      -3.154   2.527  24.635  0.00  0.00    +0.024 A 
ATOM     21  C   UNL     1      -2.488   2.108  24.390  0.00  0.00    +0.147 A 
ATOM     33  C   UNL     1      -1.738   2.441  24.471  0.00  0.00    +0.277 A 
ATOM     34  O   UNL     1      -1.660   1.650  24.113  0.00  0.00    -0.266 OA
ATOM     35  N   UNL     1      -1.654   3.194  24.798  0.00  0.00    -0.298 N 
ATOM     36  C   UNL     1      -1.815   3.782  25.074  0.00  0.00    +0.110 C 
ENDROOT
BRANCH  10   8
ATOM      4  C   UNL     1      -2.499   1.789  23.571  0.00  0.00    +0.080 A 
ATOM      5  C   UNL     1      -2.953   1.258  24.141  0.00  0.00    +0.007 A 
ATOM      6  C   UNL     1      -2.220   1.406  24.963  0.00  0.00    +0.000 A 
ATOM      7  C   UNL     1      -1.522   1.845  25.009  0.00  0.00    +0.005 A 
ATOM      8  C   UNL     1      -1.266   2.280  24.357  0.00  0.00    +0.054 A 
ATOM      9  C   UNL     1      -1.704   2.276  23.659  0.00  0.00    +0.011 A 
BRANCH   4   2
ATOM      1  O   UNL     1      -4.078   1.642  22.831  0.00  0.00    -0.241 OA
ATOM      2  C   UNL     1      -3.099   1.684  22.858  0.00  0.00    +0.388 C 
ATOM      3  O   UNL     1      -2.502   1.622  22.084  0.00  0.00    -0.241 OA
ENDBRANCH   4   2
ENDBRANCH  10   8
BRANCH  21  22
ATOM     22  N   UNL     1      -2.425   1.264  24.009  0.00  0.00    -0.092 NA
BRANCH  22  23
ATOM     23  S   UNL     1      -2.841   0.612  24.508  0.00  0.00    +0.093 S 
ATOM     24  O   UNL     1      -2.341  -0.113  24.321  0.00  0.00    -0.148 OA
ATOM     25  O   UNL     1      -3.548   1.164  24.901  0.00  0.00    -0.148 OA
BRANCH  23  26
ATOM     26  C   UNL     1      -3.050  -0.123  24.871  0.00  0.00    +0.127 A 
ATOM     27  C   UNL     1      -2.902  -0.709  24.310  0.00  0.00    +0.021 A 
ATOM     28  C   UNL     1      -3.049  -1.500  24.491  0.00  0.00    +0.013 A 
ATOM     29  C   UNL     1      -3.345  -1.705  25.233  0.00  0.00    +0.058 A 
ATOM     30 CL   UNL     1      -3.496  -2.531  25.413  0.00  0.00    -0.082 Cl
ATOM     31  C   UNL     1      -3.494  -1.118  25.794  0.00  0.00    +0.013 A 
ATOM     32  C   UNL     1      -3.346  -0.327  25.613  0.00  0.00    +0.021 A 
ENDBRANCH  23  26
ENDBRANCH  22  23
ENDBRANCH  21  22
TORSDOF 5
ENDMDL
