MODEL 1
REMARK VINA RESULT:     -10.0      0.000      0.000
REMARK  Name = 
REMARK  5 active torsions:
REMARK  status: ('A' for Active; 'I' for Inactive)
REMARK    1  A    between atoms: C_7  and  N_10
REMARK    2  A    between atoms: N_10  and  C_11
REMARK    3  A    between atoms: C_14  and  C_15
REMARK    4  A    between atoms: C_15  and  N_16
REMARK    5  A    between atoms: C_17  and  C_19
REMARK                            x       y       z     vdW  Elec       q    Type
REMARK                         _______ _______ _______ _____ _____    ______ ____
ROOT
ATOM     11  C   UNL     1      -4.181   1.104  24.627  0.00  0.00    +0.135 C 
ATOM     12  C   UNL     1      -3.541   1.174  24.111  0.00  0.00    +0.162 C 
ATOM     13  O   UNL     1      -3.192   1.911  24.237  0.00  0.00    -0.350 OA
ATOM     14  C   UNL     1      -3.617   2.297  24.830  0.00  0.00    +0.169 C 
ATOM     24  C   UNL     1      -4.228   1.797  25.071  0.00  0.00    +0.199 C 
ATOM     25  O   UNL     1      -4.789   1.963  25.654  0.00  0.00    -0.219 OA
ENDROOT
BRANCH  11  10
ATOM     10  N   UNL     1      -4.686   0.454  24.688  0.00  0.00    -0.216 NA
BRANCH  10   7
ATOM      1  C   UNL     1      -3.069  -2.903  25.328  0.00  0.00    +0.095 C 
ATOM      2  C   UNL     1      -3.444  -2.604  24.657  0.00  0.00    +0.226 C 
ATOM      3  O   UNL     1      -3.508  -3.068  23.977  0.00  0.00    -0.275 OA
ATOM      4  N   UNL     1      -3.754  -1.840  24.664  0.00  0.00    -0.279 N 
ATOM      5  C   UNL     1      -4.129  -1.540  23.993  0.00  0.00    +0.095 C 
ATOM      6  C   UNL     1      -4.439  -0.775  24.001  0.00  0.00    +0.039 C 
ATOM      7  C   UNL     1      -4.375  -0.311  24.679  0.00  0.00    +0.076 C 
ATOM      8  C   UNL     1      -4.001  -0.611  25.350  0.00  0.00    +0.039 C 
ATOM      9  C   UNL     1      -3.690  -1.375  25.343  0.00  0.00    +0.095 C 
ENDBRANCH  10   7
ENDBRANCH  11  10
BRANCH  14  15
ATOM     15  C   UNL     1      -3.459   3.049  25.129  0.00  0.00    +0.148 C 
BRANCH  15  16
ATOM     16  N   UNL     1      -2.752   3.429  24.938  0.00  0.00    -0.199 NA
ATOM     17  C   UNL     1      -2.492   4.068  25.391  0.00  0.00    +0.271 C 
ATOM     18  O   UNL     1      -2.939   4.326  26.035  0.00  0.00    -0.268 OA
BRANCH  17  19
ATOM     19  C   UNL     1      -1.785   4.448  25.200  0.00  0.00    +0.084 A 
ATOM     20  C   UNL     1      -1.688   5.258  25.079  0.00  0.00    +0.012 A 
ATOM     21  C   UNL     1      -0.894   5.396  24.901  0.00  0.00    +0.008 A 
ATOM     22  C   UNL     1      -0.500   4.670  24.912  0.00  0.00    +0.036 A 
ATOM     23  S   UNL     1      -1.052   4.085  25.097  0.00  0.00    -0.082 S 
ENDBRANCH  17  19
ENDBRANCH  15  16
ENDBRANCH  14  15
TORSDOF 5
ENDMDL
MODEL 2
REMARK VINA RESULT:      -9.4      2.473      5.961
REMARK  Name = 
REMARK  5 active torsions:
REMARK  status: ('A' for Active; 'I' for Inactive)
REMARK    1  A    between atoms: C_7  and  N_10
REMARK    2  A    between atoms: N_10  and  C_11
REMARK    3  A    between atoms: C_14  and  C_15
REMARK    4  A    between atoms: C_15  and  N_16
REMARK    5  A    between atoms: C_17  and  C_19
REMARK                            x       y       z     vdW  Elec       q    Type
REMARK                         _______ _______ _______ _____ _____    ______ ____
ROOT
ATOM     11  C   UNL     1      -0.580   1.128  25.137  0.00  0.00    +0.135 C 
ATOM     12  C   UNL     1      -0.698   1.148  24.321  0.00  0.00    +0.162 C 
ATOM     13  O   UNL     1      -0.987   0.411  24.088  0.00  0.00    -0.350 OA
ATOM     14  C   UNL     1      -1.047  -0.064  24.760  0.00  0.00    +0.169 C 
ATOM     24  C   UNL     1      -0.795   0.380  25.408  0.00  0.00    +0.199 C 
ATOM     25  O   UNL     1      -0.764   0.120  26.191  0.00  0.00    -0.219 OA
ENDROOT
BRANCH  11  10
ATOM     10  N   UNL     1      -0.295   1.749  25.601  0.00  0.00    -0.216 NA
BRANCH  10   7
ATOM      1  C   UNL     1      -1.204   5.336  24.823  0.00  0.00    +0.095 C 
ATOM      2  C   UNL     1      -1.588   4.769  25.283  0.00  0.00    +0.226 C 
ATOM      3  O   UNL     1      -2.296   4.957  25.665  0.00  0.00    -0.275 OA
ATOM      4  N   UNL     1      -1.265   4.014  25.363  0.00  0.00    -0.279 N 
ATOM      5  C   UNL     1      -1.650   3.447  25.823  0.00  0.00    +0.095 C 
ATOM      6  C   UNL     1      -1.326   2.692  25.902  0.00  0.00    +0.039 C 
ATOM      7  C   UNL     1      -0.619   2.504  25.522  0.00  0.00    +0.076 C 
ATOM      8  C   UNL     1      -0.235   3.071  25.062  0.00  0.00    +0.039 C 
ATOM      9  C   UNL     1      -0.558   3.826  24.982  0.00  0.00    +0.095 C 
ENDBRANCH  10   7
ENDBRANCH  11  10
BRANCH  14  15
ATOM     15  C   UNL     1      -1.312  -0.845  24.781  0.00  0.00    +0.148 C 
BRANCH  15  16
ATOM     16  N   UNL     1      -2.086  -1.024  24.557  0.00  0.00    -0.199 NA
ATOM     17  C   UNL     1      -2.337  -1.810  24.534  0.00  0.00    +0.271 C 
ATOM     18  O   UNL     1      -1.814  -2.416  24.734  0.00  0.00    -0.268 OA
BRANCH  17  19
ATOM     19  C   UNL     1      -3.110  -1.989  24.311  0.00  0.00    +0.084 A 
ATOM     20  C   UNL     1      -3.676  -1.451  24.045  0.00  0.00    +0.012 A 
ATOM     21  C   UNL     1      -4.370  -1.867  23.884  0.00  0.00    +0.008 A 
ATOM     22  C   UNL     1      -4.233  -2.664  24.050  0.00  0.00    +0.036 A 
ATOM     23  S   UNL     1      -3.454  -2.739  24.314  0.00  0.00    -0.082 S 
ENDBRANCH  17  19
ENDBRANCH  15  16
ENDBRANCH  14  15
TORSDOF 5
ENDMDL
MODEL 3
REMARK VINA RESULT:      -8.9      2.122      2.644
REMARK  Name = 
REMARK  5 active torsions:
REMARK  status: ('A' for Active; 'I' for Inactive)
REMARK    1  A    between atoms: C_7  and  N_10
REMARK    2  A    between atoms: N_10  and  C_11
REMARK    3  A    between atoms: C_14  and  C_15
REMARK    4  A    between atoms: C_15  and  N_16
REMARK    5  A    between atoms: C_17  and  C_19
REMARK                            x       y       z     vdW  Elec       q    Type
REMARK                         _______ _______ _______ _____ _____    ______ ____
ROOT
ATOM     11  C   UNL     1      -0.866  -0.175  24.923  0.00  0.00    +0.135 C 
ATOM     12  C   UNL     1      -1.216  -0.066  25.663  0.00  0.00    +0.162 C 
ATOM     13  O   UNL     1      -1.053   0.704  25.912  0.00  0.00    -0.350 OA
ATOM     14  C   UNL     1      -0.602   1.071  25.326  0.00  0.00    +0.169 C 
ATOM     24  C   UNL     1      -0.487   0.528  24.716  0.00  0.00    +0.199 C 
ATOM     25  O   UNL     1      -0.065   0.663  24.019  0.00  0.00    -0.219 OA
ENDROOT
BRANCH  11  10
ATOM     10  N   UNL     1      -0.891  -0.864  24.472  0.00  0.00    -0.216 NA
BRANCH  10   7
ATOM      1  C   UNL     1      -4.334  -2.342  23.963  0.00  0.00    +0.095 C 
ATOM      2  C   UNL     1      -3.665  -2.646  24.339  0.00  0.00    +0.226 C 
ATOM      3  O   UNL     1      -3.691  -3.397  24.683  0.00  0.00    -0.275 OA
ATOM      4  N   UNL     1      -2.972  -2.201  24.373  0.00  0.00    -0.279 N 
ATOM      5  C   UNL     1      -2.304  -2.506  24.749  0.00  0.00    +0.095 C 
ATOM      6  C   UNL     1      -1.610  -2.060  24.782  0.00  0.00    +0.039 C 
ATOM      7  C   UNL     1      -1.584  -1.310  24.439  0.00  0.00    +0.076 C 
ATOM      8  C   UNL     1      -2.253  -1.006  24.063  0.00  0.00    +0.039 C 
ATOM      9  C   UNL     1      -2.946  -1.451  24.029  0.00  0.00    +0.095 C 
ENDBRANCH  10   7
ENDBRANCH  11  10
BRANCH  14  15
ATOM     15  C   UNL     1      -0.317   1.844  25.347  0.00  0.00    +0.148 C 
BRANCH  15  16
ATOM     16  N   UNL     1      -0.839   2.480  25.279  0.00  0.00    -0.199 NA
ATOM     17  C   UNL     1      -0.586   3.244  25.458  0.00  0.00    +0.271 C 
ATOM     18  O   UNL     1       0.191   3.373  25.706  0.00  0.00    -0.268 OA
BRANCH  17  19
ATOM     19  C   UNL     1      -1.108   3.878  25.390  0.00  0.00    +0.084 A 
ATOM     20  C   UNL     1      -0.949   4.600  25.024  0.00  0.00    +0.012 A 
ATOM     21  C   UNL     1      -1.624   5.071  25.084  0.00  0.00    +0.008 A 
ATOM     22  C   UNL     1      -2.201   4.640  25.488  0.00  0.00    +0.036 A 
ATOM     23  S   UNL     1      -1.881   3.903  25.677  0.00  0.00    -0.082 S 
ENDBRANCH  17  19
ENDBRANCH  15  16
ENDBRANCH  14  15
TORSDOF 5
ENDMDL
MODEL 4
REMARK VINA RESULT:      -8.7      1.595      5.553
REMARK  Name = 
REMARK  5 active torsions:
REMARK  status: ('A' for Active; 'I' for Inactive)
REMARK    1  A    between atoms: C_7  and  N_10
REMARK    2  A    between atoms: N_10  and  C_11
REMARK    3  A    between atoms: C_14  and  C_15
REMARK    4  A    between atoms: C_15  and  N_16
REMARK    5  A    between atoms: C_17  and  C_19
REMARK                            x       y       z     vdW  Elec       q    Type
REMARK                         _______ _______ _______ _____ _____    ______ ____
ROOT
ATOM     11  C   UNL     1      -3.875   2.004  24.628  0.00  0.00    +0.135 C 
ATOM     12  C   UNL     1      -3.470   1.880  23.920  0.00  0.00    +0.162 C 
ATOM     13  O   UNL     1      -3.587   1.095  23.693  0.00  0.00    -0.350 OA
ATOM     14  C   UNL     1      -4.065   0.734  24.261  0.00  0.00    +0.169 C 
ATOM     24  C   UNL     1      -4.243   1.296  24.839  0.00  0.00    +0.199 C 
ATOM     25  O   UNL     1      -4.707   1.172  25.510  0.00  0.00    -0.219 OA
ENDROOT
BRANCH  11  10
ATOM     10  N   UNL     1      -3.907   2.712  25.051  0.00  0.00    -0.216 NA
BRANCH  10   7
ATOM      1  C   UNL     1      -1.273   5.415  24.835  0.00  0.00    +0.095 C 
ATOM      2  C   UNL     1      -1.254   4.670  25.189  0.00  0.00    +0.226 C 
ATOM      3  O   UNL     1      -0.572   4.414  25.578  0.00  0.00    -0.275 OA
ATOM      4  N   UNL     1      -1.917   4.180  25.155  0.00  0.00    -0.279 N 
ATOM      5  C   UNL     1      -1.898   3.435  25.509  0.00  0.00    +0.095 C 
ATOM      6  C   UNL     1      -2.562   2.946  25.474  0.00  0.00    +0.039 C 
ATOM      7  C   UNL     1      -3.243   3.201  25.086  0.00  0.00    +0.076 C 
ATOM      8  C   UNL     1      -3.262   3.946  24.732  0.00  0.00    +0.039 C 
ATOM      9  C   UNL     1      -2.599   4.436  24.766  0.00  0.00    +0.095 C 
ENDBRANCH  10   7
ENDBRANCH  11  10
BRANCH  14  15
ATOM     15  C   UNL     1      -4.320  -0.050  24.253  0.00  0.00    +0.148 C 
BRANCH  15  16
ATOM     16  N   UNL     1      -3.783  -0.661  24.392  0.00  0.00    -0.199 NA
ATOM     17  C   UNL     1      -3.991  -1.440  24.222  0.00  0.00    +0.271 C 
ATOM     18  O   UNL     1      -4.737  -1.610  23.911  0.00  0.00    -0.268 OA
BRANCH  17  19
ATOM     19  C   UNL     1      -3.454  -2.050  24.361  0.00  0.00    +0.084 A 
ATOM     20  C   UNL     1      -3.642  -2.846  24.474  0.00  0.00    +0.012 A 
ATOM     21  C   UNL     1      -2.939  -3.260  24.595  0.00  0.00    +0.008 A 
ATOM     22  C   UNL     1      -2.316  -2.720  24.558  0.00  0.00    +0.036 A 
ATOM     23  S   UNL     1      -2.635  -1.973  24.413  0.00  0.00    -0.082 S 
ENDBRANCH  17  19
ENDBRANCH  15  16
ENDBRANCH  14  15
TORSDOF 5
ENDMDL
MODEL 5
REMARK VINA RESULT:      -8.0      2.638      5.052
REMARK  Name = 
REMARK  5 active torsions:
REMARK  status: ('A' for Active; 'I' for Inactive)
REMARK    1  A    between atoms: C_7  and  N_10
REMARK    2  A    between atoms: N_10  and  C_11
REMARK    3  A    between atoms: C_14  and  C_15
REMARK    4  A    between atoms: C_15  and  N_16
REMARK    5  A    between atoms: C_17  and  C_19
REMARK                            x       y       z     vdW  Elec       q    Type
REMARK                         _______ _______ _______ _____ _____    ______ ____
ROOT
ATOM     11  C   UNL     1      -2.112   2.556  24.279  0.00  0.00    +0.135 C 
ATOM     12  C   UNL     1      -1.747   2.571  25.019  0.00  0.00    +0.162 C 
ATOM     13  O   UNL     1      -1.211   1.944  25.051  0.00  0.00    -0.350 OA
ATOM     14  C   UNL     1      -1.245   1.543  24.332  0.00  0.00    +0.169 C 
ATOM     24  C   UNL     1      -1.802   1.921  23.854  0.00  0.00    +0.199 C 
ATOM     25  O   UNL     1      -2.011   1.702  23.087  0.00  0.00    -0.219 OA
ENDROOT
BRANCH  11  10
ATOM     10  N   UNL     1      -2.686   3.085  24.011  0.00  0.00    -0.216 NA
BRANCH  10   7
ATOM      1  C   UNL     1      -6.163   2.727  25.452  0.00  0.00    +0.095 C 
ATOM      2  C   UNL     1      -5.584   3.301  25.575  0.00  0.00    +0.226 C 
ATOM      3  O   UNL     1      -5.728   3.930  26.091  0.00  0.00    -0.275 OA
ATOM      4  N   UNL     1      -4.859   3.248  25.185  0.00  0.00    -0.279 N 
ATOM      5  C   UNL     1      -4.280   3.822  25.308  0.00  0.00    +0.095 C 
ATOM      6  C   UNL     1      -3.555   3.767  24.917  0.00  0.00    +0.039 C 
ATOM      7  C   UNL     1      -3.410   3.140  24.402  0.00  0.00    +0.076 C 
ATOM      8  C   UNL     1      -3.990   2.566  24.279  0.00  0.00    +0.039 C 
ATOM      9  C   UNL     1      -4.714   2.619  24.669  0.00  0.00    +0.095 C 
ENDBRANCH  10   7
ENDBRANCH  11  10
BRANCH  14  15
ATOM     15  C   UNL     1      -0.801   0.879  24.125  0.00  0.00    +0.148 C 
BRANCH  15  16
ATOM     16  N   UNL     1      -1.018   0.133  24.404  0.00  0.00    -0.199 NA
ATOM     17  C   UNL     1      -0.543  -0.522  24.243  0.00  0.00    +0.271 C 
ATOM     18  O   UNL     1       0.149  -0.431  23.803  0.00  0.00    -0.268 OA
BRANCH  17  19
ATOM     19  C   UNL     1      -0.760  -1.267  24.522  0.00  0.00    +0.084 A 
ATOM     20  C   UNL     1      -1.316  -1.771  24.178  0.00  0.00    +0.012 A 
ATOM     21  C   UNL     1      -1.359  -2.455  24.637  0.00  0.00    +0.008 A 
ATOM     22  C   UNL     1      -0.830  -2.374  25.265  0.00  0.00    +0.036 A 
ATOM     23  S   UNL     1      -0.460  -1.640  25.194  0.00  0.00    -0.082 S 
ENDBRANCH  17  19
ENDBRANCH  15  16
ENDBRANCH  14  15
TORSDOF 5
ENDMDL
MODEL 6
REMARK VINA RESULT:      -7.8      4.198      5.335
REMARK  Name = 
REMARK  5 active torsions:
REMARK  status: ('A' for Active; 'I' for Inactive)
REMARK    1  A    between atoms: C_7  and  N_10
REMARK    2  A    between atoms: N_10  and  C_11
REMARK    3  A    between atoms: C_14  and  C_15
REMARK    4  A    between atoms: C_15  and  N_16
REMARK    5  A    between atoms: C_17  and  C_19
REMARK                            x       y       z     vdW  Elec       q    Type
REMARK                         _______ _______ _______ _____ _____    ______ ____
ROOT
ATOM     11  C   UNL     1      -0.610   0.689  24.277  0.00  0.00    +0.135 C 
ATOM     12  C   UNL     1      -0.224   1.415  24.210  0.00  0.00    +0.162 C 
ATOM     13  O   UNL     1       0.449   1.303  23.746  0.00  0.00    -0.350 OA
ATOM     14  C   UNL     1       0.479   0.508  23.527  0.00  0.00    +0.169 C 
ATOM     24  C   UNL     1      -0.176   0.129  23.855  0.00  0.00    +0.199 C 
ATOM     25  O   UNL     1      -0.364  -0.671  23.775  0.00  0.00    -0.219 OA
ENDROOT
BRANCH  11  10
ATOM     10  N   UNL     1      -1.308   0.548  24.694  0.00  0.00    -0.216 NA
BRANCH  10   7
ATOM      1  C   UNL     1      -3.838   3.342  24.994  0.00  0.00    +0.095 C 
ATOM      2  C   UNL     1      -3.810   2.691  24.489  0.00  0.00    +0.226 C 
ATOM      3  O   UNL     1      -4.408   2.575  23.931  0.00  0.00    -0.275 OA
ATOM      4  N   UNL     1      -3.185   2.155  24.539  0.00  0.00    -0.279 N 
ATOM      5  C   UNL     1      -3.157   1.503  24.034  0.00  0.00    +0.095 C 
ATOM      6  C   UNL     1      -2.532   0.968  24.086  0.00  0.00    +0.039 C 
ATOM      7  C   UNL     1      -1.934   1.083  24.642  0.00  0.00    +0.076 C 
ATOM      8  C   UNL     1      -1.962   1.735  25.147  0.00  0.00    +0.039 C 
ATOM      9  C   UNL     1      -2.587   2.271  25.097  0.00  0.00    +0.095 C 
ENDBRANCH  10   7
ENDBRANCH  11  10
BRANCH  14  15
ATOM     15  C   UNL     1       1.061   0.155  23.061  0.00  0.00    +0.148 C 
BRANCH  15  16
ATOM     16  N   UNL     1       1.857   0.329  23.191  0.00  0.00    -0.199 NA
ATOM     17  C   UNL     1       2.419   0.144  22.617  0.00  0.00    +0.271 C 
ATOM     18  O   UNL     1       2.186  -0.216  21.912  0.00  0.00    -0.268 OA
BRANCH  17  19
ATOM     19  C   UNL     1       3.215   0.319  22.748  0.00  0.00    +0.084 A 
ATOM     20  C   UNL     1       3.591   1.031  22.569  0.00  0.00    +0.012 A 
ATOM     21  C   UNL     1       4.383   0.964  22.790  0.00  0.00    +0.008 A 
ATOM     22  C   UNL     1       4.496   0.210  23.106  0.00  0.00    +0.036 A 
ATOM     23  S   UNL     1       3.774  -0.188  23.079  0.00  0.00    -0.082 S 
ENDBRANCH  17  19
ENDBRANCH  15  16
ENDBRANCH  14  15
TORSDOF 5
ENDMDL
MODEL 7
REMARK VINA RESULT:      -7.1     17.698     19.164
REMARK  Name = 
REMARK  5 active torsions:
REMARK  status: ('A' for Active; 'I' for Inactive)
REMARK    1  A    between atoms: C_7  and  N_10
REMARK    2  A    between atoms: N_10  and  C_11
REMARK    3  A    between atoms: C_14  and  C_15
REMARK    4  A    between atoms: C_15  and  N_16
REMARK    5  A    between atoms: C_17  and  C_19
REMARK                            x       y       z     vdW  Elec       q    Type
REMARK                         _______ _______ _______ _____ _____    ______ ____
ROOT
ATOM     11  C   UNL     1      13.330   7.660  20.239  0.00  0.00    +0.135 C 
ATOM     12  C   UNL     1      13.714   8.195  19.741  0.00  0.00    +0.162 C 
ATOM     13  O   UNL     1      13.181   8.427  19.156  0.00  0.00    -0.350 OA
ATOM     14  C   UNL     1      12.467   8.035  19.292  0.00  0.00    +0.169 C 
ATOM     24  C   UNL     1      12.560   7.561  19.961  0.00  0.00    +0.199 C 
ATOM     25  O   UNL     1      11.983   7.074  20.295  0.00  0.00    -0.219 OA
ENDROOT
BRANCH  11  10
ATOM     10  N   UNL     1      13.660   7.290  20.899  0.00  0.00    -0.216 NA
BRANCH  10   7
ATOM      1  C   UNL     1      17.351   6.472  20.899  0.00  0.00    +0.095 C 
ATOM      2  C   UNL     1      16.939   7.110  21.222  0.00  0.00    +0.226 C 
ATOM      3  O   UNL     1      17.347   7.704  21.625  0.00  0.00    -0.275 OA
ATOM      4  N   UNL     1      16.119   7.156  21.141  0.00  0.00    -0.279 N 
ATOM      5  C   UNL     1      15.707   7.793  21.464  0.00  0.00    +0.095 C 
ATOM      6  C   UNL     1      14.887   7.838  21.383  0.00  0.00    +0.039 C 
ATOM      7  C   UNL     1      14.480   7.245  20.980  0.00  0.00    +0.076 C 
ATOM      8  C   UNL     1      14.892   6.607  20.657  0.00  0.00    +0.039 C 
ATOM      9  C   UNL     1      15.711   6.562  20.738  0.00  0.00    +0.095 C 
ENDBRANCH  10   7
ENDBRANCH  11  10
BRANCH  14  15
ATOM     15  C   UNL     1      11.782   8.104  18.839  0.00  0.00    +0.148 C 
BRANCH  15  16
ATOM     16  N   UNL     1      11.830   8.347  18.051  0.00  0.00    -0.199 NA
ATOM     17  C   UNL     1      11.141   8.478  17.617  0.00  0.00    +0.271 C 
ATOM     18  O   UNL     1      10.404   8.368  17.970  0.00  0.00    -0.268 OA
BRANCH  17  19
ATOM     19  C   UNL     1      11.189   8.721  16.830  0.00  0.00    +0.084 A 
ATOM     20  C   UNL     1      11.884   8.863  16.408  0.00  0.00    +0.012 A 
ATOM     21  C   UNL     1      11.675   9.094  15.644  0.00  0.00    +0.008 A 
ATOM     22  C   UNL     1      10.851   9.094  15.593  0.00  0.00    +0.036 A 
ATOM     23  S   UNL     1      10.552   8.863  16.326  0.00  0.00    -0.082 S 
ENDBRANCH  17  19
ENDBRANCH  15  16
ENDBRANCH  14  15
TORSDOF 5
ENDMDL
