MODEL 1
REMARK VINA RESULT:      -9.5      0.000      0.000
REMARK  Name = 
REMARK  8 active torsions:
REMARK  status: ('A' for Active; 'I' for Inactive)
REMARK    1  A    between atoms: O_2  and  C_3
REMARK    2  A    between atoms: C_5  and  O_6
REMARK    3  A    between atoms: C_9  and  N_10
REMARK    4  A    between atoms: C_11  and  O_13
REMARK    5  A    between atoms: O_13  and  C_14
REMARK    6  A    between atoms: C_18  and  N_22
REMARK    7  A    between atoms: C_23  and  C_25
REMARK    8  A    between atoms: C_28  and  C_31
REMARK                            x       y       z     vdW  Elec       q    Type
REMARK                         _______ _______ _______ _____ _____    ______ ____
ROOT
ATOM     14  C   UNL     1      -0.848   0.970  23.752  0.00  0.00    +0.229 C 
ATOM     15  C   UNL     1      -0.466   1.455  24.299  0.00  0.00    +0.188 C 
ATOM     16  O   UNL     1       0.343   1.302  24.254  0.00  0.00    -0.348 OA
ATOM     17  C   UNL     1       0.462   0.722  23.681  0.00  0.00    +0.168 C 
ATOM     18  C   UNL     1       1.035   0.268  23.298  0.00  0.00    +0.155 C 
ATOM     19  C   UNL     1       0.653  -0.217  22.751  0.00  0.00    +0.166 C 
ATOM     20  O   UNL     1      -0.156  -0.064  22.796  0.00  0.00    -0.348 OA
ATOM     21  C   UNL     1      -0.274   0.517  23.370  0.00  0.00    +0.186 C 
ENDROOT
BRANCH  18  22
ATOM     22  N   UNL     1       1.847   0.296  23.438  0.00  0.00    -0.198 NA
ATOM     23  C   UNL     1       2.377   0.144  22.824  0.00  0.00    +0.265 C 
ATOM     24  O   UNL     1       2.095  -0.035  22.070  0.00  0.00    -0.268 OA
BRANCH  23  25
ATOM     25  C   UNL     1       3.190   0.172  22.964  0.00  0.00    +0.055 A 
ATOM     26  C   UNL     1       3.577  -0.485  23.281  0.00  0.00    +0.005 A 
ATOM     27  C   UNL     1       4.389  -0.458  23.421  0.00  0.00    +0.004 A 
ATOM     28  C   UNL     1       4.815   0.227  23.244  0.00  0.00    +0.071 A 
ATOM     29  C   UNL     1       4.428   0.882  22.927  0.00  0.00    +0.004 A 
ATOM     30  C   UNL     1       3.616   0.856  22.786  0.00  0.00    +0.005 A 
BRANCH  28  31
ATOM     31  C   UNL     1       5.628   0.255  23.384  0.00  0.00    +0.419 C 
ATOM     32  F   UNL     1       6.440   0.282  23.524  0.00  0.00    -0.166 F 
ATOM     33  F   UNL     1       5.760  -0.188  22.701  0.00  0.00    -0.166 F 
ATOM     34  F   UNL     1       5.495   0.698  24.067  0.00  0.00    -0.166 F 
ENDBRANCH  28  31
ENDBRANCH  23  25
ENDBRANCH  18  22
BRANCH  14  13
ATOM     13  O   UNL     1      -1.661   0.942  23.612  0.00  0.00    -0.432 OA
BRANCH  13  11
ATOM     10  N   UNL     1      -2.754   1.833  23.843  0.00  0.00    -0.142 NA
ATOM     11  C   UNL     1      -2.182   1.314  24.132  0.00  0.00    +0.425 C 
ATOM     12  O   UNL     1      -2.131   1.166  24.943  0.00  0.00    -0.224 OA
BRANCH  10   9
ATOM      3  C   UNL     1      -4.488   2.196  25.118  0.00  0.00    +0.143 A 
ATOM      4  C   UNL     1      -4.317   2.951  25.403  0.00  0.00    +0.074 A 
ATOM      5  C   UNL     1      -3.624   3.333  25.168  0.00  0.00    +0.143 A 
ATOM      8  C   UNL     1      -3.104   2.960  24.648  0.00  0.00    +0.054 A 
ATOM      9  C   UNL     1      -3.275   2.206  24.363  0.00  0.00    +0.083 A 
ATOM     35  C   UNL     1      -3.967   1.824  24.598  0.00  0.00    +0.054 A 
BRANCH   3   2
ATOM      1  C   UNL     1      -5.895   1.986  24.978  0.00  0.00    +0.252 C 
ATOM      2  O   UNL     1      -5.180   1.814  25.353  0.00  0.00    -0.471 OA
ENDBRANCH   3   2
BRANCH   5   6
ATOM      6  O   UNL     1      -3.453   4.088  25.453  0.00  0.00    -0.471 OA
ATOM      7  C   UNL     1      -3.105   4.180  26.196  0.00  0.00    +0.252 C 
ENDBRANCH   5   6
ENDBRANCH  10   9
ENDBRANCH  13  11
ENDBRANCH  14  13
TORSDOF 8
ENDMDL
MODEL 2
REMARK VINA RESULT:      -9.0      1.150      1.678
REMARK  Name = 
REMARK  8 active torsions:
REMARK  status: ('A' for Active; 'I' for Inactive)
REMARK    1  A    between atoms: O_2  and  C_3
REMARK    2  A    between atoms: C_5  and  O_6
REMARK    3  A    between atoms: C_9  and  N_10
REMARK    4  A    between atoms: C_11  and  O_13
REMARK    5  A    between atoms: O_13  and  C_14
REMARK    6  A    between atoms: C_18  and  N_22
REMARK    7  A    between atoms: C_23  and  C_25
REMARK    8  A    between atoms: C_28  and  C_31
REMARK                            x       y       z     vdW  Elec       q    Type
REMARK                         _______ _______ _______ _____ _____    ______ ____
ROOT
ATOM     14  C   UNL     1      -0.686   1.205  23.563  0.00  0.00    +0.229 C 
ATOM     15  C   UNL     1      -0.302   1.656  24.137  0.00  0.00    +0.188 C 
ATOM     16  O   UNL     1       0.495   1.447  24.134  0.00  0.00    -0.348 OA
ATOM     17  C   UNL     1       0.605   0.867  23.558  0.00  0.00    +0.168 C 
ATOM     18  C   UNL     1       1.166   0.379  23.200  0.00  0.00    +0.155 C 
ATOM     19  C   UNL     1       0.782  -0.072  22.626  0.00  0.00    +0.166 C 
ATOM     20  O   UNL     1      -0.015   0.137  22.629  0.00  0.00    -0.348 OA
ATOM     21  C   UNL     1      -0.125   0.718  23.205  0.00  0.00    +0.186 C 
ENDROOT
BRANCH  18  22
ATOM     22  N   UNL     1       1.969   0.348  23.384  0.00  0.00    -0.198 NA
ATOM     23  C   UNL     1       2.523   0.199  22.791  0.00  0.00    +0.265 C 
ATOM     24  O   UNL     1       2.274   0.081  22.014  0.00  0.00    -0.268 OA
BRANCH  23  25
ATOM     25  C   UNL     1       3.327   0.168  22.976  0.00  0.00    +0.055 A 
ATOM     26  C   UNL     1       3.649  -0.518  23.304  0.00  0.00    +0.005 A 
ATOM     27  C   UNL     1       4.452  -0.550  23.488  0.00  0.00    +0.004 A 
ATOM     28  C   UNL     1       4.934   0.106  23.344  0.00  0.00    +0.071 A 
ATOM     29  C   UNL     1       4.612   0.790  23.016  0.00  0.00    +0.004 A 
ATOM     30  C   UNL     1       3.808   0.822  22.832  0.00  0.00    +0.005 A 
BRANCH  28  31
ATOM     31  C   UNL     1       5.738   0.074  23.529  0.00  0.00    +0.419 C 
ATOM     32  F   UNL     1       6.541   0.044  23.713  0.00  0.00    -0.166 F 
ATOM     33  F   UNL     1       5.895  -0.248  22.786  0.00  0.00    -0.166 F 
ATOM     34  F   UNL     1       5.580   0.398  24.271  0.00  0.00    -0.166 F 
ENDBRANCH  28  31
ENDBRANCH  23  25
ENDBRANCH  18  22
BRANCH  14  13
ATOM     13  O   UNL     1      -1.490   1.236  23.378  0.00  0.00    -0.432 OA
BRANCH  13  11
ATOM     10  N   UNL     1      -2.711   0.581  23.725  0.00  0.00    -0.142 NA
ATOM     11  C   UNL     1      -2.052   1.024  23.944  0.00  0.00    +0.425 C 
ATOM     12  O   UNL     1      -1.953   1.257  24.730  0.00  0.00    -0.224 OA
BRANCH  10   9
ATOM      3  C   UNL     1      -3.704  -0.495  25.344  0.00  0.00    +0.143 A 
ATOM      4  C   UNL     1      -4.397  -0.054  25.422  0.00  0.00    +0.074 A 
ATOM      5  C   UNL     1      -4.528   0.598  24.934  0.00  0.00    +0.143 A 
ATOM      8  C   UNL     1      -3.966   0.810  24.369  0.00  0.00    +0.054 A 
ATOM      9  C   UNL     1      -3.273   0.369  24.291  0.00  0.00    +0.083 A 
ATOM     35  C   UNL     1      -3.142  -0.283  24.778  0.00  0.00    +0.054 A 
BRANCH   3   2
ATOM      1  C   UNL     1      -3.528  -1.904  25.506  0.00  0.00    +0.252 C 
ATOM      2  O   UNL     1      -3.574  -1.147  25.831  0.00  0.00    -0.471 OA
ENDBRANCH   3   2
BRANCH   5   6
ATOM      6  O   UNL     1      -5.221   1.039  25.012  0.00  0.00    -0.471 OA
ATOM      7  C   UNL     1      -5.213   1.748  25.435  0.00  0.00    +0.252 C 
ENDBRANCH   5   6
ENDBRANCH  10   9
ENDBRANCH  13  11
ENDBRANCH  14  13
TORSDOF 8
ENDMDL
MODEL 3
REMARK VINA RESULT:      -6.4      3.863      7.695
REMARK  Name = 
REMARK  8 active torsions:
REMARK  status: ('A' for Active; 'I' for Inactive)
REMARK    1  A    between atoms: O_2  and  C_3
REMARK    2  A    between atoms: C_5  and  O_6
REMARK    3  A    between atoms: C_9  and  N_10
REMARK    4  A    between atoms: C_11  and  O_13
REMARK    5  A    between atoms: O_13  and  C_14
REMARK    6  A    between atoms: C_18  and  N_22
REMARK    7  A    between atoms: C_23  and  C_25
REMARK    8  A    between atoms: C_28  and  C_31
REMARK                            x       y       z     vdW  Elec       q    Type
REMARK                         _______ _______ _______ _____ _____    ______ ____
ROOT
ATOM     14  C   UNL     1       0.017   1.949  24.683  0.00  0.00    +0.229 C 
ATOM     15  C   UNL     1      -0.225   1.288  25.114  0.00  0.00    +0.188 C 
ATOM     16  O   UNL     1      -1.038   1.349  25.238  0.00  0.00    -0.348 OA
ATOM     17  C   UNL     1      -1.299   2.046  24.885  0.00  0.00    +0.168 C 
ATOM     18  C   UNL     1      -1.962   2.516  24.742  0.00  0.00    +0.155 C 
ATOM     19  C   UNL     1      -1.721   3.176  24.311  0.00  0.00    +0.166 C 
ATOM     20  O   UNL     1      -0.908   3.115  24.187  0.00  0.00    -0.348 OA
ATOM     21  C   UNL     1      -0.647   2.417  24.541  0.00  0.00    +0.186 C 
ENDROOT
BRANCH  18  22
ATOM     22  N   UNL     1      -2.733   2.352  24.988  0.00  0.00    -0.198 NA
ATOM     23  C   UNL     1      -3.366   2.486  24.477  0.00  0.00    +0.265 C 
ATOM     24  O   UNL     1      -3.230   2.783  23.720  0.00  0.00    -0.268 OA
BRANCH  23  25
ATOM     25  C   UNL     1      -4.137   2.323  24.723  0.00  0.00    +0.055 A 
ATOM     26  C   UNL     1      -4.424   1.550  24.693  0.00  0.00    +0.005 A 
ATOM     27  C   UNL     1      -5.195   1.386  24.939  0.00  0.00    +0.004 A 
ATOM     28  C   UNL     1      -5.678   1.997  25.215  0.00  0.00    +0.071 A 
ATOM     29  C   UNL     1      -5.390   2.768  25.244  0.00  0.00    +0.004 A 
ATOM     30  C   UNL     1      -4.620   2.933  24.998  0.00  0.00    +0.005 A 
BRANCH  28  31
ATOM     31  C   UNL     1      -6.448   1.833  25.461  0.00  0.00    +0.419 C 
ATOM     32  F   UNL     1      -7.218   1.670  25.707  0.00  0.00    -0.166 F 
ATOM     33  F   UNL     1      -6.703   1.858  24.677  0.00  0.00    -0.166 F 
ATOM     34  F   UNL     1      -6.193   1.809  26.245  0.00  0.00    -0.166 F 
ENDBRANCH  28  31
ENDBRANCH  23  25
ENDBRANCH  18  22
BRANCH  14  13
ATOM     13  O   UNL     1       0.787   2.112  24.437  0.00  0.00    -0.432 OA
BRANCH  13  11
ATOM     10  N   UNL     1       1.763   1.732  23.465  0.00  0.00    -0.142 NA
ATOM     11  C   UNL     1       1.234   1.528  24.063  0.00  0.00    +0.425 C 
ATOM     12  O   UNL     1       1.151   0.738  24.289  0.00  0.00    -0.224 OA
BRANCH  10   9
ATOM      3  C   UNL     1       3.480   0.601  22.730  0.00  0.00    +0.143 A 
ATOM      4  C   UNL     1       3.103  -0.022  22.343  0.00  0.00    +0.074 A 
ATOM      5  C   UNL     1       2.278  -0.060  22.330  0.00  0.00    +0.143 A 
ATOM      8  C   UNL     1       1.832   0.525  22.704  0.00  0.00    +0.054 A 
ATOM      9  C   UNL     1       2.210   1.148  23.091  0.00  0.00    +0.083 A 
ATOM     35  C   UNL     1       3.034   1.186  23.104  0.00  0.00    +0.054 A 
BRANCH   3   2
ATOM      1  C   UNL     1       4.731   0.164  23.265  0.00  0.00    +0.252 C 
ATOM      2  O   UNL     1       4.304   0.640  22.743  0.00  0.00    -0.471 OA
ENDBRANCH   3   2
BRANCH   5   6
ATOM      6  O   UNL     1       1.901  -0.683  21.943  0.00  0.00    -0.471 OA
ATOM      7  C   UNL     1       1.461  -0.539  21.260  0.00  0.00    +0.252 C 
ENDBRANCH   5   6
ENDBRANCH  10   9
ENDBRANCH  13  11
ENDBRANCH  14  13
TORSDOF 8
ENDMDL
