REMARK  Name = 
REMARK  4 active torsions:
REMARK  status: ('A' for Active; 'I' for Inactive)
REMARK    1  A    between atoms: C_2  and  C_15
REMARK    2  A    between atoms: N_3  and  C_4
REMARK    3  A    between atoms: C_4  and  C_5
REMARK    4  A    between atoms: C_12  and  C_13
REMARK                            x       y       z     vdW  Elec       q    Type
REMARK                         _______ _______ _______ _____ _____    ______ ____
ROOT
ATOM      1  O   UNL     1       0.715  -2.888   0.000  0.00  0.00    -0.268 OA
ATOM      2  C   UNL     1       0.000  -2.475   0.000  0.00  0.00    +0.265 C 
ATOM      3  N   UNL     1      -0.715  -2.888   0.000  0.00  0.00    -0.200 NA
ENDROOT
BRANCH   2  15
ATOM     15  C   UNL     1       0.000  -1.650   0.000  0.00  0.00    +0.055 A 
ATOM     16  C   UNL     1       0.715  -1.238   0.000  0.00  0.00    +0.005 A 
ATOM     17  C   UNL     1       0.715  -0.412   0.000  0.00  0.00    +0.000 A 
ATOM     18  C   UNL     1       0.000   0.000   0.000  0.00  0.00    +0.000 A 
ATOM     19  C   UNL     1       0.000   0.825   0.000  0.00  0.00    +0.000 A 
ATOM     20  C   UNL     1       0.715   1.238   0.000  0.00  0.00    +0.000 A 
ATOM     21  C   UNL     1       1.429   0.825   0.000  0.00  0.00    +0.000 A 
ATOM     22  C   UNL     1       1.429   0.000   0.000  0.00  0.00    +0.000 A 
ATOM     23  C   UNL     1      -0.715  -0.412   0.000  0.00  0.00    +0.000 A 
ATOM     24  C   UNL     1      -0.715  -1.238   0.000  0.00  0.00    +0.005 A 
ENDBRANCH   2  15
BRANCH   3   4
ATOM      4  C   UNL     1      -0.715  -3.712   0.000  0.00  0.00    +0.131 C 
BRANCH   4   5
ATOM      5  C   UNL     1      -1.429  -4.125   0.000  0.00  0.00    +0.079 C 
ATOM      6  C   UNL     1      -2.206  -4.167   0.000  0.00  0.00    +0.019 C 
ATOM      7  C   UNL     1      -2.640  -4.850   0.000  0.00  0.00    +0.016 C 
ATOM      8  C   UNL     1      -3.522  -4.685   0.000  0.00  0.00    +0.018 C 
ATOM      9  C   UNL     1      -2.887  -4.529   0.000  0.00  0.00    +0.072 C 
ATOM     10  N   UNL     1      -1.879  -4.816   0.000  0.00  0.00    -0.271 NA
ATOM     11  C   UNL     1      -1.644  -5.698   0.000  0.00  0.00    +0.085 C 
ATOM     12  C   UNL     1      -2.407  -5.696   0.000  0.00  0.00    +0.081 C 
BRANCH  12  13
ATOM     13  C   UNL     1      -2.908  -6.352   0.000  0.00  0.00    -0.078 C 
ATOM     14  C   UNL     1      -3.408  -7.008   0.000  0.00  0.00    -0.014 C 
ENDBRANCH  12  13
ENDBRANCH   4   5
ENDBRANCH   3   4
TORSDOF 4
