MODEL 1
REMARK VINA RESULT:     -13.4      0.000      0.000
REMARK  Name = 
REMARK  5 active torsions:
REMARK  status: ('A' for Active; 'I' for Inactive)
REMARK    1  A    between atoms: N_3  and  C_4
REMARK    2  A    between atoms: C_4  and  C_5
REMARK    3  A    between atoms: C_12  and  C_13
REMARK    4  A    between atoms: C_13  and  N_14
REMARK    5  A    between atoms: N_28  and  C_29
REMARK                            x       y       z     vdW  Elec       q    Type
REMARK                         _______ _______ _______ _____ _____    ______ ____
ROOT
ATOM      5  C   UNL     1      -4.403   2.290  24.767  0.00  0.00    +0.079 C 
ATOM      6  C   UNL     1      -4.953   1.789  24.996  0.00  0.00    +0.018 C 
ATOM      7  C   UNL     1      -4.881   0.982  25.002  0.00  0.00    +0.005 C 
ATOM      8  C   UNL     1      -5.628   0.584  25.301  0.00  0.00    +0.017 C 
ATOM      9  C   UNL     1      -5.247   1.090  25.136  0.00  0.00    +0.072 C 
ATOM     10  N   UNL     1      -4.339   1.467  24.776  0.00  0.00    -0.272 NA
ATOM     11  C   UNL     1      -3.659   0.905  24.542  0.00  0.00    +0.073 C 
ATOM     12  C   UNL     1      -4.224   0.447  24.775  0.00  0.00    +0.032 C 
ENDROOT
BRANCH   5   4
ATOM      4  C   UNL     1      -4.112   3.049  24.626  0.00  0.00    +0.133 C 
BRANCH   4   3
ATOM      1  O   UNL     1      -2.776   3.879  24.126  0.00  0.00    -0.249 OA
ATOM      2  C   UNL     1      -2.953   3.827  24.930  0.00  0.00    +0.344 C 
ATOM      3  N   UNL     1      -3.621   3.412  25.180  0.00  0.00    -0.185 NA
ATOM     28  N   UNL     1      -2.462   4.191  25.484  0.00  0.00    -0.161 NA
BRANCH  28  29
ATOM     29  C   UNL     1      -1.794   4.606  25.235  0.00  0.00    +0.075 A 
ATOM     30  C   UNL     1      -1.830   5.424  25.138  0.00  0.00    +0.017 A 
ATOM     31  C   UNL     1      -1.162   5.840  24.889  0.00  0.00    +0.001 A 
ATOM     32  C   UNL     1      -0.458   5.436  24.736  0.00  0.00    +0.000 A 
ATOM     33  C   UNL     1      -0.423   4.618  24.833  0.00  0.00    +0.001 A 
ATOM     34  C   UNL     1      -1.091   4.202  25.083  0.00  0.00    +0.017 A 
ENDBRANCH  28  29
ENDBRANCH   4   3
ENDBRANCH   5   4
BRANCH  12  13
ATOM     13  C   UNL     1      -4.217  -0.377  24.806  0.00  0.00    +0.073 C 
BRANCH  13  14
ATOM     14  N   UNL     1      -3.773  -0.764  25.383  0.00  0.00    -0.272 NA
ATOM     15  C   UNL     1      -3.344  -0.876  26.092  0.00  0.00    +0.074 C 
ATOM     16  C   UNL     1      -3.097  -1.827  25.987  0.00  0.00    +0.039 C 
ATOM     17  C   UNL     1      -2.817  -2.589  26.051  0.00  0.00    +0.011 C 
ATOM     18  C   UNL     1      -3.192  -2.211  25.594  0.00  0.00    +0.054 C 
ATOM     19  C   UNL     1      -3.423  -1.292  25.710  0.00  0.00    +0.078 C 
ATOM     20  C   UNL     1      -3.620  -2.278  24.784  0.00  0.00    +0.041 A 
ATOM     21  C   UNL     1      -3.778  -2.823  24.185  0.00  0.00    +0.013 A 
ATOM     22  C   UNL     1      -4.217  -2.595  23.525  0.00  0.00    +0.006 A 
ATOM     23  C   UNL     1      -4.499  -1.822  23.463  0.00  0.00    +0.061 A 
ATOM     24  C   UNL     1      -4.341  -1.277  24.062  0.00  0.00    +0.261 A 
ATOM     25  O   UNL     1      -4.623  -0.504  24.000  0.00  0.00    -0.267 OA
ATOM     26  N   UNL     1      -3.902  -1.505  24.722  0.00  0.00    -0.299 N 
ATOM     27  C   UNL     1      -3.547  -1.887  25.141  0.00  0.00    +0.110 C 
ENDBRANCH  13  14
ENDBRANCH  12  13
TORSDOF 5
ENDMDL
MODEL 2
REMARK VINA RESULT:     -12.6      3.449      4.900
REMARK  Name = 
REMARK  5 active torsions:
REMARK  status: ('A' for Active; 'I' for Inactive)
REMARK    1  A    between atoms: N_3  and  C_4
REMARK    2  A    between atoms: C_4  and  C_5
REMARK    3  A    between atoms: C_12  and  C_13
REMARK    4  A    between atoms: C_13  and  N_14
REMARK    5  A    between atoms: N_28  and  C_29
REMARK                            x       y       z     vdW  Elec       q    Type
REMARK                         _______ _______ _______ _____ _____    ______ ____
ROOT
ATOM      5  C   UNL     1      -0.797   1.187  23.714  0.00  0.00    +0.079 C 
ATOM      6  C   UNL     1      -1.348   1.439  23.226  0.00  0.00    +0.018 C 
ATOM      7  C   UNL     1      -2.085   1.698  23.440  0.00  0.00    +0.005 C 
ATOM      8  C   UNL     1      -2.571   1.946  22.728  0.00  0.00    +0.017 C 
ATOM      9  C   UNL     1      -2.043   1.718  23.039  0.00  0.00    +0.072 C 
ATOM     10  N   UNL     1      -1.550   1.452  23.924  0.00  0.00    -0.272 NA
ATOM     11  C   UNL     1      -1.965   1.534  24.732  0.00  0.00    +0.073 C 
ATOM     12  C   UNL     1      -2.478   1.775  24.221  0.00  0.00    +0.032 C 
ENDROOT
BRANCH   5   4
ATOM      4  C   UNL     1      -0.048   0.888  23.887  0.00  0.00    +0.133 C 
BRANCH   4   3
ATOM      1  O   UNL     1       1.597   0.926  24.005  0.00  0.00    -0.249 OA
ATOM      2  C   UNL     1       1.239   0.584  23.346  0.00  0.00    +0.344 C 
ATOM      3  N   UNL     1       0.416   0.565  23.286  0.00  0.00    -0.185 NA
ATOM     28  N   UNL     1       1.703   0.261  22.745  0.00  0.00    -0.161 NA
BRANCH  28  29
ATOM     29  C   UNL     1       2.526   0.279  22.803  0.00  0.00    +0.075 A 
ATOM     30  C   UNL     1       2.937   0.970  22.618  0.00  0.00    +0.017 A 
ATOM     31  C   UNL     1       3.760   0.989  22.677  0.00  0.00    +0.001 A 
ATOM     32  C   UNL     1       4.171   0.317  22.920  0.00  0.00    +0.000 A 
ATOM     33  C   UNL     1       3.760  -0.374  23.106  0.00  0.00    +0.001 A 
ATOM     34  C   UNL     1       2.936  -0.393  23.047  0.00  0.00    +0.017 A 
ENDBRANCH  28  29
ENDBRANCH   4   3
ENDBRANCH   5   4
BRANCH  12  13
ATOM     13  C   UNL     1      -3.241   2.049  24.371  0.00  0.00    +0.073 C 
BRANCH  13  14
ATOM     14  N   UNL     1      -3.837   1.517  24.580  0.00  0.00    -0.272 NA
ATOM     15  C   UNL     1      -4.233   0.788  24.670  0.00  0.00    +0.074 C 
ATOM     16  C   UNL     1      -5.065   1.103  25.101  0.00  0.00    +0.039 C 
ATOM     17  C   UNL     1      -5.793   1.199  25.454  0.00  0.00    +0.011 C 
ATOM     18  C   UNL     1      -5.255   1.604  25.255  0.00  0.00    +0.054 C 
ATOM     19  C   UNL     1      -4.457   1.284  24.840  0.00  0.00    +0.078 C 
ATOM     20  C   UNL     1      -4.981   2.481  25.241  0.00  0.00    +0.041 A 
ATOM     21  C   UNL     1      -5.234   3.235  25.458  0.00  0.00    +0.013 A 
ATOM     22  C   UNL     1      -4.751   3.889  25.318  0.00  0.00    +0.006 A 
ATOM     23  C   UNL     1      -4.014   3.788  24.960  0.00  0.00    +0.061 A 
ATOM     24  C   UNL     1      -3.761   3.034  24.743  0.00  0.00    +0.261 A 
ATOM     25  O   UNL     1      -3.024   2.934  24.385  0.00  0.00    -0.267 OA
ATOM     26  N   UNL     1      -4.244   2.381  24.883  0.00  0.00    -0.299 N 
ATOM     27  C   UNL     1      -4.769   2.017  25.082  0.00  0.00    +0.110 C 
ENDBRANCH  13  14
ENDBRANCH  12  13
TORSDOF 5
ENDMDL
MODEL 3
REMARK VINA RESULT:     -12.6      3.464      4.912
REMARK  Name = 
REMARK  5 active torsions:
REMARK  status: ('A' for Active; 'I' for Inactive)
REMARK    1  A    between atoms: N_3  and  C_4
REMARK    2  A    between atoms: C_4  and  C_5
REMARK    3  A    between atoms: C_12  and  C_13
REMARK    4  A    between atoms: C_13  and  N_14
REMARK    5  A    between atoms: N_28  and  C_29
REMARK                            x       y       z     vdW  Elec       q    Type
REMARK                         _______ _______ _______ _____ _____    ______ ____
ROOT
ATOM      5  C   UNL     1      -0.727   1.300  23.725  0.00  0.00    +0.079 C 
ATOM      6  C   UNL     1      -1.326   1.427  23.243  0.00  0.00    +0.018 C 
ATOM      7  C   UNL     1      -2.083   1.605  23.468  0.00  0.00    +0.005 C 
ATOM      8  C   UNL     1      -2.624   1.714  22.761  0.00  0.00    +0.017 C 
ATOM      9  C   UNL     1      -2.058   1.591  23.065  0.00  0.00    +0.072 C 
ATOM     10  N   UNL     1      -1.502   1.482  23.946  0.00  0.00    -0.272 NA
ATOM     11  C   UNL     1      -1.895   1.588  24.763  0.00  0.00    +0.073 C 
ATOM     12  C   UNL     1      -2.454   1.706  24.257  0.00  0.00    +0.032 C 
ENDROOT
BRANCH   5   4
ATOM      4  C   UNL     1       0.061   1.123  23.887  0.00  0.00    +0.133 C 
BRANCH   4   3
ATOM      1  O   UNL     1       1.710   1.173  23.941  0.00  0.00    -0.249 OA
ATOM      2  C   UNL     1       1.329   0.708  23.375  0.00  0.00    +0.344 C 
ATOM      3  N   UNL     1       0.505   0.683  23.348  0.00  0.00    -0.185 NA
ATOM     28  N   UNL     1       1.773   0.269  22.836  0.00  0.00    -0.161 NA
BRANCH  28  29
ATOM     29  C   UNL     1       2.597   0.293  22.863  0.00  0.00    +0.075 A 
ATOM     30  C   UNL     1       2.998   0.970  22.615  0.00  0.00    +0.017 A 
ATOM     31  C   UNL     1       3.822   0.995  22.641  0.00  0.00    +0.001 A 
ATOM     32  C   UNL     1       4.246   0.343  22.915  0.00  0.00    +0.000 A 
ATOM     33  C   UNL     1       3.845  -0.335  23.163  0.00  0.00    +0.001 A 
ATOM     34  C   UNL     1       3.020  -0.359  23.137  0.00  0.00    +0.017 A 
ENDBRANCH  28  29
ENDBRANCH   4   3
ENDBRANCH   5   4
BRANCH  12  13
ATOM     13  C   UNL     1      -3.241   1.890  24.418  0.00  0.00    +0.073 C 
BRANCH  13  14
ATOM     14  N   UNL     1      -3.442   2.643  24.690  0.00  0.00    -0.272 NA
ATOM     15  C   UNL     1      -3.363   3.458  24.856  0.00  0.00    +0.074 C 
ATOM     16  C   UNL     1      -4.241   3.627  25.276  0.00  0.00    +0.039 C 
ATOM     17  C   UNL     1      -4.908   3.925  25.637  0.00  0.00    +0.011 C 
ATOM     18  C   UNL     1      -4.685   3.308  25.389  0.00  0.00    +0.054 C 
ATOM     19  C   UNL     1      -3.832   3.160  24.985  0.00  0.00    +0.078 C 
ATOM     20  C   UNL     1      -4.949   2.433  25.289  0.00  0.00    +0.041 A 
ATOM     21  C   UNL     1      -5.589   1.936  25.443  0.00  0.00    +0.013 A 
ATOM     22  C   UNL     1      -5.552   1.140  25.231  0.00  0.00    +0.006 A 
ATOM     23  C   UNL     1      -4.875   0.840  24.866  0.00  0.00    +0.061 A 
ATOM     24  C   UNL     1      -4.236   1.338  24.712  0.00  0.00    +0.261 A 
ATOM     25  O   UNL     1      -3.559   1.038  24.347  0.00  0.00    -0.267 OA
ATOM     26  N   UNL     1      -4.273   2.134  24.923  0.00  0.00    -0.299 N 
ATOM     27  C   UNL     1      -4.509   2.711  25.167  0.00  0.00    +0.110 C 
ENDBRANCH  13  14
ENDBRANCH  12  13
TORSDOF 5
ENDMDL
MODEL 4
REMARK VINA RESULT:     -12.6      1.745      6.271
REMARK  Name = 
REMARK  5 active torsions:
REMARK  status: ('A' for Active; 'I' for Inactive)
REMARK    1  A    between atoms: N_3  and  C_4
REMARK    2  A    between atoms: C_4  and  C_5
REMARK    3  A    between atoms: C_12  and  C_13
REMARK    4  A    between atoms: C_13  and  N_14
REMARK    5  A    between atoms: N_28  and  C_29
REMARK                            x       y       z     vdW  Elec       q    Type
REMARK                         _______ _______ _______ _____ _____    ______ ____
ROOT
ATOM      5  C   UNL     1      -0.861   0.508  25.329  0.00  0.00    +0.079 C 
ATOM      6  C   UNL     1      -0.470   1.015  25.772  0.00  0.00    +0.018 C 
ATOM      7  C   UNL     1      -0.597   1.814  25.799  0.00  0.00    +0.005 C 
ATOM      8  C   UNL     1      -0.042   2.221  26.373  0.00  0.00    +0.017 C 
ATOM      9  C   UNL     1      -0.298   1.713  26.051  0.00  0.00    +0.072 C 
ATOM     10  N   UNL     1      -0.984   1.324  25.362  0.00  0.00    -0.272 NA
ATOM     11  C   UNL     1      -1.572   1.871  24.929  0.00  0.00    +0.073 C 
ATOM     12  C   UNL     1      -1.166   2.334  25.378  0.00  0.00    +0.032 C 
ENDROOT
BRANCH   5   4
ATOM      4  C   UNL     1      -1.024  -0.249  25.047  0.00  0.00    +0.133 C 
BRANCH   4   3
ATOM      1  O   UNL     1      -2.038  -1.127  24.085  0.00  0.00    -0.249 OA
ATOM      2  C   UNL     1      -2.138  -1.132  24.904  0.00  0.00    +0.344 C 
ATOM      3  N   UNL     1      -1.632  -0.693  25.385  0.00  0.00    -0.185 NA
ATOM     28  N   UNL     1      -2.746  -1.577  25.242  0.00  0.00    -0.161 NA
BRANCH  28  29
ATOM     29  C   UNL     1      -3.253  -2.016  24.762  0.00  0.00    +0.075 A 
ATOM     30  C   UNL     1      -3.858  -1.639  24.349  0.00  0.00    +0.017 A 
ATOM     31  C   UNL     1      -4.366  -2.078  23.868  0.00  0.00    +0.001 A 
ATOM     32  C   UNL     1      -4.267  -2.895  23.802  0.00  0.00    +0.000 A 
ATOM     33  C   UNL     1      -3.660  -3.271  24.216  0.00  0.00    +0.001 A 
ATOM     34  C   UNL     1      -3.153  -2.832  24.696  0.00  0.00    +0.017 A 
ENDBRANCH  28  29
ENDBRANCH   4   3
ENDBRANCH   5   4
BRANCH  12  13
ATOM     13  C   UNL     1      -1.244   3.151  25.453  0.00  0.00    +0.073 C 
BRANCH  13  14
ATOM     14  N   UNL     1      -1.939   3.473  25.760  0.00  0.00    -0.272 NA
ATOM     15  C   UNL     1      -2.671   3.507  26.161  0.00  0.00    +0.074 C 
ATOM     16  C   UNL     1      -2.885   4.463  26.034  0.00  0.00    +0.039 C 
ATOM     17  C   UNL     1      -3.202   5.213  26.018  0.00  0.00    +0.011 C 
ATOM     18  C   UNL     1      -2.628   4.888  25.781  0.00  0.00    +0.054 C 
ATOM     19  C   UNL     1      -2.435   3.961  25.911  0.00  0.00    +0.078 C 
ATOM     20  C   UNL     1      -1.855   5.042  25.307  0.00  0.00    +0.041 A 
ATOM     21  C   UNL     1      -1.450   5.649  24.924  0.00  0.00    +0.013 A 
ATOM     22  C   UNL     1      -0.727   5.495  24.558  0.00  0.00    +0.006 A 
ATOM     23  C   UNL     1      -0.409   4.734  24.576  0.00  0.00    +0.061 A 
ATOM     24  C   UNL     1      -0.814   4.127  24.960  0.00  0.00    +0.261 A 
ATOM     25  O   UNL     1      -0.496   3.366  24.978  0.00  0.00    -0.267 OA
ATOM     26  N   UNL     1      -1.537   4.281  25.326  0.00  0.00    -0.299 N 
ATOM     27  C   UNL     1      -2.076   4.615  25.541  0.00  0.00    +0.110 C 
ENDBRANCH  13  14
ENDBRANCH  12  13
TORSDOF 5
ENDMDL
MODEL 5
REMARK VINA RESULT:     -11.7      4.291      5.023
REMARK  Name = 
REMARK  5 active torsions:
REMARK  status: ('A' for Active; 'I' for Inactive)
REMARK    1  A    between atoms: N_3  and  C_4
REMARK    2  A    between atoms: C_4  and  C_5
REMARK    3  A    between atoms: C_12  and  C_13
REMARK    4  A    between atoms: C_13  and  N_14
REMARK    5  A    between atoms: N_28  and  C_29
REMARK                            x       y       z     vdW  Elec       q    Type
REMARK                         _______ _______ _______ _____ _____    ______ ____
ROOT
ATOM      5  C   UNL     1       0.726   0.599  23.533  0.00  0.00    +0.079 C 
ATOM      6  C   UNL     1       0.321   1.097  23.973  0.00  0.00    +0.018 C 
ATOM      7  C   UNL     1      -0.428   0.976  24.254  0.00  0.00    +0.005 C 
ATOM      8  C   UNL     1      -0.719   1.671  24.741  0.00  0.00    +0.017 C 
ATOM      9  C   UNL     1      -0.292   1.336  24.375  0.00  0.00    +0.072 C 
ATOM     10  N   UNL     1      -0.037   0.483  23.824  0.00  0.00    -0.272 NA
ATOM     11  C   UNL     1      -0.624  -0.211  23.740  0.00  0.00    +0.073 C 
ATOM     12  C   UNL     1      -0.988   0.305  24.169  0.00  0.00    +0.032 C 
ENDROOT
BRANCH   5   4
ATOM      4  C   UNL     1       1.395   0.368  23.109  0.00  0.00    +0.133 C 
BRANCH   4   3
ATOM      1  O   UNL     1       2.887  -0.337  23.135  0.00  0.00    -0.249 OA
ATOM      2  C   UNL     1       2.818   0.485  23.131  0.00  0.00    +0.344 C 
ATOM      3  N   UNL     1       2.072   0.838  23.118  0.00  0.00    -0.185 NA
ATOM     28  N   UNL     1       3.496   0.956  23.140  0.00  0.00    -0.161 NA
BRANCH  28  29
ATOM     29  C   UNL     1       4.243   0.604  23.153  0.00  0.00    +0.075 A 
ATOM     30  C   UNL     1       4.594   0.358  22.449  0.00  0.00    +0.017 A 
ATOM     31  C   UNL     1       5.341   0.006  22.462  0.00  0.00    +0.001 A 
ATOM     32  C   UNL     1       5.735  -0.099  23.179  0.00  0.00    +0.000 A 
ATOM     33  C   UNL     1       5.383   0.148  23.883  0.00  0.00    +0.001 A 
ATOM     34  C   UNL     1       4.636   0.500  23.870  0.00  0.00    +0.017 A 
ENDBRANCH  28  29
ENDBRANCH   4   3
ENDBRANCH   5   4
BRANCH  12  13
ATOM     13  C   UNL     1      -1.746   0.244  24.486  0.00  0.00    +0.073 C 
BRANCH  13  14
ATOM     14  N   UNL     1      -1.906  -0.316  25.071  0.00  0.00    -0.272 NA
ATOM     15  C   UNL     1      -1.761  -0.872  25.677  0.00  0.00    +0.074 C 
ATOM     16  C   UNL     1      -2.689  -1.140  25.882  0.00  0.00    +0.039 C 
ATOM     17  C   UNL     1      -3.382  -1.462  26.166  0.00  0.00    +0.011 C 
ATOM     18  C   UNL     1      -3.188  -0.993  25.681  0.00  0.00    +0.054 C 
ATOM     19  C   UNL     1      -2.285  -0.744  25.495  0.00  0.00    +0.078 C 
ATOM     20  C   UNL     1      -3.537  -0.427  25.046  0.00  0.00    +0.041 A 
ATOM     21  C   UNL     1      -4.260  -0.189  24.728  0.00  0.00    +0.013 A 
ATOM     22  C   UNL     1      -4.279   0.374  24.125  0.00  0.00    +0.006 A 
ATOM     23  C   UNL     1      -3.576   0.698  23.840  0.00  0.00    +0.061 A 
ATOM     24  C   UNL     1      -2.853   0.460  24.158  0.00  0.00    +0.261 A 
ATOM     25  O   UNL     1      -2.150   0.784  23.873  0.00  0.00    -0.267 OA
ATOM     26  N   UNL     1      -2.834  -0.103  24.761  0.00  0.00    -0.299 N 
ATOM     27  C   UNL     1      -3.044  -0.546  25.216  0.00  0.00    +0.110 C 
ENDBRANCH  13  14
ENDBRANCH  12  13
TORSDOF 5
ENDMDL
MODEL 6
REMARK VINA RESULT:     -11.3      1.724      2.563
REMARK  Name = 
REMARK  5 active torsions:
REMARK  status: ('A' for Active; 'I' for Inactive)
REMARK    1  A    between atoms: N_3  and  C_4
REMARK    2  A    between atoms: C_4  and  C_5
REMARK    3  A    between atoms: C_12  and  C_13
REMARK    4  A    between atoms: C_13  and  N_14
REMARK    5  A    between atoms: N_28  and  C_29
REMARK                            x       y       z     vdW  Elec       q    Type
REMARK                         _______ _______ _______ _____ _____    ______ ____
ROOT
ATOM      5  C   UNL     1      -0.678   0.992  25.183  0.00  0.00    +0.079 C 
ATOM      6  C   UNL     1      -0.855   0.428  25.689  0.00  0.00    +0.018 C 
ATOM      7  C   UNL     1      -1.339  -0.204  25.539  0.00  0.00    +0.005 C 
ATOM      8  C   UNL     1      -1.416  -0.741  26.254  0.00  0.00    +0.017 C 
ATOM      9  C   UNL     1      -1.201  -0.222  25.919  0.00  0.00    +0.072 C 
ATOM     10  N   UNL     1      -1.169   0.345  25.039  0.00  0.00    -0.272 NA
ATOM     11  C   UNL     1      -1.637   0.086  24.299  0.00  0.00    +0.073 C 
ATOM     12  C   UNL     1      -1.786  -0.447  24.825  0.00  0.00    +0.032 C 
ENDROOT
BRANCH   5   4
ATOM      4  C   UNL     1      -0.297   1.689  24.962  0.00  0.00    +0.133 C 
BRANCH   4   3
ATOM      1  O   UNL     1      -0.878   3.112  24.360  0.00  0.00    -0.249 OA
ATOM      2  C   UNL     1      -0.632   3.066  25.146  0.00  0.00    +0.344 C 
ATOM      3  N   UNL     1      -0.341   2.355  25.448  0.00  0.00    -0.185 NA
ATOM     28  N   UNL     1      -0.677   3.732  25.632  0.00  0.00    -0.161 NA
BRANCH  28  29
ATOM     29  C   UNL     1      -0.967   4.443  25.331  0.00  0.00    +0.075 A 
ATOM     30  C   UNL     1      -0.475   4.936  24.889  0.00  0.00    +0.017 A 
ATOM     31  C   UNL     1      -0.766   5.647  24.588  0.00  0.00    +0.001 A 
ATOM     32  C   UNL     1      -1.548   5.866  24.731  0.00  0.00    +0.000 A 
ATOM     33  C   UNL     1      -2.040   5.373  25.173  0.00  0.00    +0.001 A 
ATOM     34  C   UNL     1      -1.750   4.661  25.474  0.00  0.00    +0.017 A 
ENDBRANCH  28  29
ENDBRANCH   4   3
ENDBRANCH   5   4
BRANCH  12  13
ATOM     13  C   UNL     1      -2.267  -1.112  24.738  0.00  0.00    +0.073 C 
BRANCH  13  14
ATOM     14  N   UNL     1      -3.069  -1.021  24.569  0.00  0.00    -0.272 NA
ATOM     15  C   UNL     1      -3.811  -0.645  24.488  0.00  0.00    +0.074 C 
ATOM     16  C   UNL     1      -4.348  -1.407  24.162  0.00  0.00    +0.039 C 
ATOM     17  C   UNL     1      -4.918  -1.923  23.891  0.00  0.00    +0.011 C 
ATOM     18  C   UNL     1      -4.235  -1.942  24.050  0.00  0.00    +0.054 C 
ATOM     19  C   UNL     1      -3.729  -1.196  24.365  0.00  0.00    +0.078 C 
ATOM     20  C   UNL     1      -3.516  -2.514  24.074  0.00  0.00    +0.041 A 
ATOM     21  C   UNL     1      -3.317  -3.299  23.919  0.00  0.00    +0.013 A 
ATOM     22  C   UNL     1      -2.544  -3.560  24.037  0.00  0.00    +0.006 A 
ATOM     23  C   UNL     1      -1.969  -3.035  24.311  0.00  0.00    +0.061 A 
ATOM     24  C   UNL     1      -2.168  -2.250  24.467  0.00  0.00    +0.261 A 
ATOM     25  O   UNL     1      -1.593  -1.725  24.741  0.00  0.00    -0.267 OA
ATOM     26  N   UNL     1      -2.942  -1.990  24.349  0.00  0.00    -0.299 N 
ATOM     27  C   UNL     1      -3.592  -1.998  24.190  0.00  0.00    +0.110 C 
ENDBRANCH  13  14
ENDBRANCH  12  13
TORSDOF 5
ENDMDL
