MODEL 1
REMARK VINA RESULT:      -8.5      0.000      0.000
REMARK  Name = 
REMARK  1 active torsions:
REMARK  status: ('A' for Active; 'I' for Inactive)
REMARK    1  A    between atoms: C_12  and  C_14
REMARK                            x       y       z     vdW  Elec       q    Type
REMARK                         _______ _______ _______ _____ _____    ______ ____
ROOT
ATOM      1  C   UNL     1      -4.667   3.790  25.231  0.00  0.00    +0.117 C 
ATOM      2  N   UNL     1      -4.506   2.986  25.136  0.00  0.00    -0.261 N 
ATOM      3  C   UNL     1      -3.798   2.662  24.863  0.00  0.00    +0.117 C 
ATOM      4  C   UNL     1      -3.880   1.841  24.857  0.00  0.00    +0.116 C 
ATOM      5  C   UNL     1      -3.363   1.236  24.641  0.00  0.00    +0.115 C 
ATOM      6  N   UNL     1      -3.603   0.449  24.694  0.00  0.00    -0.271 N 
ATOM      7  C   UNL     1      -4.361   0.267  24.963  0.00  0.00    +0.115 C 
ATOM      8  C   UNL     1      -4.879   0.871  25.179  0.00  0.00    +0.116 C 
ATOM      9  N   UNL     1      -4.639   1.659  25.126  0.00  0.00    -0.261 N 
ATOM     10  C   UNL     1      -5.025   2.366  25.298  0.00  0.00    +0.307 C 
ATOM     11  O   UNL     1      -5.796   2.441  25.584  0.00  0.00    -0.252 OA
ATOM     12  C   UNL     1      -3.086  -0.156  24.478  0.00  0.00    +0.268 C 
ATOM     13  O   UNL     1      -2.327   0.026  24.209  0.00  0.00    -0.268 OA
ENDROOT
BRANCH  12  14
ATOM     14  C   UNL     1      -3.326  -0.943  24.531  0.00  0.00    +0.154 A 
ATOM     15  C   UNL     1      -3.148  -1.385  25.204  0.00  0.00    +0.123 A 
ATOM     16  N   UNL     1      -3.388  -2.172  25.257  0.00  0.00    -0.239 NA
ATOM     17  C   UNL     1      -3.806  -2.518  24.636  0.00  0.00    +0.120 A 
ATOM     18  C   UNL     1      -3.985  -2.077  23.962  0.00  0.00    +0.120 A 
ATOM     19  N   UNL     1      -3.744  -1.289  23.910  0.00  0.00    -0.236 NA
ENDBRANCH  12  14
TORSDOF 1
ENDMDL
MODEL 2
REMARK VINA RESULT:      -8.4      0.889      4.141
REMARK  Name = 
REMARK  1 active torsions:
REMARK  status: ('A' for Active; 'I' for Inactive)
REMARK    1  A    between atoms: C_12  and  C_14
REMARK                            x       y       z     vdW  Elec       q    Type
REMARK                         _______ _______ _______ _____ _____    ______ ____
ROOT
ATOM      1  C   UNL     1      -3.173  -2.526  24.632  0.00  0.00    +0.117 C 
ATOM      2  N   UNL     1      -3.285  -1.708  24.642  0.00  0.00    -0.261 N 
ATOM      3  C   UNL     1      -4.012  -1.318  24.664  0.00  0.00    +0.117 C 
ATOM      4  C   UNL     1      -3.865  -0.507  24.669  0.00  0.00    +0.116 C 
ATOM      5  C   UNL     1      -4.370   0.145  24.688  0.00  0.00    +0.115 C 
ATOM      6  N   UNL     1      -4.059   0.909  24.688  0.00  0.00    -0.271 N 
ATOM      7  C   UNL     1      -3.241   1.020  24.668  0.00  0.00    +0.115 C 
ATOM      8  C   UNL     1      -2.736   0.369  24.649  0.00  0.00    +0.116 C 
ATOM      9  N   UNL     1      -3.048  -0.395  24.650  0.00  0.00    -0.261 N 
ATOM     10  C   UNL     1      -2.690  -1.137  24.633  0.00  0.00    +0.307 C 
ATOM     11  O   UNL     1      -1.878  -1.284  24.612  0.00  0.00    -0.252 OA
ATOM     12  C   UNL     1      -4.563   1.561  24.707  0.00  0.00    +0.268 C 
ATOM     13  O   UNL     1      -5.380   1.449  24.726  0.00  0.00    -0.268 OA
ENDROOT
BRANCH  12  14
ATOM     14  C   UNL     1      -4.252   2.324  24.706  0.00  0.00    +0.154 A 
ATOM     15  C   UNL     1      -4.102   2.710  23.992  0.00  0.00    +0.123 A 
ATOM     16  N   UNL     1      -3.791   3.473  23.992  0.00  0.00    -0.239 NA
ATOM     17  C   UNL     1      -3.628   3.852  24.706  0.00  0.00    +0.120 A 
ATOM     18  C   UNL     1      -3.777   3.468  25.421  0.00  0.00    +0.120 A 
ATOM     19  N   UNL     1      -4.089   2.704  25.421  0.00  0.00    -0.236 NA
ENDBRANCH  12  14
TORSDOF 1
ENDMDL
MODEL 3
REMARK VINA RESULT:      -8.2      2.129      3.914
REMARK  Name = 
REMARK  1 active torsions:
REMARK  status: ('A' for Active; 'I' for Inactive)
REMARK    1  A    between atoms: C_12  and  C_14
REMARK                            x       y       z     vdW  Elec       q    Type
REMARK                         _______ _______ _______ _____ _____    ______ ____
ROOT
ATOM      1  C   UNL     1      -0.009   0.504  23.681  0.00  0.00    +0.117 C 
ATOM      2  N   UNL     1      -0.748   0.803  23.892  0.00  0.00    -0.261 N 
ATOM      3  C   UNL     1      -1.175   1.376  23.478  0.00  0.00    +0.117 C 
ATOM      4  C   UNL     1      -1.881   1.509  23.884  0.00  0.00    +0.116 C 
ATOM      5  C   UNL     1      -2.517   2.013  23.735  0.00  0.00    +0.115 C 
ATOM      6  N   UNL     1      -3.161   2.028  24.249  0.00  0.00    -0.271 N 
ATOM      7  C   UNL     1      -3.171   1.538  24.913  0.00  0.00    +0.115 C 
ATOM      8  C   UNL     1      -2.535   1.033  25.062  0.00  0.00    +0.116 C 
ATOM      9  N   UNL     1      -1.890   1.019  24.548  0.00  0.00    -0.261 N 
ATOM     10  C   UNL     1      -1.190   0.583  24.552  0.00  0.00    +0.307 C 
ATOM     11  O   UNL     1      -0.970   0.025  25.119  0.00  0.00    -0.252 OA
ATOM     12  C   UNL     1      -3.798   2.532  24.100  0.00  0.00    +0.268 C 
ATOM     13  O   UNL     1      -3.789   3.021  23.436  0.00  0.00    -0.268 OA
ENDROOT
BRANCH  12  14
ATOM     14  C   UNL     1      -4.442   2.546  24.614  0.00  0.00    +0.154 A 
ATOM     15  C   UNL     1      -4.471   3.100  25.224  0.00  0.00    +0.123 A 
ATOM     16  N   UNL     1      -5.116   3.115  25.738  0.00  0.00    -0.239 NA
ATOM     17  C   UNL     1      -5.732   2.575  25.642  0.00  0.00    +0.120 A 
ATOM     18  C   UNL     1      -5.704   2.020  25.032  0.00  0.00    +0.120 A 
ATOM     19  N   UNL     1      -5.058   2.006  24.517  0.00  0.00    -0.236 NA
ENDBRANCH  12  14
TORSDOF 1
ENDMDL
MODEL 4
REMARK VINA RESULT:      -8.1      1.644      2.265
REMARK  Name = 
REMARK  1 active torsions:
REMARK  status: ('A' for Active; 'I' for Inactive)
REMARK    1  A    between atoms: C_12  and  C_14
REMARK                            x       y       z     vdW  Elec       q    Type
REMARK                         _______ _______ _______ _____ _____    ______ ____
ROOT
ATOM      1  C   UNL     1      -1.786   4.588  25.255  0.00  0.00    +0.117 C 
ATOM      2  N   UNL     1      -2.095   3.828  25.166  0.00  0.00    -0.261 N 
ATOM      3  C   UNL     1      -2.895   3.633  25.112  0.00  0.00    +0.117 C 
ATOM      4  C   UNL     1      -2.951   2.814  25.028  0.00  0.00    +0.116 C 
ATOM      5  C   UNL     1      -3.600   2.311  24.949  0.00  0.00    +0.115 C 
ATOM      6  N   UNL     1      -3.485   1.498  24.873  0.00  0.00    -0.271 N 
ATOM      7  C   UNL     1      -2.721   1.188  24.876  0.00  0.00    +0.115 C 
ATOM      8  C   UNL     1      -2.071   1.690  24.954  0.00  0.00    +0.116 C 
ATOM      9  N   UNL     1      -2.187   2.504  25.030  0.00  0.00    -0.261 N 
ATOM     10  C   UNL     1      -1.658   3.130  25.116  0.00  0.00    +0.307 C 
ATOM     11  O   UNL     1      -0.835   3.070  25.146  0.00  0.00    -0.252 OA
ATOM     12  C   UNL     1      -4.134   0.994  24.795  0.00  0.00    +0.268 C 
ATOM     13  O   UNL     1      -4.899   1.305  24.792  0.00  0.00    -0.268 OA
ENDROOT
BRANCH  12  14
ATOM     14  C   UNL     1      -4.019   0.181  24.719  0.00  0.00    +0.154 A 
ATOM     15  C   UNL     1      -3.966  -0.293  25.392  0.00  0.00    +0.123 A 
ATOM     16  N   UNL     1      -3.851  -1.106  25.316  0.00  0.00    -0.239 NA
ATOM     17  C   UNL     1      -3.789  -1.445  24.566  0.00  0.00    +0.120 A 
ATOM     18  C   UNL     1      -3.842  -0.972  23.893  0.00  0.00    +0.120 A 
ATOM     19  N   UNL     1      -3.957  -0.158  23.970  0.00  0.00    -0.236 NA
ENDBRANCH  12  14
TORSDOF 1
ENDMDL
MODEL 5
REMARK VINA RESULT:      -8.1      2.017      2.338
REMARK  Name = 
REMARK  1 active torsions:
REMARK  status: ('A' for Active; 'I' for Inactive)
REMARK    1  A    between atoms: C_12  and  C_14
REMARK                            x       y       z     vdW  Elec       q    Type
REMARK                         _______ _______ _______ _____ _____    ______ ____
ROOT
ATOM      1  C   UNL     1      -4.379   3.812  24.867  0.00  0.00    +0.117 C 
ATOM      2  N   UNL     1      -3.847   3.182  24.876  0.00  0.00    -0.261 N 
ATOM      3  C   UNL     1      -3.065   3.210  25.140  0.00  0.00    +0.117 C 
ATOM      4  C   UNL     1      -2.738   2.458  25.049  0.00  0.00    +0.116 C 
ATOM      5  C   UNL     1      -1.988   2.158  25.216  0.00  0.00    +0.115 C 
ATOM      6  N   UNL     1      -1.817   1.366  25.063  0.00  0.00    -0.271 N 
ATOM      7  C   UNL     1      -2.396   0.874  24.742  0.00  0.00    +0.115 C 
ATOM      8  C   UNL     1      -3.146   1.173  24.574  0.00  0.00    +0.116 C 
ATOM      9  N   UNL     1      -3.317   1.966  24.728  0.00  0.00    -0.261 N 
ATOM     10  C   UNL     1      -4.002   2.413  24.621  0.00  0.00    +0.307 C 
ATOM     11  O   UNL     1      -4.717   2.139  24.313  0.00  0.00    -0.252 OA
ATOM     12  C   UNL     1      -1.067   1.066  25.230  0.00  0.00    +0.268 C 
ATOM     13  O   UNL     1      -0.488   1.558  25.551  0.00  0.00    -0.268 OA
ENDROOT
BRANCH  12  14
ATOM     14  C   UNL     1      -0.895   0.274  25.077  0.00  0.00    +0.154 A 
ATOM     15  C   UNL     1      -0.537   0.059  24.365  0.00  0.00    +0.123 A 
ATOM     16  N   UNL     1      -0.366  -0.733  24.212  0.00  0.00    -0.239 NA
ATOM     17  C   UNL     1      -0.552  -1.310  24.770  0.00  0.00    +0.120 A 
ATOM     18  C   UNL     1      -0.910  -1.097  25.482  0.00  0.00    +0.120 A 
ATOM     19  N   UNL     1      -1.082  -0.304  25.635  0.00  0.00    -0.236 NA
ENDBRANCH  12  14
TORSDOF 1
ENDMDL
MODEL 6
REMARK VINA RESULT:      -8.0      2.364      3.626
REMARK  Name = 
REMARK  1 active torsions:
REMARK  status: ('A' for Active; 'I' for Inactive)
REMARK    1  A    between atoms: C_12  and  C_14
REMARK                            x       y       z     vdW  Elec       q    Type
REMARK                         _______ _______ _______ _____ _____    ______ ____
ROOT
ATOM      1  C   UNL     1      -6.137   1.977  24.963  0.00  0.00    +0.117 C 
ATOM      2  N   UNL     1      -5.318   2.073  24.983  0.00  0.00    -0.261 N 
ATOM      3  C   UNL     1      -4.917   2.783  25.113  0.00  0.00    +0.117 C 
ATOM      4  C   UNL     1      -4.108   2.625  25.087  0.00  0.00    +0.116 C 
ATOM      5  C   UNL     1      -3.447   3.112  25.177  0.00  0.00    +0.115 C 
ATOM      6  N   UNL     1      -2.689   2.793  25.122  0.00  0.00    -0.271 N 
ATOM      7  C   UNL     1      -2.590   1.987  24.976  0.00  0.00    +0.115 C 
ATOM      8  C   UNL     1      -3.250   1.500  24.885  0.00  0.00    +0.116 C 
ATOM      9  N   UNL     1      -4.009   1.819  24.941  0.00  0.00    -0.261 N 
ATOM     10  C   UNL     1      -4.757   1.478  24.877  0.00  0.00    +0.307 C 
ATOM     11  O   UNL     1      -4.916   0.682  24.732  0.00  0.00    -0.252 OA
ATOM     12  C   UNL     1      -2.029   3.279  25.212  0.00  0.00    +0.268 C 
ATOM     13  O   UNL     1      -2.127   4.085  25.358  0.00  0.00    -0.268 OA
ENDROOT
BRANCH  12  14
ATOM     14  C   UNL     1      -1.270   2.960  25.157  0.00  0.00    +0.154 A 
ATOM     15  C   UNL     1      -0.889   2.924  24.425  0.00  0.00    +0.123 A 
ATOM     16  N   UNL     1      -0.131   2.606  24.370  0.00  0.00    -0.239 NA
ATOM     17  C   UNL     1       0.247   2.322  25.046  0.00  0.00    +0.120 A 
ATOM     18  C   UNL     1      -0.132   2.358  25.777  0.00  0.00    +0.120 A 
ATOM     19  N   UNL     1      -0.892   2.677  25.833  0.00  0.00    -0.236 NA
ENDBRANCH  12  14
TORSDOF 1
ENDMDL
MODEL 7
REMARK VINA RESULT:      -7.8     17.780     18.779
REMARK  Name = 
REMARK  1 active torsions:
REMARK  status: ('A' for Active; 'I' for Inactive)
REMARK    1  A    between atoms: C_12  and  C_14
REMARK                            x       y       z     vdW  Elec       q    Type
REMARK                         _______ _______ _______ _____ _____    ______ ____
ROOT
ATOM      1  C   UNL     1      14.310   7.600  17.153  0.00  0.00    +0.117 C 
ATOM      2  N   UNL     1      13.797   7.670  17.795  0.00  0.00    -0.261 N 
ATOM      3  C   UNL     1      13.021   7.949  17.768  0.00  0.00    +0.117 C 
ATOM      4  C   UNL     1      12.714   7.924  18.533  0.00  0.00    +0.116 C 
ATOM      5  C   UNL     1      11.977   8.131  18.840  0.00  0.00    +0.115 C 
ATOM      6  N   UNL     1      11.826   8.044  19.646  0.00  0.00    -0.271 N 
ATOM      7  C   UNL     1      12.412   7.749  20.146  0.00  0.00    +0.115 C 
ATOM      8  C   UNL     1      13.150   7.542  19.840  0.00  0.00    +0.116 C 
ATOM      9  N   UNL     1      13.301   7.629  19.033  0.00  0.00    -0.261 N 
ATOM     10  C   UNL     1      13.970   7.472  18.577  0.00  0.00    +0.307 C 
ATOM     11  O   UNL     1      14.686   7.171  18.855  0.00  0.00    -0.252 OA
ATOM     12  C   UNL     1      11.088   8.251  19.953  0.00  0.00    +0.268 C 
ATOM     13  O   UNL     1      10.502   8.545  19.453  0.00  0.00    -0.268 OA
ENDROOT
BRANCH  12  14
ATOM     14  C   UNL     1      10.937   8.163  20.759  0.00  0.00    +0.154 A 
ATOM     15  C   UNL     1      11.053   8.799  21.272  0.00  0.00    +0.123 A 
ATOM     16  N   UNL     1      10.901   8.712  22.078  0.00  0.00    -0.239 NA
ATOM     17  C   UNL     1      10.635   7.989  22.371  0.00  0.00    +0.120 A 
ATOM     18  C   UNL     1      10.519   7.353  21.859  0.00  0.00    +0.120 A 
ATOM     19  N   UNL     1      10.671   7.440  21.052  0.00  0.00    -0.236 NA
ENDBRANCH  12  14
TORSDOF 1
ENDMDL
MODEL 8
REMARK VINA RESULT:      -7.8     18.404     19.344
REMARK  Name = 
REMARK  1 active torsions:
REMARK  status: ('A' for Active; 'I' for Inactive)
REMARK    1  A    between atoms: C_12  and  C_14
REMARK                            x       y       z     vdW  Elec       q    Type
REMARK                         _______ _______ _______ _____ _____    ______ ____
ROOT
ATOM      1  C   UNL     1      16.701   6.697  19.704  0.00  0.00    +0.117 C 
ATOM      2  N   UNL     1      15.905   6.761  19.911  0.00  0.00    -0.261 N 
ATOM      3  C   UNL     1      15.263   6.691  19.397  0.00  0.00    +0.117 C 
ATOM      4  C   UNL     1      14.573   6.793  19.837  0.00  0.00    +0.116 C 
ATOM      5  C   UNL     1      13.776   6.782  19.624  0.00  0.00    +0.115 C 
ATOM      6  N   UNL     1      13.194   6.904  20.196  0.00  0.00    -0.271 N 
ATOM      7  C   UNL     1      13.409   7.037  20.981  0.00  0.00    +0.115 C 
ATOM      8  C   UNL     1      14.206   7.048  21.195  0.00  0.00    +0.116 C 
ATOM      9  N   UNL     1      14.788   6.926  20.622  0.00  0.00    -0.261 N 
ATOM     10  C   UNL     1      15.611   6.906  20.668  0.00  0.00    +0.307 C 
ATOM     11  O   UNL     1      16.062   7.013  21.351  0.00  0.00    -0.252 OA
ATOM     12  C   UNL     1      12.397   6.893  19.983  0.00  0.00    +0.268 C 
ATOM     13  O   UNL     1      12.182   6.760  19.197  0.00  0.00    -0.268 OA
ENDROOT
BRANCH  12  14
ATOM     14  C   UNL     1      11.816   7.014  20.554  0.00  0.00    +0.154 A 
ATOM     15  C   UNL     1      11.515   7.772  20.683  0.00  0.00    +0.123 A 
ATOM     16  N   UNL     1      10.933   7.894  21.254  0.00  0.00    -0.239 NA
ATOM     17  C   UNL     1      10.651   7.258  21.698  0.00  0.00    +0.120 A 
ATOM     18  C   UNL     1      10.952   6.500  21.570  0.00  0.00    +0.120 A 
ATOM     19  N   UNL     1      11.534   6.378  20.998  0.00  0.00    -0.236 NA
ENDBRANCH  12  14
TORSDOF 1
ENDMDL
MODEL 9
REMARK VINA RESULT:      -7.4     17.797     18.667
REMARK  Name = 
REMARK  1 active torsions:
REMARK  status: ('A' for Active; 'I' for Inactive)
REMARK    1  A    between atoms: C_12  and  C_14
REMARK                            x       y       z     vdW  Elec       q    Type
REMARK                         _______ _______ _______ _____ _____    ______ ____
ROOT
ATOM      1  C   UNL     1      10.242   7.224  22.200  0.00  0.00    +0.117 C 
ATOM      2  N   UNL     1      10.740   7.297  21.546  0.00  0.00    -0.261 N 
ATOM      3  C   UNL     1      10.739   7.918  21.002  0.00  0.00    +0.117 C 
ATOM      4  C   UNL     1      11.325   7.767  20.442  0.00  0.00    +0.116 C 
ATOM      5  C   UNL     1      11.575   8.186  19.777  0.00  0.00    +0.115 C 
ATOM      6  N   UNL     1      12.187   7.893  19.310  0.00  0.00    -0.271 N 
ATOM      7  C   UNL     1      12.551   7.179  19.507  0.00  0.00    +0.115 C 
ATOM      8  C   UNL     1      12.301   6.758  20.172  0.00  0.00    +0.116 C 
ATOM      9  N   UNL     1      11.688   7.053  20.640  0.00  0.00    -0.261 N 
ATOM     10  C   UNL     1      11.327   6.763  21.322  0.00  0.00    +0.307 C 
ATOM     11  O   UNL     1      11.518   6.061  21.711  0.00  0.00    -0.252 OA
ATOM     12  C   UNL     1      12.438   8.312  18.645  0.00  0.00    +0.268 C 
ATOM     13  O   UNL     1      12.075   9.026  18.448  0.00  0.00    -0.268 OA
ENDROOT
BRANCH  12  14
ATOM     14  C   UNL     1      13.050   8.019  18.178  0.00  0.00    +0.154 A 
ATOM     15  C   UNL     1      12.881   7.545  17.524  0.00  0.00    +0.123 A 
ATOM     16  N   UNL     1      13.493   7.252  17.057  0.00  0.00    -0.239 NA
ATOM     17  C   UNL     1      14.277   7.431  17.243  0.00  0.00    +0.120 A 
ATOM     18  C   UNL     1      14.447   7.905  17.897  0.00  0.00    +0.120 A 
ATOM     19  N   UNL     1      13.834   8.199  18.365  0.00  0.00    -0.236 NA
ENDBRANCH  12  14
TORSDOF 1
ENDMDL
MODEL 10
REMARK VINA RESULT:      -7.2     19.898     20.685
REMARK  Name = 
REMARK  1 active torsions:
REMARK  status: ('A' for Active; 'I' for Inactive)
REMARK    1  A    between atoms: C_12  and  C_14
REMARK                            x       y       z     vdW  Elec       q    Type
REMARK                         _______ _______ _______ _____ _____    ______ ____
ROOT
ATOM      1  C   UNL     1      11.585   8.272  17.473  0.00  0.00    +0.117 C 
ATOM      2  N   UNL     1      12.306   8.023  17.788  0.00  0.00    -0.261 N 
ATOM      3  C   UNL     1      12.418   7.675  18.528  0.00  0.00    +0.117 C 
ATOM      4  C   UNL     1      13.222   7.515  18.615  0.00  0.00    +0.116 C 
ATOM      5  C   UNL     1      13.654   7.174  19.230  0.00  0.00    +0.115 C 
ATOM      6  N   UNL     1      14.470   7.083  19.160  0.00  0.00    -0.271 N 
ATOM      7  C   UNL     1      14.856   7.332  18.474  0.00  0.00    +0.115 C 
ATOM      8  C   UNL     1      14.425   7.672  17.858  0.00  0.00    +0.116 C 
ATOM      9  N   UNL     1      13.607   7.764  17.929  0.00  0.00    -0.261 N 
ATOM     10  C   UNL     1      13.041   8.077  17.418  0.00  0.00    +0.307 C 
ATOM     11  O   UNL     1      13.185   8.391  16.669  0.00  0.00    -0.252 OA
ATOM     12  C   UNL     1      14.903   6.742  19.775  0.00  0.00    +0.268 C 
ATOM     13  O   UNL     1      14.517   6.494  20.460  0.00  0.00    -0.268 OA
ENDROOT
BRANCH  12  14
ATOM     14  C   UNL     1      15.719   6.651  19.704  0.00  0.00    +0.154 A 
ATOM     15  C   UNL     1      16.228   7.202  20.049  0.00  0.00    +0.123 A 
ATOM     16  N   UNL     1      17.044   7.110  19.978  0.00  0.00    -0.239 NA
ATOM     17  C   UNL     1      17.353   6.467  19.563  0.00  0.00    +0.120 A 
ATOM     18  C   UNL     1      16.845   5.916  19.219  0.00  0.00    +0.120 A 
ATOM     19  N   UNL     1      16.027   6.008  19.289  0.00  0.00    -0.236 NA
ENDBRANCH  12  14
TORSDOF 1
ENDMDL
