MODEL 1
REMARK VINA RESULT:      -9.9      0.000      0.000
REMARK  Name = 
REMARK  8 active torsions:
REMARK  status: ('A' for Active; 'I' for Inactive)
REMARK    1  A    between atoms: C_2  and  C_4
REMARK    2  A    between atoms: C_4  and  N_5
REMARK    3  A    between atoms: C_6  and  C_7
REMARK    4  A    between atoms: C_9  and  C_14
REMARK    5  A    between atoms: C_17  and  N_18
REMARK    6  A    between atoms: N_18  and  S_19
REMARK    7  A    between atoms: S_19  and  C_22
REMARK    8  A    between atoms: C_22  and  C_23
REMARK                            x       y       z     vdW  Elec       q    Type
REMARK                         _______ _______ _______ _____ _____    ______ ____
ROOT
ATOM     14  C   UNL     1      -3.572   1.809  24.604  0.00  0.00    +0.006 A 
ATOM     15  C   UNL     1      -4.066   1.460  25.166  0.00  0.00    -0.001 A 
ATOM     16  C   UNL     1      -4.340   0.690  25.051  0.00  0.00    +0.018 A 
ATOM     17  C   UNL     1      -4.123   0.271  24.376  0.00  0.00    +0.091 A 
ATOM     26  C   UNL     1      -3.630   0.620  23.814  0.00  0.00    +0.018 A 
ATOM     27  C   UNL     1      -3.354   1.390  23.929  0.00  0.00    -0.001 A 
ENDROOT
BRANCH  14   9
ATOM      5  N   UNL     1      -2.246   3.476  25.077  0.00  0.00    -0.274 N 
ATOM      6  C   UNL     1      -2.520   2.707  24.962  0.00  0.00    +0.140 C 
ATOM      9  C   UNL     1      -3.297   2.579  24.719  0.00  0.00    +0.159 C 
ATOM     10  O   UNL     1      -3.801   3.219  24.591  0.00  0.00    -0.341 OA
ATOM     11  C   UNL     1      -3.527   3.989  24.706  0.00  0.00    +0.227 C 
ATOM     12  C   UNL     1      -2.749   4.118  24.949  0.00  0.00    +0.256 C 
ATOM     13  O   UNL     1      -2.476   4.888  25.064  0.00  0.00    -0.272 OA
BRANCH   6   7
ATOM      7  C   UNL     1      -2.017   2.067  25.091  0.00  0.00    +0.205 C 
ATOM      8  O   UNL     1      -1.708   1.928  25.843  0.00  0.00    -0.218 OA
ENDBRANCH   6   7
BRANCH   5   4
ATOM      4  C   UNL     1      -1.467   3.605  25.321  0.00  0.00    +0.094 C 
BRANCH   4   2
ATOM      1  C   UNL     1      -0.540   3.706  24.238  0.00  0.00    +0.002 C 
ATOM      2  C   UNL     1      -0.960   4.059  24.855  0.00  0.00    +0.020 C 
ATOM      3  C   UNL     1      -0.871   4.866  25.004  0.00  0.00    +0.002 C 
ENDBRANCH   4   2
ENDBRANCH   5   4
ENDBRANCH  14   9
BRANCH  17  18
ATOM     18  N   UNL     1      -4.398  -0.499  24.261  0.00  0.00    -0.101 NA
BRANCH  18  19
ATOM     19  S   UNL     1      -3.869  -1.132  24.279  0.00  0.00    +0.073 S 
ATOM     20  O   UNL     1      -3.898  -1.132  25.104  0.00  0.00    -0.153 OA
ATOM     21  O   UNL     1      -3.841  -1.132  23.455  0.00  0.00    -0.153 OA
BRANCH  19  22
ATOM     22  C   UNL     1      -3.341  -1.765  24.298  0.00  0.00    +0.174 C 
BRANCH  22  23
ATOM     23  C   UNL     1      -3.616  -2.528  24.444  0.00  0.00    +0.026 C 
ATOM     24  C   UNL     1      -3.403  -2.917  25.140  0.00  0.00    +0.002 C 
ATOM     25  C   UNL     1      -4.103  -2.904  23.895  0.00  0.00    +0.002 C 
ENDBRANCH  22  23
ENDBRANCH  19  22
ENDBRANCH  18  19
ENDBRANCH  17  18
TORSDOF 8
ENDMDL
MODEL 2
REMARK VINA RESULT:      -9.9      2.059      5.582
REMARK  Name = 
REMARK  8 active torsions:
REMARK  status: ('A' for Active; 'I' for Inactive)
REMARK    1  A    between atoms: C_2  and  C_4
REMARK    2  A    between atoms: C_4  and  N_5
REMARK    3  A    between atoms: C_6  and  C_7
REMARK    4  A    between atoms: C_9  and  C_14
REMARK    5  A    between atoms: C_17  and  N_18
REMARK    6  A    between atoms: N_18  and  S_19
REMARK    7  A    between atoms: S_19  and  C_22
REMARK    8  A    between atoms: C_22  and  C_23
REMARK                            x       y       z     vdW  Elec       q    Type
REMARK                         _______ _______ _______ _____ _____    ______ ____
ROOT
ATOM     14  C   UNL     1      -0.942   0.462  24.940  0.00  0.00    +0.006 A 
ATOM     15  C   UNL     1      -0.614   0.878  24.306  0.00  0.00    -0.001 A 
ATOM     16  C   UNL     1      -0.411   1.672  24.396  0.00  0.00    +0.018 A 
ATOM     17  C   UNL     1      -0.536   2.051  25.118  0.00  0.00    +0.091 A 
ATOM     26  C   UNL     1      -0.863   1.635  25.751  0.00  0.00    +0.018 A 
ATOM     27  C   UNL     1      -1.066   0.840  25.661  0.00  0.00    -0.001 A 
ENDROOT
BRANCH  14   9
ATOM      5  N   UNL     1      -2.124  -1.338  24.587  0.00  0.00    -0.274 N 
ATOM      6  C   UNL     1      -1.923  -0.544  24.677  0.00  0.00    +0.140 C 
ATOM      9  C   UNL     1      -1.144  -0.333  24.850  0.00  0.00    +0.159 C 
ATOM     10  O   UNL     1      -0.567  -0.916  24.933  0.00  0.00    -0.341 OA
ATOM     11  C   UNL     1      -0.769  -1.712  24.843  0.00  0.00    +0.227 C 
ATOM     12  C   UNL     1      -1.548  -1.923  24.670  0.00  0.00    +0.256 C 
ATOM     13  O   UNL     1      -1.749  -2.718  24.580  0.00  0.00    -0.272 OA
BRANCH   6   7
ATOM      7  C   UNL     1      -2.499   0.040  24.593  0.00  0.00    +0.205 C 
ATOM      8  O   UNL     1      -2.860   0.163  23.862  0.00  0.00    -0.218 OA
ENDBRANCH   6   7
BRANCH   5   4
ATOM      4  C   UNL     1      -2.904  -1.549  24.413  0.00  0.00    +0.094 C 
BRANCH   4   2
ATOM      1  C   UNL     1      -3.525  -2.818  24.626  0.00  0.00    +0.002 C 
ATOM      2  C   UNL     1      -3.308  -2.073  24.906  0.00  0.00    +0.020 C 
ATOM      3  C   UNL     1      -3.496  -1.852  25.679  0.00  0.00    +0.002 C 
ENDBRANCH   4   2
ENDBRANCH   5   4
ENDBRANCH  14   9
BRANCH  17  18
ATOM     18  N   UNL     1      -0.333   2.846  25.207  0.00  0.00    -0.101 NA
BRANCH  18  19
ATOM     19  S   UNL     1      -0.859   3.435  24.967  0.00  0.00    +0.073 S 
ATOM     20  O   UNL     1      -1.217   3.418  25.711  0.00  0.00    -0.153 OA
ATOM     21  O   UNL     1      -0.501   3.452  24.224  0.00  0.00    -0.153 OA
BRANCH  19  22
ATOM     22  C   UNL     1      -1.385   4.023  24.727  0.00  0.00    +0.174 C 
BRANCH  22  23
ATOM     23  C   UNL     1      -1.287   4.798  24.993  0.00  0.00    +0.026 C 
ATOM     24  C   UNL     1      -1.875   5.156  25.448  0.00  0.00    +0.002 C 
ATOM     25  C   UNL     1      -0.601   5.215  24.804  0.00  0.00    +0.002 C 
ENDBRANCH  22  23
ENDBRANCH  19  22
ENDBRANCH  18  19
ENDBRANCH  17  18
TORSDOF 8
ENDMDL
MODEL 3
REMARK VINA RESULT:      -9.8      1.449      5.079
REMARK  Name = 
REMARK  8 active torsions:
REMARK  status: ('A' for Active; 'I' for Inactive)
REMARK    1  A    between atoms: C_2  and  C_4
REMARK    2  A    between atoms: C_4  and  N_5
REMARK    3  A    between atoms: C_6  and  C_7
REMARK    4  A    between atoms: C_9  and  C_14
REMARK    5  A    between atoms: C_17  and  N_18
REMARK    6  A    between atoms: N_18  and  S_19
REMARK    7  A    between atoms: S_19  and  C_22
REMARK    8  A    between atoms: C_22  and  C_23
REMARK                            x       y       z     vdW  Elec       q    Type
REMARK                         _______ _______ _______ _____ _____    ______ ____
ROOT
ATOM     14  C   UNL     1      -3.486   0.817  24.288  0.00  0.00    +0.006 A 
ATOM     15  C   UNL     1      -3.859   1.307  24.838  0.00  0.00    -0.001 A 
ATOM     16  C   UNL     1      -3.696   2.115  24.847  0.00  0.00    +0.018 A 
ATOM     17  C   UNL     1      -3.161   2.434  24.307  0.00  0.00    +0.091 A 
ATOM     26  C   UNL     1      -2.788   1.945  23.757  0.00  0.00    +0.018 A 
ATOM     27  C   UNL     1      -2.951   1.136  23.748  0.00  0.00    -0.001 A 
ENDROOT
BRANCH  14   9
ATOM      5  N   UNL     1      -3.316  -1.325  24.666  0.00  0.00    -0.274 N 
ATOM      6  C   UNL     1      -3.152  -0.518  24.675  0.00  0.00    +0.140 C 
ATOM      9  C   UNL     1      -3.649   0.008  24.279  0.00  0.00    +0.159 C 
ATOM     10  O   UNL     1      -4.310  -0.273  23.874  0.00  0.00    -0.341 OA
ATOM     11  C   UNL     1      -4.474  -1.083  23.865  0.00  0.00    +0.227 C 
ATOM     12  C   UNL     1      -3.977  -1.609  24.261  0.00  0.00    +0.256 C 
ATOM     13  O   UNL     1      -4.141  -2.417  24.251  0.00  0.00    -0.272 OA
BRANCH   6   7
ATOM      7  C   UNL     1      -2.492  -0.235  25.080  0.00  0.00    +0.205 C 
ATOM      8  O   UNL     1      -2.438  -0.327  25.898  0.00  0.00    -0.218 OA
ENDBRANCH   6   7
BRANCH   5   4
ATOM      4  C   UNL     1      -2.818  -1.852  25.062  0.00  0.00    +0.094 C 
BRANCH   4   2
ATOM      1  C   UNL     1      -2.801  -3.212  24.625  0.00  0.00    +0.002 C 
ATOM      2  C   UNL     1      -2.453  -2.465  24.648  0.00  0.00    +0.020 C 
ATOM      3  C   UNL     1      -1.739  -2.331  24.255  0.00  0.00    +0.002 C 
ENDBRANCH   4   2
ENDBRANCH   5   4
ENDBRANCH  14   9
BRANCH  17  18
ATOM     18  N   UNL     1      -2.998   3.243  24.316  0.00  0.00    -0.101 NA
BRANCH  18  19
ATOM     19  S   UNL     1      -2.435   3.544  24.838  0.00  0.00    +0.073 S 
ATOM     20  O   UNL     1      -3.035   3.749  25.367  0.00  0.00    -0.153 OA
ATOM     21  O   UNL     1      -1.835   3.339  24.311  0.00  0.00    -0.153 OA
BRANCH  19  22
ATOM     22  C   UNL     1      -1.872   3.845  25.362  0.00  0.00    +0.174 C 
BRANCH  22  23
ATOM     23  C   UNL     1      -1.499   4.562  25.199  0.00  0.00    +0.026 C 
ATOM     24  C   UNL     1      -0.712   4.571  24.951  0.00  0.00    +0.002 C 
ATOM     25  C   UNL     1      -1.912   5.271  25.284  0.00  0.00    +0.002 C 
ENDBRANCH  22  23
ENDBRANCH  19  22
ENDBRANCH  18  19
ENDBRANCH  17  18
TORSDOF 8
ENDMDL
MODEL 4
REMARK VINA RESULT:      -9.3      1.496      2.113
REMARK  Name = 
REMARK  8 active torsions:
REMARK  status: ('A' for Active; 'I' for Inactive)
REMARK    1  A    between atoms: C_2  and  C_4
REMARK    2  A    between atoms: C_4  and  N_5
REMARK    3  A    between atoms: C_6  and  C_7
REMARK    4  A    between atoms: C_9  and  C_14
REMARK    5  A    between atoms: C_17  and  N_18
REMARK    6  A    between atoms: N_18  and  S_19
REMARK    7  A    between atoms: S_19  and  C_22
REMARK    8  A    between atoms: C_22  and  C_23
REMARK                            x       y       z     vdW  Elec       q    Type
REMARK                         _______ _______ _______ _____ _____    ______ ____
ROOT
ATOM     14  C   UNL     1      -1.209   0.922  25.107  0.00  0.00    +0.006 A 
ATOM     15  C   UNL     1      -1.592   0.553  25.739  0.00  0.00    -0.001 A 
ATOM     16  C   UNL     1      -1.828  -0.234  25.675  0.00  0.00    +0.018 A 
ATOM     17  C   UNL     1      -1.681  -0.654  24.981  0.00  0.00    +0.091 A 
ATOM     26  C   UNL     1      -1.298  -0.286  24.350  0.00  0.00    +0.018 A 
ATOM     27  C   UNL     1      -1.062   0.502  24.413  0.00  0.00    -0.001 A 
ENDROOT
BRANCH  14   9
ATOM      5  N   UNL     1      -1.253   3.101  25.015  0.00  0.00    -0.274 N 
ATOM      6  C   UNL     1      -1.489   2.314  24.951  0.00  0.00    +0.140 C 
ATOM      9  C   UNL     1      -0.973   1.710  25.171  0.00  0.00    +0.159 C 
ATOM     10  O   UNL     1      -0.221   1.892  25.456  0.00  0.00    -0.341 OA
ATOM     11  C   UNL     1       0.016   2.680  25.521  0.00  0.00    +0.227 C 
ATOM     12  C   UNL     1      -0.500   3.285  25.300  0.00  0.00    +0.256 C 
ATOM     13  O   UNL     1      -0.263   4.073  25.365  0.00  0.00    -0.272 OA
BRANCH   6   7
ATOM      7  C   UNL     1      -2.241   2.131  24.666  0.00  0.00    +0.205 C 
ATOM      8  O   UNL     1      -2.443   2.312  23.887  0.00  0.00    -0.218 OA
ENDBRANCH   6   7
BRANCH   5   4
ATOM      4  C   UNL     1      -1.769   3.707  24.794  0.00  0.00    +0.094 C 
BRANCH   4   2
ATOM      1  C   UNL     1      -1.619   5.061  25.226  0.00  0.00    +0.002 C 
ATOM      2  C   UNL     1      -1.948   4.311  25.327  0.00  0.00    +0.020 C 
ATOM      3  C   UNL     1      -2.455   4.166  25.962  0.00  0.00    +0.002 C 
ENDBRANCH   4   2
ENDBRANCH   5   4
ENDBRANCH  14   9
BRANCH  17  18
ATOM     18  N   UNL     1      -1.917  -1.442  24.917  0.00  0.00    -0.101 NA
BRANCH  18  19
ATOM     19  S   UNL     1      -2.718  -1.629  24.858  0.00  0.00    +0.073 S 
ATOM     20  O   UNL     1      -2.748  -1.754  25.674  0.00  0.00    -0.153 OA
ATOM     21  O   UNL     1      -2.688  -1.504  24.044  0.00  0.00    -0.153 OA
BRANCH  19  22
ATOM     22  C   UNL     1      -3.520  -1.816  24.801  0.00  0.00    +0.174 C 
BRANCH  22  23
ATOM     23  C   UNL     1      -3.760  -2.478  24.374  0.00  0.00    +0.026 C 
ATOM     24  C   UNL     1      -3.507  -3.230  24.600  0.00  0.00    +0.002 C 
ATOM     25  C   UNL     1      -4.253  -2.390  23.718  0.00  0.00    +0.002 C 
ENDBRANCH  22  23
ENDBRANCH  19  22
ENDBRANCH  18  19
ENDBRANCH  17  18
TORSDOF 8
ENDMDL
