REMARK  Name = 
REMARK  6 active torsions:
REMARK  status: ('A' for Active; 'I' for Inactive)
REMARK    1  A    between atoms: O_2  and  C_3
REMARK    2  A    between atoms: C_6  and  N_9
REMARK    3  A    between atoms: C_13  and  C_14
REMARK    4  A    between atoms: C_16  and  N_17
REMARK    5  A    between atoms: N_20  and  C_21
REMARK    6  A    between atoms: C_21  and  C_22
REMARK                            x       y       z     vdW  Elec       q    Type
REMARK                         _______ _______ _______ _____ _____    ______ ____
ROOT
ATOM     14  C   UNL     1      -0.064  -7.452   0.000  0.00  0.00    +0.048 C 
ATOM     15  C   UNL     1       0.191  -8.237   0.000  0.00  0.00    +0.035 C 
ATOM     16  C   UNL     1      -0.476  -8.722   0.000  0.00  0.00    +0.119 C 
ATOM     28  C   UNL     1      -1.144  -8.237   0.000  0.00  0.00    -0.009 C 
ATOM     29  C   UNL     1      -0.889  -7.452   0.000  0.00  0.00    -0.025 C 
ENDROOT
BRANCH  14  13
ATOM      9  N   UNL     1       0.834  -5.516   0.000  0.00  0.00    -0.234 N 
ATOM     10  N   UNL     1       1.501  -6.000   0.000  0.00  0.00    -0.170 NA
ATOM     11  C   UNL     1       1.246  -6.785   0.000  0.00  0.00    +0.077 A 
ATOM     12  C   UNL     1       1.731  -7.452   0.000  0.00  0.00    +0.054 C 
ATOM     13  C   UNL     1       0.421  -6.785   0.000  0.00  0.00    +0.010 A 
ATOM     30  C   UNL     1       0.166  -6.000   0.000  0.00  0.00    +0.058 A 
ATOM     31  C   UNL     1      -0.619  -5.745   0.000  0.00  0.00    +0.052 C 
BRANCH   9   6
ATOM      3  C   UNL     1       0.834  -3.041   0.000  0.00  0.00    +0.139 A 
ATOM      4  C   UNL     1       1.548  -3.453   0.000  0.00  0.00    +0.038 A 
ATOM      5  C   UNL     1       1.548  -4.278   0.000  0.00  0.00    +0.022 A 
ATOM      6  C   UNL     1       0.834  -4.691   0.000  0.00  0.00    +0.083 A 
ATOM      7  C   UNL     1       0.119  -4.278   0.000  0.00  0.00    +0.022 A 
ATOM      8  C   UNL     1       0.119  -3.453   0.000  0.00  0.00    +0.038 A 
BRANCH   3   2
ATOM      1  C   UNL     1       0.119  -1.803   0.000  0.00  0.00    +0.252 C 
ATOM      2  O   UNL     1       0.834  -2.216   0.000  0.00  0.00    -0.471 OA
ENDBRANCH   3   2
ENDBRANCH   9   6
ENDBRANCH  14  13
BRANCH  16  17
ATOM     17  N   UNL     1      -0.476  -9.547   0.000  0.00  0.00    -0.184 NA
ATOM     18  C   UNL     1       0.238  -9.960   0.000  0.00  0.00    +0.340 C 
ATOM     19  O   UNL     1       0.953  -9.547   0.000  0.00  0.00    -0.249 OA
ATOM     20  N   UNL     1       0.238 -10.784   0.000  0.00  0.00    -0.182 NA
BRANCH  20  21
ATOM     21  C   UNL     1       0.953 -11.197   0.000  0.00  0.00    +0.143 C 
BRANCH  21  22
ATOM     22  C   UNL     1       0.953 -12.022   0.000  0.00  0.00    -0.001 A 
ATOM     23  C   UNL     1       1.667 -12.434   0.000  0.00  0.00    -0.003 A 
ATOM     24  C   UNL     1       1.667 -13.259   0.000  0.00  0.00    -0.000 A 
ATOM     25  C   UNL     1       0.953 -13.672   0.000  0.00  0.00    -0.000 A 
ATOM     26  C   UNL     1       0.238 -13.259   0.000  0.00  0.00    -0.000 A 
ATOM     27  C   UNL     1       0.238 -12.434   0.000  0.00  0.00    -0.003 A 
ENDBRANCH  21  22
ENDBRANCH  20  21
ENDBRANCH  16  17
TORSDOF 6
