MODEL 1
REMARK VINA RESULT:     -10.6      0.000      0.000
REMARK  Name = 
REMARK  7 active torsions:
REMARK  status: ('A' for Active; 'I' for Inactive)
REMARK    1  A    between atoms: O_2  and  C_3
REMARK    2  A    between atoms: C_4  and  C_9
REMARK    3  A    between atoms: C_13  and  C_15
REMARK    4  A    between atoms: C_22  and  C_23
REMARK    5  A    between atoms: C_23  and  N_24
REMARK    6  A    between atoms: N_27  and  C_28
REMARK    7  A    between atoms: C_28  and  C_29
REMARK                            x       y       z     vdW  Elec       q    Type
REMARK                         _______ _______ _______ _____ _____    ______ ____
ROOT
ATOM     15  C   UNL     1      -1.166   1.013  24.128  0.00  0.00    +0.056 C 
ATOM     16  C   UNL     1      -0.706   1.489  23.719  0.00  0.00    +0.078 C 
ATOM     17  N   UNL     1      -0.610   0.674  23.806  0.00  0.00    -0.272 NA
ATOM     18  C   UNL     1      -1.393   0.333  24.415  0.00  0.00    +0.072 C 
ATOM     19  C   UNL     1      -1.703  -0.153  24.722  0.00  0.00    +0.018 C 
ATOM     20  C   UNL     1      -1.065   0.214  24.209  0.00  0.00    +0.010 C 
ATOM     21  C   UNL     1      -0.460  -0.338  23.893  0.00  0.00    +0.018 C 
ATOM     22  C   UNL     1       0.016   0.094  23.481  0.00  0.00    +0.079 C 
ENDROOT
BRANCH  15  13
ATOM      9  C   UNL     1      -3.061   1.695  24.837  0.00  0.00    +0.105 A 
ATOM     10  N   UNL     1      -2.551   2.054  25.377  0.00  0.00    -0.169 NA
ATOM     11  N   UNL     1      -1.780   1.842  25.177  0.00  0.00    -0.253 N 
ATOM     12  C   UNL     1      -1.094   2.079  25.571  0.00  0.00    +0.153 C 
ATOM     13  C   UNL     1      -1.813   1.353  24.514  0.00  0.00    +0.058 A 
ATOM     14  C   UNL     1      -2.605   1.261  24.304  0.00  0.00    +0.035 A 
BRANCH   9   4
ATOM      3  C   UNL     1      -4.244   2.448  24.559  0.00  0.00    +0.140 A 
ATOM      4  C   UNL     1      -3.884   1.758  24.832  0.00  0.00    +0.053 A 
ATOM      5  C   UNL     1      -4.347   1.130  25.100  0.00  0.00    +0.005 A 
ATOM      6  C   UNL     1      -5.171   1.193  25.095  0.00  0.00    +0.000 A 
ATOM      7  C   UNL     1      -5.530   1.883  24.822  0.00  0.00    +0.003 A 
ATOM      8  C   UNL     1      -5.066   2.511  24.554  0.00  0.00    +0.037 A 
BRANCH   3   2
ATOM      1  C   UNL     1      -4.138   3.776  24.043  0.00  0.00    +0.252 C 
ATOM      2  O   UNL     1      -3.780   3.076  24.291  0.00  0.00    -0.471 OA
ENDBRANCH   3   2
ENDBRANCH   9   4
ENDBRANCH  15  13
BRANCH  22  23
ATOM     23  C   UNL     1       0.695   0.058  23.015  0.00  0.00    +0.133 C 
BRANCH  23  24
ATOM     24  N   UNL     1       1.439   0.037  23.371  0.00  0.00    -0.186 NA
ATOM     25  C   UNL     1       2.119   0.017  22.904  0.00  0.00    +0.340 C 
ATOM     26  O   UNL     1       2.055   0.018  22.082  0.00  0.00    -0.249 OA
ATOM     27  N   UNL     1       2.863  -0.004  23.260  0.00  0.00    -0.182 NA
BRANCH  27  28
ATOM     28  C   UNL     1       3.543  -0.024  22.794  0.00  0.00    +0.143 C 
BRANCH  28  29
ATOM     29  C   UNL     1       4.287  -0.032  23.150  0.00  0.00    -0.001 A 
ATOM     30  C   UNL     1       4.751   0.649  23.154  0.00  0.00    -0.003 A 
ATOM     31  C   UNL     1       5.495   0.641  23.510  0.00  0.00    -0.000 A 
ATOM     32  C   UNL     1       5.776  -0.050  23.862  0.00  0.00    -0.000 A 
ATOM     33  C   UNL     1       5.312  -0.733  23.858  0.00  0.00    -0.000 A 
ATOM     34  C   UNL     1       4.568  -0.723  23.502  0.00  0.00    -0.003 A 
ENDBRANCH  28  29
ENDBRANCH  27  28
ENDBRANCH  23  24
ENDBRANCH  22  23
TORSDOF 7
ENDMDL
