MODEL 1
REMARK VINA RESULT:      -7.4      0.000      0.000
REMARK  Name = 
REMARK  6 active torsions:
REMARK  status: ('A' for Active; 'I' for Inactive)
REMARK    1  A    between atoms: N_6  and  C_7
REMARK    2  A    between atoms: C_7  and  C_8
REMARK    3  A    between atoms: C_11  and  S_14
REMARK    4  A    between atoms: C_23  and  C_24
REMARK    5  A    between atoms: C_24  and  C_25
REMARK    6  A    between atoms: C_25  and  C_26
REMARK                            x       y       z     vdW  Elec       q    Type
REMARK                         _______ _______ _______ _____ _____    ______ ____
ROOT
ATOM      1  C   UNL     1       1.200   1.915  23.796  0.00  0.00    +0.090 C 
ATOM      2  N   UNL     1       0.867   1.166  23.698  0.00  0.00    -0.271 NA
ATOM      3  C   UNL     1       0.091   1.082  23.965  0.00  0.00    +0.083 C 
ATOM      4  C   UNL     1      -0.340   1.696  24.311  0.00  0.00    +0.035 C 
ATOM      5  C   UNL     1      -1.087   1.405  24.505  0.00  0.00    +0.074 C 
ATOM      6  N   UNL     1      -1.118   0.611  24.280  0.00  0.00    -0.262 NA
ATOM     18  C   UNL     1      -0.390   0.412  23.946  0.00  0.00    +0.151 C 
ATOM     19  C   UNL     1      -0.213  -0.339  23.655  0.00  0.00    +0.257 C 
ATOM     20  O   UNL     1      -0.818  -0.898  23.717  0.00  0.00    -0.272 OA
ATOM     21  N   UNL     1       0.487  -0.607  23.312  0.00  0.00    -0.203 NA
ATOM     22  C   UNL     1       1.185  -0.188  23.174  0.00  0.00    +0.131 C 
ATOM     23  C   UNL     1       1.354   0.601  23.346  0.00  0.00    +0.080 C 
ENDROOT
BRANCH   6   7
ATOM      7  C   UNL     1      -1.764   0.106  24.372  0.00  0.00    +0.100 C 
BRANCH   7   8
ATOM      8  C   UNL     1      -2.517   0.418  24.495  0.00  0.00    -0.006 A 
ATOM      9  C   UNL     1      -2.950   0.714  23.859  0.00  0.00    -0.002 A 
ATOM     10  C   UNL     1      -3.703   1.026  23.982  0.00  0.00    +0.018 A 
ATOM     11  C   UNL     1      -4.024   1.043  24.742  0.00  0.00    +0.106 A 
ATOM     12  C   UNL     1      -3.590   0.747  25.379  0.00  0.00    +0.018 A 
ATOM     13  C   UNL     1      -2.838   0.435  25.256  0.00  0.00    -0.002 A 
BRANCH  11  14
ATOM     14  S   UNL     1      -4.777   1.355  24.866  0.00  0.00    +0.010 S 
ATOM     15  C   UNL     1      -5.531   1.666  24.990  0.00  0.00    +0.182 C 
ATOM     16  O   UNL     1      -5.084   0.591  24.922  0.00  0.00    -0.169 OA
ATOM     17  O   UNL     1      -4.471   2.119  24.810  0.00  0.00    -0.169 OA
ENDBRANCH  11  14
ENDBRANCH   7   8
ENDBRANCH   6   7
BRANCH  23  24
ATOM     24  C   UNL     1       2.110   0.858  23.138  0.00  0.00    +0.027 C 
BRANCH  24  25
ATOM     25  C   UNL     1       2.736   0.321  23.117  0.00  0.00    +0.087 C 
BRANCH  25  26
ATOM     26  C   UNL     1       3.500   0.586  22.949  0.00  0.00    +0.226 C 
ATOM     27  O   UNL     1       3.611   1.285  22.525  0.00  0.00    -0.275 OA
ATOM     28  N   UNL     1       4.152   0.150  23.204  0.00  0.00    -0.274 N 
ATOM     29  C   UNL     1       4.916   0.414  23.036  0.00  0.00    +0.125 C 
ATOM     30  C   UNL     1       5.568  -0.021  23.292  0.00  0.00    +0.164 C 
ATOM     31  O   UNL     1       5.457  -0.721  23.715  0.00  0.00    -0.350 OA
ATOM     32  C   UNL     1       4.694  -0.984  23.884  0.00  0.00    +0.164 C 
ATOM     33  C   UNL     1       4.042  -0.548  23.628  0.00  0.00    +0.125 C 
ENDBRANCH  25  26
ENDBRANCH  24  25
ENDBRANCH  23  24
TORSDOF 6
ENDMDL
MODEL 2
REMARK VINA RESULT:      -7.1      1.644      2.309
REMARK  Name = 
REMARK  6 active torsions:
REMARK  status: ('A' for Active; 'I' for Inactive)
REMARK    1  A    between atoms: N_6  and  C_7
REMARK    2  A    between atoms: C_7  and  C_8
REMARK    3  A    between atoms: C_11  and  S_14
REMARK    4  A    between atoms: C_23  and  C_24
REMARK    5  A    between atoms: C_24  and  C_25
REMARK    6  A    between atoms: C_25  and  C_26
REMARK                            x       y       z     vdW  Elec       q    Type
REMARK                         _______ _______ _______ _____ _____    ______ ____
ROOT
ATOM      1  C   UNL     1      -0.605   0.009  24.032  0.00  0.00    +0.090 C 
ATOM      2  N   UNL     1      -0.495   0.826  24.086  0.00  0.00    -0.271 NA
ATOM      3  C   UNL     1      -1.140   1.255  24.367  0.00  0.00    +0.083 C 
ATOM      4  C   UNL     1      -1.857   0.909  24.586  0.00  0.00    +0.035 C 
ATOM      5  C   UNL     1      -2.364   1.509  24.837  0.00  0.00    +0.074 C 
ATOM      6  N   UNL     1      -1.961   2.227  24.773  0.00  0.00    -0.262 NA
ATOM     18  C   UNL     1      -1.204   2.070  24.483  0.00  0.00    +0.151 C 
ATOM     19  C   UNL     1      -0.639   2.655  24.345  0.00  0.00    +0.257 C 
ATOM     20  O   UNL     1      -0.875   3.427  24.518  0.00  0.00    -0.272 OA
ATOM     21  N   UNL     1       0.129   2.571  24.059  0.00  0.00    -0.203 NA
ATOM     22  C   UNL     1       0.523   1.879  23.838  0.00  0.00    +0.131 C 
ATOM     23  C   UNL     1       0.245   1.103  23.850  0.00  0.00    +0.080 C 
ENDROOT
BRANCH   6   7
ATOM      7  C   UNL     1      -2.261   2.971  24.966  0.00  0.00    +0.100 C 
BRANCH   7   8
ATOM      8  C   UNL     1      -3.066   3.063  25.122  0.00  0.00    -0.006 A 
ATOM      9  C   UNL     1      -3.611   3.048  24.503  0.00  0.00    -0.002 A 
ATOM     10  C   UNL     1      -4.415   3.139  24.660  0.00  0.00    +0.018 A 
ATOM     11  C   UNL     1      -4.676   3.246  25.436  0.00  0.00    +0.106 A 
ATOM     12  C   UNL     1      -4.130   3.260  26.055  0.00  0.00    +0.018 A 
ATOM     13  C   UNL     1      -3.326   3.169  25.898  0.00  0.00    -0.002 A 
BRANCH  11  14
ATOM     14  S   UNL     1      -5.479   3.337  25.593  0.00  0.00    +0.010 S 
ATOM     15  C   UNL     1      -6.284   3.428  25.751  0.00  0.00    +0.182 C 
ATOM     16  O   UNL     1      -5.526   2.544  25.816  0.00  0.00    -0.169 OA
ATOM     17  O   UNL     1      -5.434   4.130  25.370  0.00  0.00    -0.169 OA
ENDBRANCH  11  14
ENDBRANCH   7   8
ENDBRANCH   6   7
BRANCH  23  24
ATOM     24  C   UNL     1       0.779   0.528  23.593  0.00  0.00    +0.027 C 
BRANCH  24  25
ATOM     25  C   UNL     1       1.528   0.751  23.328  0.00  0.00    +0.087 C 
BRANCH  25  26
ATOM     26  C   UNL     1       1.952   0.253  22.825  0.00  0.00    +0.226 C 
ATOM     27  O   UNL     1       1.573  -0.381  22.456  0.00  0.00    -0.275 OA
ATOM     28  N   UNL     1       2.755   0.389  22.691  0.00  0.00    -0.274 N 
ATOM     29  C   UNL     1       3.179  -0.109  22.188  0.00  0.00    +0.125 C 
ATOM     30  C   UNL     1       3.981   0.027  22.054  0.00  0.00    +0.164 C 
ATOM     31  O   UNL     1       4.360   0.660  22.423  0.00  0.00    -0.350 OA
ATOM     32  C   UNL     1       3.936   1.158  22.926  0.00  0.00    +0.164 C 
ATOM     33  C   UNL     1       3.133   1.022  23.059  0.00  0.00    +0.125 C 
ENDBRANCH  25  26
ENDBRANCH  24  25
ENDBRANCH  23  24
TORSDOF 6
ENDMDL
MODEL 3
REMARK VINA RESULT:      -6.5      2.025      6.867
REMARK  Name = 
REMARK  6 active torsions:
REMARK  status: ('A' for Active; 'I' for Inactive)
REMARK    1  A    between atoms: N_6  and  C_7
REMARK    2  A    between atoms: C_7  and  C_8
REMARK    3  A    between atoms: C_11  and  S_14
REMARK    4  A    between atoms: C_23  and  C_24
REMARK    5  A    between atoms: C_24  and  C_25
REMARK    6  A    between atoms: C_25  and  C_26
REMARK                            x       y       z     vdW  Elec       q    Type
REMARK                         _______ _______ _______ _____ _____    ______ ____
ROOT
ATOM      1  C   UNL     1      -2.770   1.829  23.225  0.00  0.00    +0.090 C 
ATOM      2  N   UNL     1      -2.455   1.238  23.708  0.00  0.00    -0.271 NA
ATOM      3  C   UNL     1      -1.661   1.057  23.579  0.00  0.00    +0.083 C 
ATOM      4  C   UNL     1      -1.196   1.430  23.009  0.00  0.00    +0.035 C 
ATOM      5  C   UNL     1      -0.439   1.105  23.044  0.00  0.00    +0.074 C 
ATOM      6  N   UNL     1      -0.436   0.529  23.636  0.00  0.00    -0.262 NA
ATOM     18  C   UNL     1      -1.191   0.500  23.967  0.00  0.00    +0.151 C 
ATOM     19  C   UNL     1      -1.400  -0.013  24.578  0.00  0.00    +0.257 C 
ATOM     20  O   UNL     1      -0.799  -0.509  24.850  0.00  0.00    -0.272 OA
ATOM     21  N   UNL     1      -2.130  -0.096  24.953  0.00  0.00    -0.203 NA
ATOM     22  C   UNL     1      -2.832   0.315  24.810  0.00  0.00    +0.131 C 
ATOM     23  C   UNL     1      -2.976   0.908  24.256  0.00  0.00    +0.080 C 
ENDROOT
BRANCH   6   7
ATOM      7  C   UNL     1       0.209   0.065  23.858  0.00  0.00    +0.100 C 
BRANCH   7   8
ATOM      8  C   UNL     1       0.948   0.193  23.513  0.00  0.00    -0.006 A 
ATOM      9  C   UNL     1       1.214  -0.302  22.910  0.00  0.00    -0.002 A 
ATOM     10  C   UNL     1       1.952  -0.173  22.566  0.00  0.00    +0.018 A 
ATOM     11  C   UNL     1       2.425   0.451  22.824  0.00  0.00    +0.106 A 
ATOM     12  C   UNL     1       2.158   0.947  23.428  0.00  0.00    +0.018 A 
ATOM     13  C   UNL     1       1.420   0.818  23.772  0.00  0.00    -0.002 A 
BRANCH  11  14
ATOM     14  S   UNL     1       3.163   0.581  22.481  0.00  0.00    +0.010 S 
ATOM     15  C   UNL     1       3.901   0.710  22.136  0.00  0.00    +0.182 C 
ATOM     16  O   UNL     1       2.941   0.120  21.833  0.00  0.00    -0.169 OA
ATOM     17  O   UNL     1       3.385   1.041  23.128  0.00  0.00    -0.169 OA
ENDBRANCH  11  14
ENDBRANCH   7   8
ENDBRANCH   6   7
BRANCH  23  24
ATOM     24  C   UNL     1      -3.744   1.211  24.248  0.00  0.00    +0.027 C 
BRANCH  24  25
ATOM     25  C   UNL     1      -4.050   1.573  24.924  0.00  0.00    +0.087 C 
BRANCH  25  26
ATOM     26  C   UNL     1      -4.860   1.718  24.982  0.00  0.00    +0.226 C 
ATOM     27  O   UNL     1      -5.401   1.154  24.717  0.00  0.00    -0.275 OA
ATOM     28  N   UNL     1      -5.129   2.428  25.305  0.00  0.00    -0.274 N 
ATOM     29  C   UNL     1      -5.940   2.573  25.363  0.00  0.00    +0.125 C 
ATOM     30  C   UNL     1      -6.209   3.283  25.687  0.00  0.00    +0.164 C 
ATOM     31  O   UNL     1      -5.668   3.848  25.951  0.00  0.00    -0.350 OA
ATOM     32  C   UNL     1      -4.859   3.702  25.893  0.00  0.00    +0.164 C 
ATOM     33  C   UNL     1      -4.590   2.992  25.570  0.00  0.00    +0.125 C 
ENDBRANCH  25  26
ENDBRANCH  24  25
ENDBRANCH  23  24
TORSDOF 6
ENDMDL
MODEL 4
REMARK VINA RESULT:      -5.3     16.591     18.075
REMARK  Name = 
REMARK  6 active torsions:
REMARK  status: ('A' for Active; 'I' for Inactive)
REMARK    1  A    between atoms: N_6  and  C_7
REMARK    2  A    between atoms: C_7  and  C_8
REMARK    3  A    between atoms: C_11  and  S_14
REMARK    4  A    between atoms: C_23  and  C_24
REMARK    5  A    between atoms: C_24  and  C_25
REMARK    6  A    between atoms: C_25  and  C_26
REMARK                            x       y       z     vdW  Elec       q    Type
REMARK                         _______ _______ _______ _____ _____    ______ ____
ROOT
ATOM      1  C   UNL     1      12.754  -5.274  32.253  0.00  0.00    +0.090 C 
ATOM      2  N   UNL     1      13.328  -5.410  31.675  0.00  0.00    -0.271 NA
ATOM      3  C   UNL     1      13.948  -4.867  31.653  0.00  0.00    +0.083 C 
ATOM      4  C   UNL     1      14.009  -4.224  32.168  0.00  0.00    +0.035 C 
ATOM      5  C   UNL     1      14.697  -3.810  31.979  0.00  0.00    +0.074 C 
ATOM      6  N   UNL     1      15.062  -4.197  31.348  0.00  0.00    -0.262 NA
ATOM     18  C   UNL     1      14.599  -4.850  31.147  0.00  0.00    +0.151 C 
ATOM     19  C   UNL     1      14.790  -5.372  30.537  0.00  0.00    +0.257 C 
ATOM     20  O   UNL     1      15.487  -5.203  30.127  0.00  0.00    -0.272 OA
ATOM     21  N   UNL     1      14.378  -6.039  30.283  0.00  0.00    -0.203 NA
ATOM     22  C   UNL     1      13.671  -6.350  30.577  0.00  0.00    +0.131 C 
ATOM     23  C   UNL     1      13.204  -6.069  31.196  0.00  0.00    +0.080 C 
ENDROOT
BRANCH   6   7
ATOM      7  C   UNL     1      15.767  -3.970  30.982  0.00  0.00    +0.100 C 
BRANCH   7   8
ATOM      8  C   UNL     1      16.095  -3.230  31.143  0.00  0.00    -0.006 A 
ATOM      9  C   UNL     1      16.562  -3.123  31.814  0.00  0.00    -0.002 A 
ATOM     10  C   UNL     1      16.889  -2.383  31.973  0.00  0.00    +0.018 A 
ATOM     11  C   UNL     1      16.750  -1.750  31.462  0.00  0.00    +0.106 A 
ATOM     12  C   UNL     1      16.283  -1.859  30.791  0.00  0.00    +0.018 A 
ATOM     13  C   UNL     1      15.955  -2.598  30.631  0.00  0.00    -0.002 A 
BRANCH  11  14
ATOM     14  S   UNL     1      17.078  -1.011  31.622  0.00  0.00    +0.010 S 
ATOM     15  C   UNL     1      17.405  -0.271  31.780  0.00  0.00    +0.182 C 
ATOM     16  O   UNL     1      17.340  -0.959  30.841  0.00  0.00    -0.169 OA
ATOM     17  O   UNL     1      16.816  -1.062  32.402  0.00  0.00    -0.169 OA
ENDBRANCH  11  14
ENDBRANCH   7   8
ENDBRANCH   6   7
BRANCH  23  24
ATOM     24  C   UNL     1      12.524  -6.508  31.357  0.00  0.00    +0.027 C 
BRANCH  24  25
ATOM     25  C   UNL     1      12.548  -7.332  31.328  0.00  0.00    +0.087 C 
BRANCH  25  26
ATOM     26  C   UNL     1      11.862  -7.770  31.464  0.00  0.00    +0.226 C 
ATOM     27  O   UNL     1      11.123  -7.407  31.408  0.00  0.00    -0.275 OA
ATOM     28  N   UNL     1      11.915  -8.570  31.656  0.00  0.00    -0.274 N 
ATOM     29  C   UNL     1      11.229  -9.008  31.792  0.00  0.00    +0.125 C 
ATOM     30  C   UNL     1      11.282  -9.809  31.983  0.00  0.00    +0.164 C 
ATOM     31  O   UNL     1      12.021 -10.172  32.039  0.00  0.00    -0.350 OA
ATOM     32  C   UNL     1      12.707  -9.734  31.903  0.00  0.00    +0.164 C 
ATOM     33  C   UNL     1      12.653  -8.933  31.711  0.00  0.00    +0.125 C 
ENDBRANCH  25  26
ENDBRANCH  24  25
ENDBRANCH  23  24
TORSDOF 6
ENDMDL
MODEL 5
REMARK VINA RESULT:      -4.8     14.650     17.538
REMARK  Name = 
REMARK  6 active torsions:
REMARK  status: ('A' for Active; 'I' for Inactive)
REMARK    1  A    between atoms: N_6  and  C_7
REMARK    2  A    between atoms: C_7  and  C_8
REMARK    3  A    between atoms: C_11  and  S_14
REMARK    4  A    between atoms: C_23  and  C_24
REMARK    5  A    between atoms: C_24  and  C_25
REMARK    6  A    between atoms: C_25  and  C_26
REMARK                            x       y       z     vdW  Elec       q    Type
REMARK                         _______ _______ _______ _____ _____    ______ ____
ROOT
ATOM      1  C   UNL     1      11.663  -9.408  31.536  0.00  0.00    +0.090 C 
ATOM      2  N   UNL     1      11.622  -8.584  31.574  0.00  0.00    -0.271 NA
ATOM      3  C   UNL     1      12.264  -8.179  31.253  0.00  0.00    +0.083 C 
ATOM      4  C   UNL     1      12.914  -8.554  30.910  0.00  0.00    +0.035 C 
ATOM      5  C   UNL     1      13.439  -7.972  30.653  0.00  0.00    +0.074 C 
ATOM      6  N   UNL     1      13.113  -7.236  30.836  0.00  0.00    -0.262 NA
ATOM     18  C   UNL     1      12.386  -7.364  31.206  0.00  0.00    +0.151 C 
ATOM     19  C   UNL     1      11.897  -6.755  31.470  0.00  0.00    +0.257 C 
ATOM     20  O   UNL     1      12.178  -5.989  31.342  0.00  0.00    -0.272 OA
ATOM     21  N   UNL     1      11.165  -6.808  31.846  0.00  0.00    -0.203 NA
ATOM     22  C   UNL     1      10.740  -7.486  32.050  0.00  0.00    +0.131 C 
ATOM     23  C   UNL     1      10.944  -8.277  31.929  0.00  0.00    +0.080 C 
ENDROOT
BRANCH   6   7
ATOM      7  C   UNL     1      13.453  -6.501  30.676  0.00  0.00    +0.100 C 
BRANCH   7   8
ATOM      8  C   UNL     1      14.189  -6.460  30.307  0.00  0.00    -0.006 A 
ATOM      9  C   UNL     1      14.250  -6.577  29.492  0.00  0.00    -0.002 A 
ATOM     10  C   UNL     1      14.986  -6.536  29.124  0.00  0.00    +0.018 A 
ATOM     11  C   UNL     1      15.663  -6.377  29.568  0.00  0.00    +0.106 A 
ATOM     12  C   UNL     1      15.601  -6.260  30.383  0.00  0.00    +0.018 A 
ATOM     13  C   UNL     1      14.866  -6.302  30.752  0.00  0.00    -0.002 A 
BRANCH  11  14
ATOM     14  S   UNL     1      16.399  -6.336  29.200  0.00  0.00    +0.010 S 
ATOM     15  C   UNL     1      17.136  -6.293  28.832  0.00  0.00    +0.182 C 
ATOM     16  O   UNL     1      16.328  -5.515  29.151  0.00  0.00    -0.169 OA
ATOM     17  O   UNL     1      16.471  -7.156  29.250  0.00  0.00    -0.169 OA
ENDBRANCH  11  14
ENDBRANCH   7   8
ENDBRANCH   6   7
BRANCH  23  24
ATOM     24  C   UNL     1      10.396  -8.832  32.199  0.00  0.00    +0.027 C 
BRANCH  24  25
ATOM     25  C   UNL     1       9.588  -8.691  32.109  0.00  0.00    +0.087 C 
BRANCH  25  26
ATOM     26  C   UNL     1       9.041  -9.246  32.380  0.00  0.00    +0.226 C 
ATOM     27  O   UNL     1       9.285  -9.861  32.873  0.00  0.00    -0.275 OA
ATOM     28  N   UNL     1       8.248  -9.185  32.158  0.00  0.00    -0.274 N 
ATOM     29  C   UNL     1       7.701  -9.740  32.429  0.00  0.00    +0.125 C 
ATOM     30  C   UNL     1       6.908  -9.679  32.206  0.00  0.00    +0.164 C 
ATOM     31  O   UNL     1       6.664  -9.065  31.713  0.00  0.00    -0.350 OA
ATOM     32  C   UNL     1       7.211  -8.511  31.442  0.00  0.00    +0.164 C 
ATOM     33  C   UNL     1       8.004  -8.571  31.665  0.00  0.00    +0.125 C 
ENDBRANCH  25  26
ENDBRANCH  24  25
ENDBRANCH  23  24
TORSDOF 6
ENDMDL
MODEL 6
REMARK VINA RESULT:      -4.7     15.781     17.889
REMARK  Name = 
REMARK  6 active torsions:
REMARK  status: ('A' for Active; 'I' for Inactive)
REMARK    1  A    between atoms: N_6  and  C_7
REMARK    2  A    between atoms: C_7  and  C_8
REMARK    3  A    between atoms: C_11  and  S_14
REMARK    4  A    between atoms: C_23  and  C_24
REMARK    5  A    between atoms: C_24  and  C_25
REMARK    6  A    between atoms: C_25  and  C_26
REMARK                            x       y       z     vdW  Elec       q    Type
REMARK                         _______ _______ _______ _____ _____    ______ ____
ROOT
ATOM      1  C   UNL     1      12.654  -6.963  30.253  0.00  0.00    +0.090 C 
ATOM      2  N   UNL     1      13.008  -6.795  30.980  0.00  0.00    -0.271 NA
ATOM      3  C   UNL     1      13.636  -6.260  30.956  0.00  0.00    +0.083 C 
ATOM      4  C   UNL     1      13.906  -5.906  30.261  0.00  0.00    +0.035 C 
ATOM      5  C   UNL     1      14.536  -5.410  30.456  0.00  0.00    +0.074 C 
ATOM      6  N   UNL     1      14.654  -5.456  31.272  0.00  0.00    -0.262 NA
ATOM     18  C   UNL     1      14.098  -5.982  31.581  0.00  0.00    +0.151 C 
ATOM     19  C   UNL     1      14.046  -6.170  32.382  0.00  0.00    +0.257 C 
ATOM     20  O   UNL     1      14.594  -5.796  32.873  0.00  0.00    -0.272 OA
ATOM     21  N   UNL     1      13.520  -6.682  32.758  0.00  0.00    -0.203 NA
ATOM     22  C   UNL     1      12.915  -7.134  32.424  0.00  0.00    +0.131 C 
ATOM     23  C   UNL     1      12.687  -7.184  31.632  0.00  0.00    +0.080 C 
ENDROOT
BRANCH   6   7
ATOM      7  C   UNL     1      15.228  -5.049  31.703  0.00  0.00    +0.100 C 
BRANCH   7   8
ATOM      8  C   UNL     1      15.606  -4.395  31.370  0.00  0.00    -0.006 A 
ATOM      9  C   UNL     1      15.359  -3.632  31.566  0.00  0.00    -0.002 A 
ATOM     10  C   UNL     1      15.737  -2.980  31.234  0.00  0.00    +0.018 A 
ATOM     11  C   UNL     1      16.361  -3.087  30.706  0.00  0.00    +0.106 A 
ATOM     12  C   UNL     1      16.608  -3.851  30.510  0.00  0.00    +0.018 A 
ATOM     13  C   UNL     1      16.230  -4.504  30.842  0.00  0.00    -0.002 A 
BRANCH  11  14
ATOM     14  S   UNL     1      16.739  -2.435  30.373  0.00  0.00    +0.010 S 
ATOM     15  C   UNL     1      17.118  -1.782  30.041  0.00  0.00    +0.182 C 
ATOM     16  O   UNL     1      17.195  -2.351  31.056  0.00  0.00    -0.169 OA
ATOM     17  O   UNL     1      16.285  -2.518  29.690  0.00  0.00    -0.169 OA
ENDBRANCH  11  14
ENDBRANCH   7   8
ENDBRANCH   6   7
BRANCH  23  24
ATOM     24  C   UNL     1      12.055  -7.689  31.474  0.00  0.00    +0.027 C 
BRANCH  24  25
ATOM     25  C   UNL     1      11.498  -7.849  32.061  0.00  0.00    +0.087 C 
BRANCH  25  26
ATOM     26  C   UNL     1      10.981  -8.487  31.977  0.00  0.00    +0.226 C 
ATOM     27  O   UNL     1      11.242  -9.185  31.621  0.00  0.00    -0.275 OA
ATOM     28  N   UNL     1      10.204  -8.427  32.248  0.00  0.00    -0.274 N 
ATOM     29  C   UNL     1       9.688  -9.065  32.163  0.00  0.00    +0.125 C 
ATOM     30  C   UNL     1       8.911  -9.005  32.434  0.00  0.00    +0.164 C 
ATOM     31  O   UNL     1       8.650  -8.307  32.789  0.00  0.00    -0.350 OA
ATOM     32  C   UNL     1       9.167  -7.670  32.873  0.00  0.00    +0.164 C 
ATOM     33  C   UNL     1       9.944  -7.730  32.602  0.00  0.00    +0.125 C 
ENDBRANCH  25  26
ENDBRANCH  24  25
ENDBRANCH  23  24
TORSDOF 6
ENDMDL
MODEL 7
REMARK VINA RESULT:      -4.6     15.951     17.903
REMARK  Name = 
REMARK  6 active torsions:
REMARK  status: ('A' for Active; 'I' for Inactive)
REMARK    1  A    between atoms: N_6  and  C_7
REMARK    2  A    between atoms: C_7  and  C_8
REMARK    3  A    between atoms: C_11  and  S_14
REMARK    4  A    between atoms: C_23  and  C_24
REMARK    5  A    between atoms: C_24  and  C_25
REMARK    6  A    between atoms: C_25  and  C_26
REMARK                            x       y       z     vdW  Elec       q    Type
REMARK                         _______ _______ _______ _____ _____    ______ ____
ROOT
ATOM      1  C   UNL     1      12.509  -6.201  30.982  0.00  0.00    +0.090 C 
ATOM      2  N   UNL     1      12.860  -6.931  30.820  0.00  0.00    -0.271 NA
ATOM      3  C   UNL     1      13.492  -6.913  30.290  0.00  0.00    +0.083 C 
ATOM      4  C   UNL     1      13.768  -6.222  29.934  0.00  0.00    +0.035 C 
ATOM      5  C   UNL     1      14.399  -6.422  29.443  0.00  0.00    +0.074 C 
ATOM      6  N   UNL     1      14.514  -7.238  29.495  0.00  0.00    -0.262 NA
ATOM     18  C   UNL     1      13.952  -7.541  30.018  0.00  0.00    +0.151 C 
ATOM     19  C   UNL     1      13.895  -8.341  30.211  0.00  0.00    +0.257 C 
ATOM     20  O   UNL     1      14.443  -8.838  29.843  0.00  0.00    -0.272 OA
ATOM     21  N   UNL     1      13.364  -8.712  30.721  0.00  0.00    -0.203 NA
ATOM     22  C   UNL     1      12.757  -8.372  31.166  0.00  0.00    +0.131 C 
ATOM     23  C   UNL     1      12.533  -7.579  31.210  0.00  0.00    +0.080 C 
ENDROOT
BRANCH   6   7
ATOM      7  C   UNL     1      15.088  -7.674  29.094  0.00  0.00    +0.100 C 
BRANCH   7   8
ATOM      8  C   UNL     1      15.492  -7.338  28.458  0.00  0.00    -0.006 A 
ATOM      9  C   UNL     1      15.162  -7.356  27.703  0.00  0.00    -0.002 A 
ATOM     10  C   UNL     1      15.566  -7.019  27.068  0.00  0.00    +0.018 A 
ATOM     11  C   UNL     1      16.300  -6.664  27.187  0.00  0.00    +0.106 A 
ATOM     12  C   UNL     1      16.630  -6.645  27.944  0.00  0.00    +0.018 A 
ATOM     13  C   UNL     1      16.227  -6.982  28.578  0.00  0.00    -0.002 A 
BRANCH  11  14
ATOM     14  S   UNL     1      16.704  -6.327  26.553  0.00  0.00    +0.010 S 
ATOM     15  C   UNL     1      17.109  -5.988  25.919  0.00  0.00    +0.182 C 
ATOM     16  O   UNL     1      16.666  -5.589  26.920  0.00  0.00    -0.169 OA
ATOM     17  O   UNL     1      16.744  -7.064  26.185  0.00  0.00    -0.169 OA
ENDBRANCH  11  14
ENDBRANCH   7   8
ENDBRANCH   6   7
BRANCH  23  24
ATOM     24  C   UNL     1      11.898  -7.415  31.711  0.00  0.00    +0.027 C 
BRANCH  24  25
ATOM     25  C   UNL     1      11.295  -7.970  31.808  0.00  0.00    +0.087 C 
BRANCH  25  26
ATOM     26  C   UNL     1      10.658  -7.803  32.306  0.00  0.00    +0.226 C 
ATOM     27  O   UNL     1      10.663  -7.120  32.768  0.00  0.00    -0.275 OA
ATOM     28  N   UNL     1      10.017  -8.321  32.341  0.00  0.00    -0.274 N 
ATOM     29  C   UNL     1       9.380  -8.155  32.839  0.00  0.00    +0.125 C 
ATOM     30  C   UNL     1       8.738  -8.673  32.873  0.00  0.00    +0.164 C 
ATOM     31  O   UNL     1       8.734  -9.356  32.411  0.00  0.00    -0.350 OA
ATOM     32  C   UNL     1       9.370  -9.522  31.913  0.00  0.00    +0.164 C 
ATOM     33  C   UNL     1      10.012  -9.004  31.879  0.00  0.00    +0.125 C 
ENDBRANCH  25  26
ENDBRANCH  24  25
ENDBRANCH  23  24
TORSDOF 6
ENDMDL
