MODEL 1
REMARK VINA RESULT:     -10.1      0.000      0.000
REMARK  Name = 
REMARK  2 active torsions:
REMARK  status: ('A' for Active; 'I' for Inactive)
REMARK    1  A    between atoms: N_6  and  C_7
REMARK    2  A    between atoms: C_7  and  C_8
REMARK                            x       y       z     vdW  Elec       q    Type
REMARK                         _______ _______ _______ _____ _____    ______ ____
ROOT
ATOM      1  C   UNL     1      -3.928   3.431  23.868  0.00  0.00    +0.117 C 
ATOM      2  N   UNL     1      -3.768   2.673  24.150  0.00  0.00    -0.261 N 
ATOM      3  C   UNL     1      -4.329   2.116  24.388  0.00  0.00    +0.116 C 
ATOM      4  C   UNL     1      -3.927   1.437  24.628  0.00  0.00    +0.113 C 
ATOM      5  C   UNL     1      -4.193   0.711  24.917  0.00  0.00    +0.094 C 
ATOM      6  N   UNL     1      -3.651   0.123  25.116  0.00  0.00    -0.266 NA
ATOM     14  C   UNL     1      -2.842   0.260  25.027  0.00  0.00    +0.094 C 
ATOM     15  C   UNL     1      -2.575   0.985  24.738  0.00  0.00    +0.112 C 
ATOM     16  N   UNL     1      -3.119   1.574  24.538  0.00  0.00    -0.261 N 
ATOM     17  C   UNL     1      -3.020   2.337  24.243  0.00  0.00    +0.307 C 
ATOM     18  O   UNL     1      -2.300   2.702  24.071  0.00  0.00    -0.252 OA
ENDROOT
BRANCH   6   7
ATOM      7  C   UNL     1      -3.916  -0.603  25.405  0.00  0.00    +0.099 C 
BRANCH   7   8
ATOM      8  C   UNL     1      -3.838  -1.284  24.947  0.00  0.00    -0.006 A 
ATOM      9  C   UNL     1      -4.306  -1.386  24.275  0.00  0.00    -0.003 A 
ATOM     10  C   UNL     1      -4.228  -2.067  23.817  0.00  0.00    -0.000 A 
ATOM     11  C   UNL     1      -3.680  -2.646  24.030  0.00  0.00    -0.000 A 
ATOM     12  C   UNL     1      -3.212  -2.545  24.701  0.00  0.00    -0.000 A 
ATOM     13  C   UNL     1      -3.291  -1.864  25.160  0.00  0.00    -0.003 A 
ENDBRANCH   7   8
ENDBRANCH   6   7
TORSDOF 2
ENDMDL
MODEL 2
REMARK VINA RESULT:     -10.0      1.137      1.942
REMARK  Name = 
REMARK  2 active torsions:
REMARK  status: ('A' for Active; 'I' for Inactive)
REMARK    1  A    between atoms: N_6  and  C_7
REMARK    2  A    between atoms: C_7  and  C_8
REMARK                            x       y       z     vdW  Elec       q    Type
REMARK                         _______ _______ _______ _____ _____    ______ ____
ROOT
ATOM      1  C   UNL     1       0.015   1.689  24.457  0.00  0.00    +0.117 C 
ATOM      2  N   UNL     1      -0.751   1.388  24.505  0.00  0.00    -0.261 N 
ATOM      3  C   UNL     1      -0.990   0.740  24.956  0.00  0.00    +0.116 C 
ATOM      4  C   UNL     1      -1.800   0.634  24.840  0.00  0.00    +0.113 C 
ATOM      5  C   UNL     1      -2.333   0.082  25.143  0.00  0.00    +0.094 C 
ATOM      6  N   UNL     1      -3.127   0.112  24.924  0.00  0.00    -0.266 NA
ATOM     14  C   UNL     1      -3.389   0.695  24.401  0.00  0.00    +0.094 C 
ATOM     15  C   UNL     1      -2.856   1.247  24.098  0.00  0.00    +0.112 C 
ATOM     16  N   UNL     1      -2.061   1.216  24.318  0.00  0.00    -0.261 N 
ATOM     17  C   UNL     1      -1.413   1.682  24.111  0.00  0.00    +0.307 C 
ATOM     18  O   UNL     1      -1.425   2.329  23.599  0.00  0.00    -0.252 OA
ENDROOT
BRANCH   6   7
ATOM      7  C   UNL     1      -3.661  -0.440  25.226  0.00  0.00    +0.099 C 
BRANCH   7   8
ATOM      8  C   UNL     1      -3.734  -1.181  24.873  0.00  0.00    -0.006 A 
ATOM      9  C   UNL     1      -3.352  -1.834  25.201  0.00  0.00    -0.003 A 
ATOM     10  C   UNL     1      -3.425  -2.576  24.847  0.00  0.00    -0.000 A 
ATOM     11  C   UNL     1      -3.880  -2.664  24.165  0.00  0.00    -0.000 A 
ATOM     12  C   UNL     1      -4.262  -2.011  23.836  0.00  0.00    -0.000 A 
ATOM     13  C   UNL     1      -4.189  -1.269  24.191  0.00  0.00    -0.003 A 
ENDBRANCH   7   8
ENDBRANCH   6   7
TORSDOF 2
ENDMDL
MODEL 3
REMARK VINA RESULT:      -9.2      2.477      3.656
REMARK  Name = 
REMARK  2 active torsions:
REMARK  status: ('A' for Active; 'I' for Inactive)
REMARK    1  A    between atoms: N_6  and  C_7
REMARK    2  A    between atoms: C_7  and  C_8
REMARK                            x       y       z     vdW  Elec       q    Type
REMARK                         _______ _______ _______ _____ _____    ______ ____
ROOT
ATOM      1  C   UNL     1       0.079   2.460  26.150  0.00  0.00    +0.117 C 
ATOM      2  N   UNL     1      -0.635   2.347  25.753  0.00  0.00    -0.261 N 
ATOM      3  C   UNL     1      -1.218   2.918  25.631  0.00  0.00    +0.116 C 
ATOM      4  C   UNL     1      -1.834   2.567  25.211  0.00  0.00    +0.113 C 
ATOM      5  C   UNL     1      -2.554   2.862  24.935  0.00  0.00    +0.094 C 
ATOM      6  N   UNL     1      -3.071   2.370  24.523  0.00  0.00    -0.266 NA
ATOM     14  C   UNL     1      -2.870   1.582  24.385  0.00  0.00    +0.094 C 
ATOM     15  C   UNL     1      -2.151   1.286  24.660  0.00  0.00    +0.112 C 
ATOM     16  N   UNL     1      -1.633   1.779  25.073  0.00  0.00    -0.261 N 
ATOM     17  C   UNL     1      -0.892   1.643  25.408  0.00  0.00    +0.307 C 
ATOM     18  O   UNL     1      -0.479   0.928  25.400  0.00  0.00    -0.252 OA
ENDROOT
BRANCH   6   7
ATOM      7  C   UNL     1      -3.791   2.666  24.247  0.00  0.00    +0.099 C 
BRANCH   7   8
ATOM      8  C   UNL     1      -4.473   2.584  24.703  0.00  0.00    -0.006 A 
ATOM      9  C   UNL     1      -4.932   1.901  24.642  0.00  0.00    -0.003 A 
ATOM     10  C   UNL     1      -5.614   1.819  25.098  0.00  0.00    -0.000 A 
ATOM     11  C   UNL     1      -5.837   2.421  25.617  0.00  0.00    -0.000 A 
ATOM     12  C   UNL     1      -5.379   3.104  25.679  0.00  0.00    -0.000 A 
ATOM     13  C   UNL     1      -4.696   3.185  25.222  0.00  0.00    -0.003 A 
ENDBRANCH   7   8
ENDBRANCH   6   7
TORSDOF 2
ENDMDL
