MODEL 1
REMARK VINA RESULT:     -12.1      0.000      0.000
REMARK  Name = 
REMARK  7 active torsions:
REMARK  status: ('A' for Active; 'I' for Inactive)
REMARK    1  A    between atoms: O_2  and  C_3
REMARK    2  A    between atoms: C_8  and  O_9
REMARK    3  A    between atoms: C_11  and  C_12
REMARK    4  A    between atoms: C_12  and  C_13
REMARK    5  A    between atoms: C_18  and  C_19
REMARK    6  A    between atoms: C_19  and  C_20
REMARK    7  A    between atoms: N_25  and  C_26
REMARK                            x       y       z     vdW  Elec       q    Type
REMARK                         _______ _______ _______ _____ _____    ______ ____
ROOT
ATOM     13  C   UNL     1      -3.819   2.129  24.859  0.00  0.00    +0.026 C 
ATOM     14  C   UNL     1      -3.814   1.308  24.786  0.00  0.00    +0.095 C 
ATOM     15  N   UNL     1      -4.504   0.877  24.929  0.00  0.00    -0.263 N 
ATOM     16  C   UNL     1      -5.196   1.268  25.146  0.00  0.00    +0.095 C 
ATOM     17  C   UNL     1      -5.201   2.089  25.219  0.00  0.00    +0.022 C 
ATOM     18  C   UNL     1      -4.512   2.520  25.076  0.00  0.00    +0.015 C 
ATOM     23  C   UNL     1      -4.499   0.055  24.856  0.00  0.00    +0.327 C 
ATOM     24  O   UNL     1      -5.188  -0.375  24.999  0.00  0.00    -0.250 OA
ATOM     25  N   UNL     1      -3.805  -0.336  24.639  0.00  0.00    -0.162 NA
ENDROOT
BRANCH  25  26
ATOM     26  C   UNL     1      -3.801  -1.157  24.566  0.00  0.00    +0.075 A 
ATOM     27  C   UNL     1      -4.108  -1.513  23.888  0.00  0.00    +0.019 A 
ATOM     28  C   UNL     1      -4.103  -2.335  23.814  0.00  0.00    +0.031 A 
ATOM     29  C   UNL     1      -3.792  -2.802  24.419  0.00  0.00    +0.140 A 
ATOM     30  F   UNL     1      -3.787  -3.623  24.345  0.00  0.00    -0.204 F 
ATOM     31  C   UNL     1      -3.485  -2.446  25.098  0.00  0.00    +0.031 A 
ATOM     32  C   UNL     1      -3.489  -1.624  25.171  0.00  0.00    +0.019 A 
ENDBRANCH  25  26
BRANCH  13  12
ATOM     12  C   UNL     1      -3.130   2.560  24.716  0.00  0.00    +0.047 C 
BRANCH  12  11
ATOM      3  C   UNL     1      -0.225   2.029  24.356  0.00  0.00    +0.172 A 
ATOM      4  C   UNL     1      -0.564   1.966  23.606  0.00  0.00    +0.036 A 
ATOM      5  C   UNL     1      -1.375   2.083  23.508  0.00  0.00    -0.016 A 
ATOM      6  C   UNL     1      -1.848   2.263  24.161  0.00  0.00    +0.012 A 
ATOM      7  C   UNL     1      -1.508   2.326  24.911  0.00  0.00    +0.041 A 
ATOM      8  C   UNL     1      -0.697   2.209  25.009  0.00  0.00    +0.172 A 
ATOM     11  C   UNL     1      -2.658   2.380  24.064  0.00  0.00    +0.054 C 
ATOM     33  N   UNL     1      -2.997   2.317  23.315  0.00  0.00    -0.274 NA
ATOM     34  C   UNL     1      -2.524   2.136  22.662  0.00  0.00    +0.130 C 
ATOM     35  C   UNL     1      -1.714   2.020  22.759  0.00  0.00    +0.053 C 
BRANCH   3   2
ATOM      1  C   UNL     1       1.009   1.474  23.898  0.00  0.00    +0.253 C 
ATOM      2  O   UNL     1       0.586   1.912  24.453  0.00  0.00    -0.468 OA
ENDBRANCH   3   2
BRANCH   8   9
ATOM      9  O   UNL     1      -0.359   2.272  25.758  0.00  0.00    -0.468 OA
ATOM     10  C   UNL     1      -0.574   2.892  26.257  0.00  0.00    +0.253 C 
ENDBRANCH   8   9
ENDBRANCH  12  11
ENDBRANCH  13  12
BRANCH  18  19
ATOM     19  C   UNL     1      -4.517   3.342  25.149  0.00  0.00    +0.114 C 
BRANCH  19  20
ATOM     20  C   UNL     1      -5.049   3.707  25.662  0.00  0.00    +0.365 C 
ATOM     21  O   UNL     1      -4.871   3.772  26.465  0.00  0.00    -0.246 OA
ATOM     22  O   UNL     1      -5.762   4.008  25.372  0.00  0.00    -0.246 OA
ENDBRANCH  19  20
ENDBRANCH  18  19
TORSDOF 7
ENDMDL
MODEL 2
REMARK VINA RESULT:     -11.7      1.289      3.586
REMARK  Name = 
REMARK  7 active torsions:
REMARK  status: ('A' for Active; 'I' for Inactive)
REMARK    1  A    between atoms: O_2  and  C_3
REMARK    2  A    between atoms: C_8  and  O_9
REMARK    3  A    between atoms: C_11  and  C_12
REMARK    4  A    between atoms: C_12  and  C_13
REMARK    5  A    between atoms: C_18  and  C_19
REMARK    6  A    between atoms: C_19  and  C_20
REMARK    7  A    between atoms: N_25  and  C_26
REMARK                            x       y       z     vdW  Elec       q    Type
REMARK                         _______ _______ _______ _____ _____    ______ ____
ROOT
ATOM     13  C   UNL     1      -1.430   1.470  24.483  0.00  0.00    +0.026 C 
ATOM     14  C   UNL     1      -1.838   0.754  24.492  0.00  0.00    +0.095 C 
ATOM     15  N   UNL     1      -1.427   0.043  24.404  0.00  0.00    -0.263 N 
ATOM     16  C   UNL     1      -0.608   0.051  24.307  0.00  0.00    +0.095 C 
ATOM     17  C   UNL     1      -0.200   0.766  24.298  0.00  0.00    +0.022 C 
ATOM     18  C   UNL     1      -0.610   1.477  24.386  0.00  0.00    +0.015 C 
ATOM     23  C   UNL     1      -1.836  -0.673  24.413  0.00  0.00    +0.327 C 
ATOM     24  O   UNL     1      -1.425  -1.383  24.325  0.00  0.00    -0.250 OA
ATOM     25  N   UNL     1      -2.655  -0.679  24.510  0.00  0.00    -0.162 NA
ENDROOT
BRANCH  25  26
ATOM     26  C   UNL     1      -3.064  -1.396  24.520  0.00  0.00    +0.075 A 
ATOM     27  C   UNL     1      -2.969  -1.917  25.152  0.00  0.00    +0.019 A 
ATOM     28  C   UNL     1      -3.378  -2.634  25.161  0.00  0.00    +0.031 A 
ATOM     29  C   UNL     1      -3.882  -2.830  24.538  0.00  0.00    +0.140 A 
ATOM     30  F   UNL     1      -4.290  -3.546  24.547  0.00  0.00    -0.204 F 
ATOM     31  C   UNL     1      -3.977  -2.308  23.905  0.00  0.00    +0.031 A 
ATOM     32  C   UNL     1      -3.568  -1.592  23.896  0.00  0.00    +0.019 A 
ENDBRANCH  25  26
BRANCH  13  12
ATOM     12  C   UNL     1      -1.840   2.180  24.570  0.00  0.00    +0.047 C 
BRANCH  12  11
ATOM      3  C   UNL     1      -4.411   3.577  25.110  0.00  0.00    +0.172 A 
ATOM      4  C   UNL     1      -4.457   3.303  24.333  0.00  0.00    +0.036 A 
ATOM      5  C   UNL     1      -3.827   2.885  24.003  0.00  0.00    -0.016 A 
ATOM      6  C   UNL     1      -3.148   2.741  24.452  0.00  0.00    +0.012 A 
ATOM      7  C   UNL     1      -3.102   3.016  25.229  0.00  0.00    +0.041 A 
ATOM      8  C   UNL     1      -3.732   3.433  25.558  0.00  0.00    +0.172 A 
ATOM     11  C   UNL     1      -2.518   2.324  24.123  0.00  0.00    +0.054 C 
ATOM     33  N   UNL     1      -2.564   2.051  23.346  0.00  0.00    -0.274 NA
ATOM     34  C   UNL     1      -3.243   2.195  22.898  0.00  0.00    +0.130 C 
ATOM     35  C   UNL     1      -3.873   2.612  23.227  0.00  0.00    +0.053 C 
BRANCH   3   2
ATOM      1  C   UNL     1      -5.800   3.673  25.427  0.00  0.00    +0.253 C 
ATOM      2  O   UNL     1      -5.041   3.995  25.439  0.00  0.00    -0.468 OA
ENDBRANCH   3   2
BRANCH   8   9
ATOM      9  O   UNL     1      -3.686   3.707  26.334  0.00  0.00    -0.468 OA
ATOM     10  C   UNL     1      -3.015   4.113  26.589  0.00  0.00    +0.253 C 
ENDBRANCH   8   9
ENDBRANCH  12  11
ENDBRANCH  13  12
BRANCH  18  19
ATOM     19  C   UNL     1      -0.201   2.193  24.376  0.00  0.00    +0.114 C 
BRANCH  19  20
ATOM     20  C   UNL     1       0.587   2.221  24.615  0.00  0.00    +0.365 C 
ATOM     21  O   UNL     1       1.191   2.115  24.063  0.00  0.00    -0.246 OA
ATOM     22  O   UNL     1       0.773   2.355  25.409  0.00  0.00    -0.246 OA
ENDBRANCH  19  20
ENDBRANCH  18  19
TORSDOF 7
ENDMDL
MODEL 3
REMARK VINA RESULT:     -10.2      1.733      2.189
REMARK  Name = 
REMARK  7 active torsions:
REMARK  status: ('A' for Active; 'I' for Inactive)
REMARK    1  A    between atoms: O_2  and  C_3
REMARK    2  A    between atoms: C_8  and  O_9
REMARK    3  A    between atoms: C_11  and  C_12
REMARK    4  A    between atoms: C_12  and  C_13
REMARK    5  A    between atoms: C_18  and  C_19
REMARK    6  A    between atoms: C_19  and  C_20
REMARK    7  A    between atoms: N_25  and  C_26
REMARK                            x       y       z     vdW  Elec       q    Type
REMARK                         _______ _______ _______ _____ _____    ______ ____
ROOT
ATOM     13  C   UNL     1      -4.107   1.518  24.795  0.00  0.00    +0.026 C 
ATOM     14  C   UNL     1      -3.548   0.918  24.874  0.00  0.00    +0.095 C 
ATOM     15  N   UNL     1      -3.790   0.146  25.035  0.00  0.00    -0.263 N 
ATOM     16  C   UNL     1      -4.593  -0.025  25.116  0.00  0.00    +0.095 C 
ATOM     17  C   UNL     1      -5.153   0.574  25.037  0.00  0.00    +0.022 C 
ATOM     18  C   UNL     1      -4.911   1.346  24.876  0.00  0.00    +0.015 C 
ATOM     23  C   UNL     1      -3.230  -0.455  25.115  0.00  0.00    +0.327 C 
ATOM     24  O   UNL     1      -3.473  -1.226  25.276  0.00  0.00    -0.250 OA
ATOM     25  N   UNL     1      -2.427  -0.283  25.034  0.00  0.00    -0.162 NA
ENDROOT
BRANCH  25  26
ATOM     26  C   UNL     1      -1.867  -0.883  25.114  0.00  0.00    +0.075 A 
ATOM     27  C   UNL     1      -1.303  -0.844  25.714  0.00  0.00    +0.019 A 
ATOM     28  C   UNL     1      -0.743  -1.445  25.794  0.00  0.00    +0.031 A 
ATOM     29  C   UNL     1      -0.746  -2.084  25.273  0.00  0.00    +0.140 A 
ATOM     30  F   UNL     1      -0.186  -2.685  25.353  0.00  0.00    -0.204 F 
ATOM     31  C   UNL     1      -1.311  -2.124  24.672  0.00  0.00    +0.031 A 
ATOM     32  C   UNL     1      -1.871  -1.523  24.592  0.00  0.00    +0.019 A 
ENDBRANCH  25  26
BRANCH  13  12
ATOM     12  C   UNL     1      -3.865   2.290  24.634  0.00  0.00    +0.047 C 
BRANCH  12  11
ATOM      3  C   UNL     1      -1.485   4.045  24.959  0.00  0.00    +0.172 A 
ATOM      4  C   UNL     1      -1.376   3.639  24.249  0.00  0.00    +0.036 A 
ATOM      5  C   UNL     1      -1.943   3.099  23.989  0.00  0.00    -0.016 A 
ATOM      6  C   UNL     1      -2.621   2.964  24.441  0.00  0.00    +0.012 A 
ATOM      7  C   UNL     1      -2.730   3.369  25.152  0.00  0.00    +0.041 A 
ATOM      8  C   UNL     1      -2.163   3.909  25.411  0.00  0.00    +0.172 A 
ATOM     11  C   UNL     1      -3.188   2.425  24.182  0.00  0.00    +0.054 C 
ATOM     33  N   UNL     1      -3.079   2.020  23.472  0.00  0.00    -0.274 NA
ATOM     34  C   UNL     1      -2.401   2.155  23.020  0.00  0.00    +0.130 C 
ATOM     35  C   UNL     1      -1.834   2.695  23.279  0.00  0.00    +0.053 C 
BRANCH   3   2
ATOM      1  C   UNL     1      -0.452   4.988  24.671  0.00  0.00    +0.253 C 
ATOM      2  O   UNL     1      -0.917   4.584  25.218  0.00  0.00    -0.468 OA
ENDBRANCH   3   2
BRANCH   8   9
ATOM      9  O   UNL     1      -2.272   4.314  26.121  0.00  0.00    -0.468 OA
ATOM     10  C   UNL     1      -3.008   4.305  26.492  0.00  0.00    +0.253 C 
ENDBRANCH   8   9
ENDBRANCH  12  11
ENDBRANCH  13  12
BRANCH  18  19
ATOM     19  C   UNL     1      -5.471   1.947  24.796  0.00  0.00    +0.114 C 
BRANCH  19  20
ATOM     20  C   UNL     1      -6.201   1.882  25.173  0.00  0.00    +0.365 C 
ATOM     21  O   UNL     1      -6.864   1.632  24.751  0.00  0.00    -0.246 OA
ATOM     22  O   UNL     1      -6.269   2.067  25.976  0.00  0.00    -0.246 OA
ENDBRANCH  19  20
ENDBRANCH  18  19
TORSDOF 7
ENDMDL
MODEL 4
REMARK VINA RESULT:     -10.2      1.962      4.816
REMARK  Name = 
REMARK  7 active torsions:
REMARK  status: ('A' for Active; 'I' for Inactive)
REMARK    1  A    between atoms: O_2  and  C_3
REMARK    2  A    between atoms: C_8  and  O_9
REMARK    3  A    between atoms: C_11  and  C_12
REMARK    4  A    between atoms: C_12  and  C_13
REMARK    5  A    between atoms: C_18  and  C_19
REMARK    6  A    between atoms: C_19  and  C_20
REMARK    7  A    between atoms: N_25  and  C_26
REMARK                            x       y       z     vdW  Elec       q    Type
REMARK                         _______ _______ _______ _____ _____    ______ ____
ROOT
ATOM     13  C   UNL     1      -3.497   0.163  24.642  0.00  0.00    +0.026 C 
ATOM     14  C   UNL     1      -2.830   0.563  24.914  0.00  0.00    +0.095 C 
ATOM     15  N   UNL     1      -2.126   0.152  25.042  0.00  0.00    -0.263 N 
ATOM     16  C   UNL     1      -2.091  -0.660  24.899  0.00  0.00    +0.095 C 
ATOM     17  C   UNL     1      -2.759  -1.060  24.628  0.00  0.00    +0.022 C 
ATOM     18  C   UNL     1      -3.462  -0.649  24.499  0.00  0.00    +0.015 C 
ATOM     23  C   UNL     1      -1.457   0.552  25.314  0.00  0.00    +0.327 C 
ATOM     24  O   UNL     1      -0.755   0.141  25.442  0.00  0.00    -0.250 OA
ATOM     25  N   UNL     1      -1.493   1.364  25.457  0.00  0.00    -0.162 NA
ENDROOT
BRANCH  25  26
ATOM     26  C   UNL     1      -0.825   1.764  25.729  0.00  0.00    +0.075 A 
ATOM     27  C   UNL     1      -0.302   2.107  25.191  0.00  0.00    +0.019 A 
ATOM     28  C   UNL     1       0.366   2.507  25.463  0.00  0.00    +0.031 A 
ATOM     29  C   UNL     1       0.512   2.565  26.272  0.00  0.00    +0.140 A 
ATOM     30  F   UNL     1       1.181   2.966  26.544  0.00  0.00    -0.204 F 
ATOM     31  C   UNL     1      -0.011   2.222  26.811  0.00  0.00    +0.031 A 
ATOM     32  C   UNL     1      -0.679   1.822  26.539  0.00  0.00    +0.019 A 
ENDBRANCH  25  26
BRANCH  13  12
ATOM     12  C   UNL     1      -4.201   0.574  24.514  0.00  0.00    +0.047 C 
BRANCH  12  11
ATOM      3  C   UNL     1      -5.446   3.120  25.420  0.00  0.00    +0.172 A 
ATOM      4  C   UNL     1      -5.004   3.307  24.749  0.00  0.00    +0.036 A 
ATOM      5  C   UNL     1      -4.582   2.718  24.354  0.00  0.00    -0.016 A 
ATOM      6  C   UNL     1      -4.602   1.940  24.631  0.00  0.00    +0.012 A 
ATOM      7  C   UNL     1      -5.044   1.753  25.303  0.00  0.00    +0.041 A 
ATOM      8  C   UNL     1      -5.466   2.342  25.698  0.00  0.00    +0.172 A 
ATOM     11  C   UNL     1      -4.181   1.351  24.237  0.00  0.00    +0.054 C 
ATOM     33  N   UNL     1      -3.740   1.538  23.566  0.00  0.00    -0.274 NA
ATOM     34  C   UNL     1      -3.720   2.316  23.289  0.00  0.00    +0.130 C 
ATOM     35  C   UNL     1      -4.141   2.905  23.683  0.00  0.00    +0.053 C 
BRANCH   3   2
ATOM      1  C   UNL     1      -5.834   4.488  25.549  0.00  0.00    +0.253 C 
ATOM      2  O   UNL     1      -5.867   3.709  25.815  0.00  0.00    -0.468 OA
ENDBRANCH   3   2
BRANCH   8   9
ATOM      9  O   UNL     1      -5.907   2.155  26.368  0.00  0.00    -0.468 OA
ATOM     10  C   UNL     1      -6.406   1.499  26.364  0.00  0.00    +0.253 C 
ENDBRANCH   8   9
ENDBRANCH  12  11
ENDBRANCH  13  12
BRANCH  18  19
ATOM     19  C   UNL     1      -4.130  -1.049  24.227  0.00  0.00    +0.114 C 
BRANCH  19  20
ATOM     20  C   UNL     1      -4.100  -1.863  24.100  0.00  0.00    +0.365 C 
ATOM     21  O   UNL     1      -4.099  -2.162  23.331  0.00  0.00    -0.246 OA
ATOM     22  O   UNL     1      -4.070  -2.381  24.743  0.00  0.00    -0.246 OA
ENDBRANCH  19  20
ENDBRANCH  18  19
TORSDOF 7
ENDMDL
MODEL 5
REMARK VINA RESULT:      -9.8      2.513      4.541
REMARK  Name = 
REMARK  7 active torsions:
REMARK  status: ('A' for Active; 'I' for Inactive)
REMARK    1  A    between atoms: O_2  and  C_3
REMARK    2  A    between atoms: C_8  and  O_9
REMARK    3  A    between atoms: C_11  and  C_12
REMARK    4  A    between atoms: C_12  and  C_13
REMARK    5  A    between atoms: C_18  and  C_19
REMARK    6  A    between atoms: C_19  and  C_20
REMARK    7  A    between atoms: N_25  and  C_26
REMARK                            x       y       z     vdW  Elec       q    Type
REMARK                         _______ _______ _______ _____ _____    ______ ____
ROOT
ATOM     13  C   UNL     1      -1.693   0.393  24.894  0.00  0.00    +0.026 C 
ATOM     14  C   UNL     1      -1.000   0.344  24.450  0.00  0.00    +0.095 C 
ATOM     15  N   UNL     1      -0.697  -0.394  24.238  0.00  0.00    -0.263 N 
ATOM     16  C   UNL     1      -1.088  -1.082  24.470  0.00  0.00    +0.095 C 
ATOM     17  C   UNL     1      -1.780  -1.034  24.913  0.00  0.00    +0.022 C 
ATOM     18  C   UNL     1      -2.084  -0.297  25.126  0.00  0.00    +0.015 C 
ATOM     23  C   UNL     1      -0.003  -0.443  23.794  0.00  0.00    +0.327 C 
ATOM     24  O   UNL     1       0.300  -1.180  23.582  0.00  0.00    -0.250 OA
ATOM     25  N   UNL     1       0.387   0.247  23.563  0.00  0.00    -0.162 NA
ENDROOT
BRANCH  25  26
ATOM     26  C   UNL     1       1.081   0.198  23.119  0.00  0.00    +0.075 A 
ATOM     27  C   UNL     1       1.785   0.506  23.418  0.00  0.00    +0.019 A 
ATOM     28  C   UNL     1       2.479   0.457  22.974  0.00  0.00    +0.031 A 
ATOM     29  C   UNL     1       2.469   0.101  22.230  0.00  0.00    +0.140 A 
ATOM     30  F   UNL     1       3.163   0.052  21.786  0.00  0.00    -0.204 F 
ATOM     31  C   UNL     1       1.764  -0.208  21.930  0.00  0.00    +0.031 A 
ATOM     32  C   UNL     1       1.071  -0.159  22.374  0.00  0.00    +0.019 A 
ENDBRANCH  25  26
BRANCH  13  12
ATOM     12  C   UNL     1      -1.996   1.129  25.106  0.00  0.00    +0.047 C 
BRANCH  12  11
ATOM      3  C   UNL     1      -1.983   4.105  25.100  0.00  0.00    +0.172 A 
ATOM      4  C   UNL     1      -1.327   3.873  25.545  0.00  0.00    +0.036 A 
ATOM      5  C   UNL     1      -1.166   3.072  25.659  0.00  0.00    -0.016 A 
ATOM      6  C   UNL     1      -1.662   2.501  25.326  0.00  0.00    +0.012 A 
ATOM      7  C   UNL     1      -2.317   2.732  24.881  0.00  0.00    +0.041 A 
ATOM      8  C   UNL     1      -2.478   3.534  24.768  0.00  0.00    +0.172 A 
ATOM     11  C   UNL     1      -1.502   1.700  25.439  0.00  0.00    +0.054 C 
ATOM     33  N   UNL     1      -0.847   1.469  25.883  0.00  0.00    -0.274 NA
ATOM     34  C   UNL     1      -0.352   2.040  26.216  0.00  0.00    +0.130 C 
ATOM     35  C   UNL     1      -0.512   2.841  26.103  0.00  0.00    +0.053 C 
BRANCH   3   2
ATOM      1  C   UNL     1      -1.542   5.463  25.075  0.00  0.00    +0.253 C 
ATOM      2  O   UNL     1      -2.143   4.906  24.988  0.00  0.00    -0.468 OA
ENDBRANCH   3   2
BRANCH   8   9
ATOM      9  O   UNL     1      -3.133   3.765  24.323  0.00  0.00    -0.468 OA
ATOM     10  C   UNL     1      -3.825   3.317  24.344  0.00  0.00    +0.253 C 
ENDBRANCH   8   9
ENDBRANCH  12  11
ENDBRANCH  13  12
BRANCH  18  19
ATOM     19  C   UNL     1      -2.778  -0.248  25.570  0.00  0.00    +0.114 C 
BRANCH  19  20
ATOM     20  C   UNL     1      -3.292  -0.891  25.602  0.00  0.00    +0.365 C 
ATOM     21  O   UNL     1      -3.240  -1.432  26.223  0.00  0.00    -0.246 OA
ATOM     22  O   UNL     1      -3.861  -0.995  25.012  0.00  0.00    -0.246 OA
ENDBRANCH  19  20
ENDBRANCH  18  19
TORSDOF 7
ENDMDL
MODEL 6
REMARK VINA RESULT:      -9.5      1.964      3.980
REMARK  Name = 
REMARK  7 active torsions:
REMARK  status: ('A' for Active; 'I' for Inactive)
REMARK    1  A    between atoms: O_2  and  C_3
REMARK    2  A    between atoms: C_8  and  O_9
REMARK    3  A    between atoms: C_11  and  C_12
REMARK    4  A    between atoms: C_12  and  C_13
REMARK    5  A    between atoms: C_18  and  C_19
REMARK    6  A    between atoms: C_19  and  C_20
REMARK    7  A    between atoms: N_25  and  C_26
REMARK                            x       y       z     vdW  Elec       q    Type
REMARK                         _______ _______ _______ _____ _____    ______ ____
ROOT
ATOM     13  C   UNL     1      -1.832   3.178  24.924  0.00  0.00    +0.026 C 
ATOM     14  C   UNL     1      -1.641   2.379  24.992  0.00  0.00    +0.095 C 
ATOM     15  N   UNL     1      -0.857   2.150  25.112  0.00  0.00    -0.263 N 
ATOM     16  C   UNL     1      -0.265   2.722  25.164  0.00  0.00    +0.095 C 
ATOM     17  C   UNL     1      -0.455   3.521  25.096  0.00  0.00    +0.022 C 
ATOM     18  C   UNL     1      -1.239   3.750  24.976  0.00  0.00    +0.015 C 
ATOM     23  C   UNL     1      -0.666   1.351  25.180  0.00  0.00    +0.327 C 
ATOM     24  O   UNL     1       0.117   1.123  25.300  0.00  0.00    -0.250 OA
ATOM     25  N   UNL     1      -1.260   0.780  25.128  0.00  0.00    -0.162 NA
ENDROOT
BRANCH  25  26
ATOM     26  C   UNL     1      -1.069  -0.020  25.196  0.00  0.00    +0.075 A 
ATOM     27  C   UNL     1      -0.723  -0.418  24.562  0.00  0.00    +0.019 A 
ATOM     28  C   UNL     1      -0.532  -1.217  24.630  0.00  0.00    +0.031 A 
ATOM     29  C   UNL     1      -0.687  -1.621  25.332  0.00  0.00    +0.140 A 
ATOM     30  F   UNL     1      -0.496  -2.420  25.400  0.00  0.00    -0.204 F 
ATOM     31  C   UNL     1      -1.034  -1.223  25.968  0.00  0.00    +0.031 A 
ATOM     32  C   UNL     1      -1.225  -0.424  25.900  0.00  0.00    +0.019 A 
ENDBRANCH  25  26
BRANCH  13  12
ATOM     12  C   UNL     1      -2.615   3.407  24.804  0.00  0.00    +0.047 C 
BRANCH  12  11
ATOM      3  C   UNL     1      -5.407   2.400  25.011  0.00  0.00    +0.172 A 
ATOM      4  C   UNL     1      -5.126   2.148  24.277  0.00  0.00    +0.036 A 
ATOM      5  C   UNL     1      -4.358   2.336  24.041  0.00  0.00    -0.016 A 
ATOM      6  C   UNL     1      -3.870   2.777  24.541  0.00  0.00    +0.012 A 
ATOM      7  C   UNL     1      -4.151   3.029  25.274  0.00  0.00    +0.041 A 
ATOM      8  C   UNL     1      -4.919   2.841  25.510  0.00  0.00    +0.172 A 
ATOM     11  C   UNL     1      -3.103   2.966  24.306  0.00  0.00    +0.054 C 
ATOM     33  N   UNL     1      -2.822   2.714  23.572  0.00  0.00    -0.274 NA
ATOM     34  C   UNL     1      -3.310   2.273  23.073  0.00  0.00    +0.130 C 
ATOM     35  C   UNL     1      -4.078   2.084  23.308  0.00  0.00    +0.053 C 
BRANCH   3   2
ATOM      1  C   UNL     1      -6.577   1.590  24.883  0.00  0.00    +0.253 C 
ATOM      2  O   UNL     1      -6.175   2.211  25.246  0.00  0.00    -0.468 OA
ENDBRANCH   3   2
BRANCH   8   9
ATOM      9  O   UNL     1      -5.200   3.093  26.243  0.00  0.00    -0.468 OA
ATOM     10  C   UNL     1      -5.016   3.848  26.518  0.00  0.00    +0.253 C 
ENDBRANCH   8   9
ENDBRANCH  12  11
ENDBRANCH  13  12
BRANCH  18  19
ATOM     19  C   UNL     1      -1.430   4.550  24.908  0.00  0.00    +0.114 C 
BRANCH  19  20
ATOM     20  C   UNL     1      -0.837   5.103  24.758  0.00  0.00    +0.365 C 
ATOM     21  O   UNL     1      -0.627   5.651  25.338  0.00  0.00    -0.246 OA
ATOM     22  O   UNL     1      -0.454   5.109  24.026  0.00  0.00    -0.246 OA
ENDBRANCH  19  20
ENDBRANCH  18  19
TORSDOF 7
ENDMDL
MODEL 7
REMARK VINA RESULT:      -9.5      2.554      4.289
REMARK  Name = 
REMARK  7 active torsions:
REMARK  status: ('A' for Active; 'I' for Inactive)
REMARK    1  A    between atoms: O_2  and  C_3
REMARK    2  A    between atoms: C_8  and  O_9
REMARK    3  A    between atoms: C_11  and  C_12
REMARK    4  A    between atoms: C_12  and  C_13
REMARK    5  A    between atoms: C_18  and  C_19
REMARK    6  A    between atoms: C_19  and  C_20
REMARK    7  A    between atoms: N_25  and  C_26
REMARK                            x       y       z     vdW  Elec       q    Type
REMARK                         _______ _______ _______ _____ _____    ______ ____
ROOT
ATOM     13  C   UNL     1      -4.307   1.795  25.008  0.00  0.00    +0.026 C 
ATOM     14  C   UNL     1      -3.705   2.358  25.006  0.00  0.00    +0.095 C 
ATOM     15  N   UNL     1      -3.881   3.151  25.156  0.00  0.00    -0.263 N 
ATOM     16  C   UNL     1      -4.659   3.378  25.309  0.00  0.00    +0.095 C 
ATOM     17  C   UNL     1      -5.261   2.815  25.311  0.00  0.00    +0.022 C 
ATOM     18  C   UNL     1      -5.085   2.023  25.161  0.00  0.00    +0.015 C 
ATOM     23  C   UNL     1      -3.279   3.714  25.153  0.00  0.00    +0.327 C 
ATOM     24  O   UNL     1      -3.454   4.506  25.303  0.00  0.00    -0.250 OA
ATOM     25  N   UNL     1      -2.501   3.486  25.000  0.00  0.00    -0.162 NA
ENDROOT
BRANCH  25  26
ATOM     26  C   UNL     1      -1.899   4.049  24.998  0.00  0.00    +0.075 A 
ATOM     27  C   UNL     1      -2.084   4.852  25.041  0.00  0.00    +0.019 A 
ATOM     28  C   UNL     1      -1.482   5.416  25.038  0.00  0.00    +0.031 A 
ATOM     29  C   UNL     1      -0.693   5.178  24.992  0.00  0.00    +0.140 A 
ATOM     30  F   UNL     1      -0.091   5.742  24.990  0.00  0.00    -0.204 F 
ATOM     31  C   UNL     1      -0.507   4.374  24.949  0.00  0.00    +0.031 A 
ATOM     32  C   UNL     1      -1.109   3.811  24.952  0.00  0.00    +0.019 A 
ENDBRANCH  25  26
BRANCH  13  12
ATOM     12  C   UNL     1      -4.132   1.003  24.858  0.00  0.00    +0.047 C 
BRANCH  12  11
ATOM      3  C   UNL     1      -1.881  -0.942  24.935  0.00  0.00    +0.172 A 
ATOM      4  C   UNL     1      -1.826  -0.556  24.208  0.00  0.00    +0.036 A 
ATOM      5  C   UNL     1      -2.375   0.027  24.006  0.00  0.00    -0.016 A 
ATOM      6  C   UNL     1      -2.980   0.224  24.533  0.00  0.00    +0.012 A 
ATOM      7  C   UNL     1      -3.034  -0.162  25.260  0.00  0.00    +0.041 A 
ATOM      8  C   UNL     1      -2.486  -0.744  25.462  0.00  0.00    +0.172 A 
ATOM     11  C   UNL     1      -3.528   0.806  24.332  0.00  0.00    +0.054 C 
ATOM     33  N   UNL     1      -3.473   1.191  23.605  0.00  0.00    -0.274 NA
ATOM     34  C   UNL     1      -2.868   0.994  23.078  0.00  0.00    +0.130 C 
ATOM     35  C   UNL     1      -2.320   0.412  23.279  0.00  0.00    +0.053 C 
BRANCH   3   2
ATOM      1  C   UNL     1      -0.569  -1.495  24.827  0.00  0.00    +0.253 C 
ATOM      2  O   UNL     1      -1.333  -1.523  25.136  0.00  0.00    -0.468 OA
ENDBRANCH   3   2
BRANCH   8   9
ATOM      9  O   UNL     1      -2.541  -1.130  26.189  0.00  0.00    -0.468 OA
ATOM     10  C   UNL     1      -3.259  -1.455  26.430  0.00  0.00    +0.253 C 
ENDBRANCH   8   9
ENDBRANCH  12  11
ENDBRANCH  13  12
BRANCH  18  19
ATOM     19  C   UNL     1      -5.688   1.459  25.164  0.00  0.00    +0.114 C 
BRANCH  19  20
ATOM     20  C   UNL     1      -6.460   1.682  25.346  0.00  0.00    +0.365 C 
ATOM     21  O   UNL     1      -6.701   1.732  26.133  0.00  0.00    -0.246 OA
ATOM     22  O   UNL     1      -6.993   1.856  24.739  0.00  0.00    -0.246 OA
ENDBRANCH  19  20
ENDBRANCH  18  19
TORSDOF 7
ENDMDL
MODEL 8
REMARK VINA RESULT:      -9.3      2.040      3.659
REMARK  Name = 
REMARK  7 active torsions:
REMARK  status: ('A' for Active; 'I' for Inactive)
REMARK    1  A    between atoms: O_2  and  C_3
REMARK    2  A    between atoms: C_8  and  O_9
REMARK    3  A    between atoms: C_11  and  C_12
REMARK    4  A    between atoms: C_12  and  C_13
REMARK    5  A    between atoms: C_18  and  C_19
REMARK    6  A    between atoms: C_19  and  C_20
REMARK    7  A    between atoms: N_25  and  C_26
REMARK                            x       y       z     vdW  Elec       q    Type
REMARK                         _______ _______ _______ _____ _____    ______ ____
ROOT
ATOM     13  C   UNL     1      -1.830   0.122  24.853  0.00  0.00    +0.026 C 
ATOM     14  C   UNL     1      -2.594   0.421  24.928  0.00  0.00    +0.095 C 
ATOM     15  N   UNL     1      -3.229  -0.093  25.046  0.00  0.00    -0.263 N 
ATOM     16  C   UNL     1      -3.098  -0.906  25.088  0.00  0.00    +0.095 C 
ATOM     17  C   UNL     1      -2.334  -1.206  25.013  0.00  0.00    +0.022 C 
ATOM     18  C   UNL     1      -1.699  -0.692  24.895  0.00  0.00    +0.015 C 
ATOM     23  C   UNL     1      -3.994   0.207  25.122  0.00  0.00    +0.327 C 
ATOM     24  O   UNL     1      -4.628  -0.307  25.240  0.00  0.00    -0.250 OA
ATOM     25  N   UNL     1      -4.123   1.021  25.080  0.00  0.00    -0.162 NA
ENDROOT
BRANCH  25  26
ATOM     26  C   UNL     1      -4.888   1.320  25.155  0.00  0.00    +0.075 A 
ATOM     27  C   UNL     1      -5.384   1.359  24.497  0.00  0.00    +0.019 A 
ATOM     28  C   UNL     1      -6.149   1.658  24.573  0.00  0.00    +0.031 A 
ATOM     29  C   UNL     1      -6.419   1.920  25.307  0.00  0.00    +0.140 A 
ATOM     30  F   UNL     1      -7.184   2.220  25.382  0.00  0.00    -0.204 F 
ATOM     31  C   UNL     1      -5.923   1.882  25.966  0.00  0.00    +0.031 A 
ATOM     32  C   UNL     1      -5.158   1.582  25.890  0.00  0.00    +0.019 A 
ENDBRANCH  25  26
BRANCH  13  12
ATOM     12  C   UNL     1      -1.195   0.635  24.735  0.00  0.00    +0.047 C 
BRANCH  12  11
ATOM      3  C   UNL     1      -0.682   3.552  25.020  0.00  0.00    +0.172 A 
ATOM      4  C   UNL     1      -0.960   3.442  24.251  0.00  0.00    +0.036 A 
ATOM      5  C   UNL     1      -1.158   2.686  23.987  0.00  0.00    -0.016 A 
ATOM      6  C   UNL     1      -1.077   2.038  24.493  0.00  0.00    +0.012 A 
ATOM      7  C   UNL     1      -0.799   2.148  25.262  0.00  0.00    +0.041 A 
ATOM      8  C   UNL     1      -0.601   2.904  25.527  0.00  0.00    +0.172 A 
ATOM     11  C   UNL     1      -1.275   1.282  24.230  0.00  0.00    +0.054 C 
ATOM     33  N   UNL     1      -1.553   1.173  23.461  0.00  0.00    -0.274 NA
ATOM     34  C   UNL     1      -1.633   1.821  22.955  0.00  0.00    +0.130 C 
ATOM     35  C   UNL     1      -1.435   2.576  23.219  0.00  0.00    +0.053 C 
BRANCH   3   2
ATOM      1  C   UNL     1      -0.850   4.968  24.954  0.00  0.00    +0.253 C 
ATOM      2  O   UNL     1      -0.484   4.307  25.284  0.00  0.00    -0.468 OA
ENDBRANCH   3   2
BRANCH   8   9
ATOM      9  O   UNL     1      -0.324   3.013  26.295  0.00  0.00    -0.468 OA
ATOM     10  C   UNL     1       0.216   2.481  26.618  0.00  0.00    +0.253 C 
ENDBRANCH   8   9
ENDBRANCH  12  11
ENDBRANCH  13  12
BRANCH  18  19
ATOM     19  C   UNL     1      -0.934  -0.992  24.819  0.00  0.00    +0.114 C 
BRANCH  19  20
ATOM     20  C   UNL     1      -0.778  -1.778  25.015  0.00  0.00    +0.365 C 
ATOM     21  O   UNL     1      -1.002  -2.384  24.502  0.00  0.00    -0.246 OA
ATOM     22  O   UNL     1      -0.398  -1.958  25.726  0.00  0.00    -0.246 OA
ENDBRANCH  19  20
ENDBRANCH  18  19
TORSDOF 7
ENDMDL
MODEL 9
REMARK VINA RESULT:      -9.1      1.998      4.130
REMARK  Name = 
REMARK  7 active torsions:
REMARK  status: ('A' for Active; 'I' for Inactive)
REMARK    1  A    between atoms: O_2  and  C_3
REMARK    2  A    between atoms: C_8  and  O_9
REMARK    3  A    between atoms: C_11  and  C_12
REMARK    4  A    between atoms: C_12  and  C_13
REMARK    5  A    between atoms: C_18  and  C_19
REMARK    6  A    between atoms: C_19  and  C_20
REMARK    7  A    between atoms: N_25  and  C_26
REMARK                            x       y       z     vdW  Elec       q    Type
REMARK                         _______ _______ _______ _____ _____    ______ ____
ROOT
ATOM     13  C   UNL     1      -3.240  -0.599  24.389  0.00  0.00    +0.026 C 
ATOM     14  C   UNL     1      -3.600   0.119  24.572  0.00  0.00    +0.095 C 
ATOM     15  N   UNL     1      -4.420   0.159  24.662  0.00  0.00    -0.263 N 
ATOM     16  C   UNL     1      -4.878  -0.521  24.567  0.00  0.00    +0.095 C 
ATOM     17  C   UNL     1      -4.517  -1.239  24.383  0.00  0.00    +0.022 C 
ATOM     18  C   UNL     1      -3.698  -1.279  24.294  0.00  0.00    +0.015 C 
ATOM     23  C   UNL     1      -4.781   0.877  24.845  0.00  0.00    +0.327 C 
ATOM     24  O   UNL     1      -5.600   0.916  24.934  0.00  0.00    -0.250 OA
ATOM     25  N   UNL     1      -4.323   1.557  24.940  0.00  0.00    -0.162 NA
ENDROOT
BRANCH  25  26
ATOM     26  C   UNL     1      -4.684   2.275  25.124  0.00  0.00    +0.075 A 
ATOM     27  C   UNL     1      -5.178   2.333  25.782  0.00  0.00    +0.019 A 
ATOM     28  C   UNL     1      -5.539   3.052  25.965  0.00  0.00    +0.031 A 
ATOM     29  C   UNL     1      -5.406   3.713  25.491  0.00  0.00    +0.140 A 
ATOM     30  F   UNL     1      -5.767   4.432  25.675  0.00  0.00    -0.204 F 
ATOM     31  C   UNL     1      -4.912   3.656  24.833  0.00  0.00    +0.031 A 
ATOM     32  C   UNL     1      -4.551   2.938  24.649  0.00  0.00    +0.019 A 
ENDBRANCH  25  26
BRANCH  13  12
ATOM     12  C   UNL     1      -2.421  -0.638  24.300  0.00  0.00    +0.047 C 
BRANCH  12  11
ATOM      3  C   UNL     1      -0.317   1.460  24.450  0.00  0.00    +0.172 A 
ATOM      4  C   UNL     1      -0.359   1.123  25.202  0.00  0.00    +0.036 A 
ATOM      5  C   UNL     1      -0.895   0.515  25.353  0.00  0.00    -0.016 A 
ATOM      6  C   UNL     1      -1.390   0.242  24.751  0.00  0.00    +0.012 A 
ATOM      7  C   UNL     1      -1.348   0.579  23.999  0.00  0.00    +0.041 A 
ATOM      8  C   UNL     1      -0.812   1.188  23.848  0.00  0.00    +0.172 A 
ATOM     11  C   UNL     1      -1.926  -0.366  24.901  0.00  0.00    +0.054 C 
ATOM     33  N   UNL     1      -1.968  -0.703  25.653  0.00  0.00    -0.274 NA
ATOM     34  C   UNL     1      -1.472  -0.430  26.255  0.00  0.00    +0.130 C 
ATOM     35  C   UNL     1      -0.937   0.178  26.105  0.00  0.00    +0.053 C 
BRANCH   3   2
ATOM      1  C   UNL     1       0.484   2.547  24.916  0.00  0.00    +0.253 C 
ATOM      2  O   UNL     1       0.219   2.069  24.299  0.00  0.00    -0.468 OA
ENDBRANCH   3   2
BRANCH   8   9
ATOM      9  O   UNL     1      -0.771   1.524  23.096  0.00  0.00    -0.468 OA
ATOM     10  C   UNL     1      -1.436   1.884  22.768  0.00  0.00    +0.253 C 
ENDBRANCH   8   9
ENDBRANCH  12  11
ENDBRANCH  13  12
BRANCH  18  19
ATOM     19  C   UNL     1      -3.337  -1.997  24.110  0.00  0.00    +0.114 C 
BRANCH  19  20
ATOM     20  C   UNL     1      -3.784  -2.690  24.092  0.00  0.00    +0.365 C 
ATOM     21  O   UNL     1      -4.252  -2.862  23.434  0.00  0.00    -0.246 OA
ATOM     22  O   UNL     1      -3.763  -3.212  24.731  0.00  0.00    -0.246 OA
ENDBRANCH  19  20
ENDBRANCH  18  19
TORSDOF 7
ENDMDL
MODEL 10
REMARK VINA RESULT:      -8.9      1.950      4.240
REMARK  Name = 
REMARK  7 active torsions:
REMARK  status: ('A' for Active; 'I' for Inactive)
REMARK    1  A    between atoms: O_2  and  C_3
REMARK    2  A    between atoms: C_8  and  O_9
REMARK    3  A    between atoms: C_11  and  C_12
REMARK    4  A    between atoms: C_12  and  C_13
REMARK    5  A    between atoms: C_18  and  C_19
REMARK    6  A    between atoms: C_19  and  C_20
REMARK    7  A    between atoms: N_25  and  C_26
REMARK                            x       y       z     vdW  Elec       q    Type
REMARK                         _______ _______ _______ _____ _____    ______ ____
ROOT
ATOM     13  C   UNL     1      -0.047   0.849  23.933  0.00  0.00    +0.026 C 
ATOM     14  C   UNL     1      -0.619   0.302  24.164  0.00  0.00    +0.095 C 
ATOM     15  N   UNL     1      -0.462  -0.507  24.109  0.00  0.00    -0.263 N 
ATOM     16  C   UNL     1       0.267  -0.766  23.823  0.00  0.00    +0.095 C 
ATOM     17  C   UNL     1       0.838  -0.219  23.592  0.00  0.00    +0.022 C 
ATOM     18  C   UNL     1       0.682   0.589  23.647  0.00  0.00    +0.015 C 
ATOM     23  C   UNL     1      -1.034  -1.054  24.340  0.00  0.00    +0.327 C 
ATOM     24  O   UNL     1      -0.877  -1.862  24.285  0.00  0.00    -0.250 OA
ATOM     25  N   UNL     1      -1.762  -0.793  24.627  0.00  0.00    -0.162 NA
ENDROOT
BRANCH  25  26
ATOM     26  C   UNL     1      -2.334  -1.341  24.858  0.00  0.00    +0.075 A 
ATOM     27  C   UNL     1      -2.686  -1.833  24.297  0.00  0.00    +0.019 A 
ATOM     28  C   UNL     1      -3.258  -2.381  24.528  0.00  0.00    +0.031 A 
ATOM     29  C   UNL     1      -3.479  -2.438  25.321  0.00  0.00    +0.140 A 
ATOM     30  F   UNL     1      -4.051  -2.985  25.552  0.00  0.00    -0.204 F 
ATOM     31  C   UNL     1      -3.127  -1.945  25.883  0.00  0.00    +0.031 A 
ATOM     32  C   UNL     1      -2.555  -1.398  25.652  0.00  0.00    +0.019 A 
ENDBRANCH  25  26
BRANCH  13  12
ATOM     12  C   UNL     1      -0.203   1.657  23.988  0.00  0.00    +0.047 C 
BRANCH  12  11
ATOM      3  C   UNL     1      -2.428   3.349  25.009  0.00  0.00    +0.172 A 
ATOM      4  C   UNL     1      -1.914   3.237  25.645  0.00  0.00    +0.036 A 
ATOM      5  C   UNL     1      -1.230   2.786  25.550  0.00  0.00    -0.016 A 
ATOM      6  C   UNL     1      -1.058   2.447  24.816  0.00  0.00    +0.012 A 
ATOM      7  C   UNL     1      -1.572   2.559  24.180  0.00  0.00    +0.041 A 
ATOM      8  C   UNL     1      -2.256   3.010  24.275  0.00  0.00    +0.172 A 
ATOM     11  C   UNL     1      -0.375   1.996  24.721  0.00  0.00    +0.054 C 
ATOM     33  N   UNL     1       0.138   1.884  25.356  0.00  0.00    -0.274 NA
ATOM     34  C   UNL     1      -0.034   2.223  26.090  0.00  0.00    +0.130 C 
ATOM     35  C   UNL     1      -0.717   2.674  26.185  0.00  0.00    +0.053 C 
BRANCH   3   2
ATOM      1  C   UNL     1      -3.302   4.108  25.845  0.00  0.00    +0.253 C 
ATOM      2  O   UNL     1      -3.112   3.800  25.105  0.00  0.00    -0.468 OA
ENDBRANCH   3   2
BRANCH   8   9
ATOM      9  O   UNL     1      -2.769   3.122  23.640  0.00  0.00    -0.468 OA
ATOM     10  C   UNL     1      -3.111   2.472  23.266  0.00  0.00    +0.253 C 
ENDBRANCH   8   9
ENDBRANCH  12  11
ENDBRANCH  13  12
BRANCH  18  19
ATOM     19  C   UNL     1       1.254   1.137  23.415  0.00  0.00    +0.114 C 
BRANCH  19  20
ATOM     20  C   UNL     1       1.964   0.877  23.088  0.00  0.00    +0.365 C 
ATOM     21  O   UNL     1       2.682   1.082  23.440  0.00  0.00    -0.246 OA
ATOM     22  O   UNL     1       1.958   0.411  22.406  0.00  0.00    -0.246 OA
ENDBRANCH  19  20
ENDBRANCH  18  19
TORSDOF 7
ENDMDL
