REMARK  Name = 
REMARK  4 active torsions:
REMARK  status: ('A' for Active; 'I' for Inactive)
REMARK    1  A    between atoms: C_7  and  N_10
REMARK    2  A    between atoms: C_13  and  C_15
REMARK    3  A    between atoms: C_18  and  C_19
REMARK    4  A    between atoms: C_19  and  C_20
REMARK                            x       y       z     vdW  Elec       q    Type
REMARK                         _______ _______ _______ _____ _____    ______ ____
ROOT
ATOM     10  N   UNL     1       4.253  -1.066   0.000  0.00  0.00    -0.273 NA
ATOM     11  C   UNL     1       4.920  -1.551   0.000  0.00  0.00    +0.073 C 
ATOM     12  C   UNL     1       4.666  -2.336   0.000  0.00  0.00    +0.028 C 
ATOM     13  C   UNL     1       3.841  -2.336   0.000  0.00  0.00    +0.095 C 
ATOM     14  C   UNL     1       3.586  -1.551   0.000  0.00  0.00    +0.081 C 
ENDROOT
BRANCH  10   7
ATOM      1  C   UNL     1       3.539   2.646   0.000  0.00  0.00    +0.095 C 
ATOM      2  C   UNL     1       4.253   2.234   0.000  0.00  0.00    +0.226 C 
ATOM      3  O   UNL     1       4.968   2.646   0.000  0.00  0.00    -0.275 OA
ATOM      4  N   UNL     1       4.253   1.409   0.000  0.00  0.00    -0.279 N 
ATOM      5  C   UNL     1       4.968   0.996   0.000  0.00  0.00    +0.095 C 
ATOM      6  C   UNL     1       4.968   0.171   0.000  0.00  0.00    +0.038 C 
ATOM      7  C   UNL     1       4.253  -0.241   0.000  0.00  0.00    +0.061 C 
ATOM      8  C   UNL     1       3.539   0.171   0.000  0.00  0.00    +0.038 C 
ATOM      9  C   UNL     1       3.539   0.996   0.000  0.00  0.00    +0.095 C 
ENDBRANCH  10   7
BRANCH  13  15
ATOM     15  C   UNL     1       3.356  -3.003   0.000  0.00  0.00    +0.227 A 
ATOM     16  N   UNL     1       3.611  -3.788   0.000  0.00  0.00    -0.112 NA
ATOM     17  N   UNL     1       2.943  -4.273   0.000  0.00  0.00    -0.111 NA
ATOM     18  C   UNL     1       2.276  -3.788   0.000  0.00  0.00    +0.230 A 
ATOM     26  O   UNL     1       2.531  -3.003   0.000  0.00  0.00    -0.423 OA
BRANCH  18  19
ATOM     19  C   UNL     1       1.491  -4.043   0.000  0.00  0.00    +0.113 C 
BRANCH  19  20
ATOM     20  C   UNL     1       0.878  -3.491   0.000  0.00  0.00    -0.013 A 
ATOM     21  C   UNL     1       0.093  -3.746   0.000  0.00  0.00    -0.004 A 
ATOM     22  C   UNL     1      -0.520  -3.194   0.000  0.00  0.00    -0.000 A 
ATOM     23  C   UNL     1      -0.348  -2.387   0.000  0.00  0.00    -0.000 A 
ATOM     24  C   UNL     1       0.436  -2.132   0.000  0.00  0.00    -0.000 A 
ATOM     25  C   UNL     1       1.050  -2.684   0.000  0.00  0.00    -0.004 A 
ENDBRANCH  19  20
ENDBRANCH  18  19
ENDBRANCH  13  15
TORSDOF 4
