MODEL 1
REMARK VINA RESULT:      -9.5      0.000      0.000
REMARK  Name = 
REMARK  5 active torsions:
REMARK  status: ('A' for Active; 'I' for Inactive)
REMARK    1  A    between atoms: C_3  and  N_16
REMARK    2  A    between atoms: C_6  and  C_7
REMARK    3  A    between atoms: C_7  and  N_8
REMARK    4  A    between atoms: C_9  and  C_11
REMARK    5  A    between atoms: N_16  and  C_17
REMARK                            x       y       z     vdW  Elec       q    Type
REMARK                         _______ _______ _______ _____ _____    ______ ____
ROOT
ATOM      1  O   UNL     1      -4.882   1.202  25.377  0.00  0.00    -0.219 OA
ATOM      2  C   UNL     1      -4.233   1.049  24.891  0.00  0.00    +0.199 C 
ATOM      3  C   UNL     1      -4.067   0.334  24.513  0.00  0.00    +0.135 C 
ATOM      4  C   UNL     1      -3.367   0.427  24.086  0.00  0.00    +0.162 C 
ATOM      5  O   UNL     1      -3.100   1.199  24.200  0.00  0.00    -0.350 OA
ATOM      6  C   UNL     1      -3.634   1.584  24.698  0.00  0.00    +0.169 C 
ENDROOT
BRANCH   6   7
ATOM      7  C   UNL     1      -3.581   2.365  24.956  0.00  0.00    +0.148 C 
BRANCH   7   8
ATOM      8  N   UNL     1      -2.862   2.767  24.907  0.00  0.00    -0.199 NA
ATOM      9  C   UNL     1      -2.786   3.518  25.240  0.00  0.00    +0.271 C 
ATOM     10  O   UNL     1      -3.429   3.868  25.620  0.00  0.00    -0.268 OA
BRANCH   9  11
ATOM     11  C   UNL     1      -2.068   3.920  25.191  0.00  0.00    +0.084 A 
ATOM     12  C   UNL     1      -1.971   4.725  25.033  0.00  0.00    +0.012 A 
ATOM     13  C   UNL     1      -1.162   4.889  25.037  0.00  0.00    +0.008 A 
ATOM     14  C   UNL     1      -0.759   4.187  25.197  0.00  0.00    +0.036 A 
ATOM     15  S   UNL     1      -1.319   3.589  25.292  0.00  0.00    -0.082 S 
ENDBRANCH   9  11
ENDBRANCH   7   8
ENDBRANCH   6   7
BRANCH   3  16
ATOM     16  N   UNL     1      -4.522  -0.353  24.555  0.00  0.00    -0.216 NA
BRANCH  16  17
ATOM     17  C   UNL     1      -4.154  -1.091  24.570  0.00  0.00    +0.076 C 
ATOM     18  C   UNL     1      -3.758  -1.340  25.249  0.00  0.00    +0.036 C 
ATOM     19  C   UNL     1      -3.389  -2.079  25.265  0.00  0.00    +0.090 C 
ATOM     20  N   UNL     1      -3.418  -2.567  24.601  0.00  0.00    -0.218 NA
ATOM     21  C   UNL     1      -3.815  -2.318  23.921  0.00  0.00    +0.090 C 
ATOM     22  C   UNL     1      -4.183  -1.580  23.906  0.00  0.00    +0.036 C 
ENDBRANCH  16  17
ENDBRANCH   3  16
TORSDOF 5
ENDMDL
MODEL 2
REMARK VINA RESULT:      -8.8      2.228      5.397
REMARK  Name = 
REMARK  5 active torsions:
REMARK  status: ('A' for Active; 'I' for Inactive)
REMARK    1  A    between atoms: C_3  and  N_16
REMARK    2  A    between atoms: C_6  and  C_7
REMARK    3  A    between atoms: C_7  and  N_8
REMARK    4  A    between atoms: C_9  and  C_11
REMARK    5  A    between atoms: N_16  and  C_17
REMARK                            x       y       z     vdW  Elec       q    Type
REMARK                         _______ _______ _______ _____ _____    ______ ____
ROOT
ATOM      1  O   UNL     1      -0.690   0.999  26.087  0.00  0.00    -0.219 OA
ATOM      2  C   UNL     1      -1.019   1.273  25.382  0.00  0.00    +0.199 C 
ATOM      3  C   UNL     1      -1.057   2.060  25.139  0.00  0.00    +0.135 C 
ATOM      4  C   UNL     1      -1.429   2.082  24.402  0.00  0.00    +0.162 C 
ATOM      5  O   UNL     1      -1.620   1.308  24.190  0.00  0.00    -0.350 OA
ATOM      6  C   UNL     1      -1.367   0.807  24.796  0.00  0.00    +0.169 C 
ENDROOT
BRANCH   6   7
ATOM      7  C   UNL     1      -1.447  -0.013  24.813  0.00  0.00    +0.148 C 
BRANCH   7   8
ATOM      8  N   UNL     1      -2.172  -0.360  24.630  0.00  0.00    -0.199 NA
ATOM      9  C   UNL     1      -2.241  -1.182  24.599  0.00  0.00    +0.271 C 
ATOM     10  O   UNL     1      -1.583  -1.657  24.751  0.00  0.00    -0.268 OA
BRANCH   9  11
ATOM     11  C   UNL     1      -2.966  -1.529  24.416  0.00  0.00    +0.084 A 
ATOM     12  C   UNL     1      -3.622  -1.143  24.097  0.00  0.00    +0.012 A 
ATOM     13  C   UNL     1      -4.225  -1.699  24.004  0.00  0.00    +0.008 A 
ATOM     14  C   UNL     1      -3.942  -2.429  24.266  0.00  0.00    +0.036 A 
ATOM     15  S   UNL     1      -3.164  -2.323  24.521  0.00  0.00    -0.082 S 
ENDBRANCH   9  11
ENDBRANCH   7   8
ENDBRANCH   6   7
BRANCH   3  16
ATOM     16  N   UNL     1      -0.774   2.712  25.558  0.00  0.00    -0.216 NA
BRANCH  16  17
ATOM     17  C   UNL     1      -1.132   3.449  25.467  0.00  0.00    +0.076 C 
ATOM     18  C   UNL     1      -0.777   4.025  24.995  0.00  0.00    +0.036 C 
ATOM     19  C   UNL     1      -1.135   4.763  24.903  0.00  0.00    +0.090 C 
ATOM     20  N   UNL     1      -1.850   4.923  25.284  0.00  0.00    -0.218 NA
ATOM     21  C   UNL     1      -2.205   4.347  25.755  0.00  0.00    +0.090 C 
ATOM     22  C   UNL     1      -1.847   3.610  25.847  0.00  0.00    +0.036 C 
ENDBRANCH  16  17
ENDBRANCH   3  16
TORSDOF 5
ENDMDL
MODEL 3
REMARK VINA RESULT:      -8.7      1.717      5.079
REMARK  Name = 
REMARK  5 active torsions:
REMARK  status: ('A' for Active; 'I' for Inactive)
REMARK    1  A    between atoms: C_3  and  N_16
REMARK    2  A    between atoms: C_6  and  C_7
REMARK    3  A    between atoms: C_7  and  N_8
REMARK    4  A    between atoms: C_9  and  C_11
REMARK    5  A    between atoms: N_16  and  C_17
REMARK                            x       y       z     vdW  Elec       q    Type
REMARK                         _______ _______ _______ _____ _____    ______ ____
ROOT
ATOM      1  O   UNL     1      -4.793   2.070  24.262  0.00  0.00    -0.219 OA
ATOM      2  C   UNL     1      -3.985   1.907  24.264  0.00  0.00    +0.199 C 
ATOM      3  C   UNL     1      -3.378   2.463  24.315  0.00  0.00    +0.135 C 
ATOM      4  C   UNL     1      -2.659   2.059  24.299  0.00  0.00    +0.162 C 
ATOM      5  O   UNL     1      -2.821   1.253  24.238  0.00  0.00    -0.350 OA
ATOM      6  C   UNL     1      -3.640   1.158  24.216  0.00  0.00    +0.169 C 
ENDROOT
BRANCH   6   7
ATOM      7  C   UNL     1      -4.045   0.442  24.158  0.00  0.00    +0.148 C 
BRANCH   7   8
ATOM      8  N   UNL     1      -3.702  -0.250  24.449  0.00  0.00    -0.199 NA
ATOM      9  C   UNL     1      -4.092  -0.972  24.362  0.00  0.00    +0.271 C 
ATOM     10  O   UNL     1      -4.825  -1.002  23.983  0.00  0.00    -0.268 OA
BRANCH   9  11
ATOM     11  C   UNL     1      -3.750  -1.663  24.653  0.00  0.00    +0.084 A 
ATOM     12  C   UNL     1      -3.476  -1.783  25.422  0.00  0.00    +0.012 A 
ATOM     13  C   UNL     1      -3.178  -2.551  25.470  0.00  0.00    +0.008 A 
ATOM     14  C   UNL     1      -3.267  -2.906  24.730  0.00  0.00    +0.036 A 
ATOM     15  S   UNL     1      -3.620  -2.357  24.226  0.00  0.00    -0.082 S 
ENDBRANCH   9  11
ENDBRANCH   7   8
ENDBRANCH   6   7
BRANCH   3  16
ATOM     16  N   UNL     1      -3.474   3.281  24.373  0.00  0.00    -0.216 NA
BRANCH  16  17
ATOM     17  C   UNL     1      -3.017   3.713  24.907  0.00  0.00    +0.076 C 
ATOM     18  C   UNL     1      -2.304   4.047  24.663  0.00  0.00    +0.036 C 
ATOM     19  C   UNL     1      -1.846   4.480  25.197  0.00  0.00    +0.090 C 
ATOM     20  N   UNL     1      -2.104   4.578  25.975  0.00  0.00    -0.218 NA
ATOM     21  C   UNL     1      -2.818   4.243  26.219  0.00  0.00    +0.090 C 
ATOM     22  C   UNL     1      -3.275   3.811  25.684  0.00  0.00    +0.036 C 
ENDBRANCH  16  17
ENDBRANCH   3  16
TORSDOF 5
ENDMDL
MODEL 4
REMARK VINA RESULT:      -8.6      1.527      1.875
REMARK  Name = 
REMARK  5 active torsions:
REMARK  status: ('A' for Active; 'I' for Inactive)
REMARK    1  A    between atoms: C_3  and  N_16
REMARK    2  A    between atoms: C_6  and  C_7
REMARK    3  A    between atoms: C_7  and  N_8
REMARK    4  A    between atoms: C_9  and  C_11
REMARK    5  A    between atoms: N_16  and  C_17
REMARK                            x       y       z     vdW  Elec       q    Type
REMARK                         _______ _______ _______ _____ _____    ______ ____
ROOT
ATOM      1  O   UNL     1      -0.661  -0.057  24.833  0.00  0.00    -0.219 OA
ATOM      2  C   UNL     1      -1.447   0.189  24.869  0.00  0.00    +0.199 C 
ATOM      3  C   UNL     1      -2.105  -0.253  24.640  0.00  0.00    +0.135 C 
ATOM      4  C   UNL     1      -2.779   0.205  24.771  0.00  0.00    +0.162 C 
ATOM      5  O   UNL     1      -2.538   0.930  25.082  0.00  0.00    -0.350 OA
ATOM      6  C   UNL     1      -1.715   0.921  25.143  0.00  0.00    +0.169 C 
ENDROOT
BRANCH   6   7
ATOM      7  C   UNL     1      -1.242   1.534  25.427  0.00  0.00    +0.148 C 
BRANCH   7   8
ATOM      8  N   UNL     1      -1.434   2.317  25.252  0.00  0.00    -0.199 NA
ATOM      9  C   UNL     1      -1.001   2.933  25.589  0.00  0.00    +0.271 C 
ATOM     10  O   UNL     1      -0.375   2.766  26.100  0.00  0.00    -0.268 OA
BRANCH   9  11
ATOM     11  C   UNL     1      -1.192   3.716  25.414  0.00  0.00    +0.084 A 
ATOM     12  C   UNL     1      -1.871   4.116  25.661  0.00  0.00    +0.012 A 
ATOM     13  C   UNL     1      -1.837   4.884  25.361  0.00  0.00    +0.008 A 
ATOM     14  C   UNL     1      -1.138   4.959  24.929  0.00  0.00    +0.036 A 
ATOM     15  S   UNL     1      -0.740   4.237  24.962  0.00  0.00    -0.082 S 
ENDBRANCH   9  11
ENDBRANCH   7   8
ENDBRANCH   6   7
BRANCH   3  16
ATOM     16  N   UNL     1      -2.091  -1.019  24.332  0.00  0.00    -0.216 NA
BRANCH  16  17
ATOM     17  C   UNL     1      -2.747  -1.511  24.421  0.00  0.00    +0.076 C 
ATOM     18  C   UNL     1      -2.779  -2.046  25.047  0.00  0.00    +0.036 C 
ATOM     19  C   UNL     1      -3.435  -2.539  25.137  0.00  0.00    +0.090 C 
ATOM     20  N   UNL     1      -4.060  -2.495  24.599  0.00  0.00    -0.218 NA
ATOM     21  C   UNL     1      -4.028  -1.958  23.973  0.00  0.00    +0.090 C 
ATOM     22  C   UNL     1      -3.372  -1.466  23.884  0.00  0.00    +0.036 C 
ENDBRANCH  16  17
ENDBRANCH   3  16
TORSDOF 5
ENDMDL
MODEL 5
REMARK VINA RESULT:      -8.1      2.416      4.490
REMARK  Name = 
REMARK  5 active torsions:
REMARK  status: ('A' for Active; 'I' for Inactive)
REMARK    1  A    between atoms: C_3  and  N_16
REMARK    2  A    between atoms: C_6  and  C_7
REMARK    3  A    between atoms: C_7  and  N_8
REMARK    4  A    between atoms: C_9  and  C_11
REMARK    5  A    between atoms: N_16  and  C_17
REMARK                            x       y       z     vdW  Elec       q    Type
REMARK                         _______ _______ _______ _____ _____    ______ ____
ROOT
ATOM      1  O   UNL     1      -3.043   1.652  23.138  0.00  0.00    -0.219 OA
ATOM      2  C   UNL     1      -2.843   1.879  23.905  0.00  0.00    +0.199 C 
ATOM      3  C   UNL     1      -3.250   2.424  24.371  0.00  0.00    +0.135 C 
ATOM      4  C   UNL     1      -2.859   2.483  25.096  0.00  0.00    +0.162 C 
ATOM      5  O   UNL     1      -2.210   1.974  25.078  0.00  0.00    -0.350 OA
ATOM      6  C   UNL     1      -2.200   1.601  24.342  0.00  0.00    +0.169 C 
ENDROOT
BRANCH   6   7
ATOM      7  C   UNL     1      -1.645   1.047  24.087  0.00  0.00    +0.148 C 
BRANCH   7   8
ATOM      8  N   UNL     1      -1.647   0.285  24.404  0.00  0.00    -0.199 NA
ATOM      9  C   UNL     1      -1.016  -0.226  24.256  0.00  0.00    +0.271 C 
ATOM     10  O   UNL     1      -0.382   0.025  23.790  0.00  0.00    -0.268 OA
BRANCH   9  11
ATOM     11  C   UNL     1      -1.018  -0.987  24.573  0.00  0.00    +0.084 A 
ATOM     12  C   UNL     1      -1.470  -1.623  24.305  0.00  0.00    +0.012 A 
ATOM     13  C   UNL     1      -1.299  -2.275  24.781  0.00  0.00    +0.008 A 
ATOM     14  C   UNL     1      -0.742  -2.043  25.343  0.00  0.00    +0.036 A 
ATOM     15  S   UNL     1      -0.568  -1.247  25.214  0.00  0.00    -0.082 S 
ENDBRANCH   9  11
ENDBRANCH   7   8
ENDBRANCH   6   7
BRANCH   3  16
ATOM     16  N   UNL     1      -3.929   2.838  24.152  0.00  0.00    -0.216 NA
BRANCH  16  17
ATOM     17  C   UNL     1      -4.539   2.950  24.697  0.00  0.00    +0.076 C 
ATOM     18  C   UNL     1      -4.578   3.647  25.134  0.00  0.00    +0.036 C 
ATOM     19  C   UNL     1      -5.187   3.759  25.680  0.00  0.00    +0.090 C 
ATOM     20  N   UNL     1      -5.757   3.172  25.786  0.00  0.00    -0.218 NA
ATOM     21  C   UNL     1      -5.718   2.474  25.348  0.00  0.00    +0.090 C 
ATOM     22  C   UNL     1      -5.109   2.363  24.803  0.00  0.00    +0.036 C 
ENDBRANCH  16  17
ENDBRANCH   3  16
TORSDOF 5
ENDMDL
