MODEL 1
REMARK VINA RESULT:     -13.1      0.000      0.000
REMARK  Name = 
REMARK  3 active torsions:
REMARK  status: ('A' for Active; 'I' for Inactive)
REMARK    1  A    between atoms: C_3  and  C_11
REMARK    2  A    between atoms: N_14  and  C_15
REMARK    3  A    between atoms: C_15  and  C_16
REMARK                            x       y       z     vdW  Elec       q    Type
REMARK                         _______ _______ _______ _____ _____    ______ ____
ROOT
ATOM     11  C   UNL     1      -3.071   1.849  24.390  0.00  0.00    +0.074 C 
ATOM     12  C   UNL     1      -3.169   1.528  23.637  0.00  0.00    +0.026 C 
ATOM     13  C   UNL     1      -3.656   0.865  23.703  0.00  0.00    +0.073 C 
ATOM     14  N   UNL     1      -3.858   0.776  24.498  0.00  0.00    -0.269 NA
ATOM     24  C   UNL     1      -3.497   1.385  24.923  0.00  0.00    +0.080 C 
ENDROOT
BRANCH  11   3
ATOM      1  C   UNL     1      -1.280   1.930  24.487  0.00  0.00    +0.132 C 
ATOM      2  N   UNL     1      -1.801   2.554  24.622  0.00  0.00    -0.313 N 
ATOM      3  C   UNL     1      -2.625   2.518  24.578  0.00  0.00    +0.121 A 
ATOM      4  N   UNL     1      -2.923   3.266  24.754  0.00  0.00    -0.231 NA
ATOM      5  C   UNL     1      -2.285   3.765  24.907  0.00  0.00    +0.098 A 
ATOM      6  C   UNL     1      -1.592   3.325  24.826  0.00  0.00    +0.079 A 
ATOM      7  C   UNL     1      -0.859   3.685  24.948  0.00  0.00    +0.019 A 
ATOM      8  C   UNL     1      -0.820   4.483  25.152  0.00  0.00    +0.002 A 
ATOM      9  C   UNL     1      -1.513   4.922  25.233  0.00  0.00    +0.002 A 
ATOM     10  C   UNL     1      -2.246   4.564  25.111  0.00  0.00    +0.021 A 
ENDBRANCH  11   3
BRANCH  14  15
ATOM     15  C   UNL     1      -4.338   0.184  24.814  0.00  0.00    +0.099 C 
BRANCH  15  16
ATOM     16  C   UNL     1      -4.070  -0.595  24.837  0.00  0.00    -0.004 A 
ATOM     17  C   UNL     1      -4.245  -1.110  24.215  0.00  0.00    +0.029 A 
ATOM     18  C   UNL     1      -3.977  -1.889  24.239  0.00  0.00    +0.167 A 
ATOM     19  F   UNL     1      -4.151  -2.404  23.618  0.00  0.00    -0.202 F 
ATOM     20  C   UNL     1      -3.535  -2.155  24.882  0.00  0.00    +0.167 A 
ATOM     21  F   UNL     1      -3.267  -2.935  24.905  0.00  0.00    -0.202 F 
ATOM     22  C   UNL     1      -3.360  -1.640  25.504  0.00  0.00    +0.032 A 
ATOM     23  C   UNL     1      -3.628  -0.860  25.481  0.00  0.00    -0.000 A 
ENDBRANCH  15  16
ENDBRANCH  14  15
TORSDOF 3
ENDMDL
MODEL 2
REMARK VINA RESULT:     -12.9      2.398      5.080
REMARK  Name = 
REMARK  3 active torsions:
REMARK  status: ('A' for Active; 'I' for Inactive)
REMARK    1  A    between atoms: C_3  and  C_11
REMARK    2  A    between atoms: N_14  and  C_15
REMARK    3  A    between atoms: C_15  and  C_16
REMARK                            x       y       z     vdW  Elec       q    Type
REMARK                         _______ _______ _______ _____ _____    ______ ____
ROOT
ATOM     11  C   UNL     1      -4.293   0.672  24.682  0.00  0.00    +0.074 C 
ATOM     12  C   UNL     1      -4.889   1.013  25.138  0.00  0.00    +0.026 C 
ATOM     13  C   UNL     1      -4.845   1.832  25.047  0.00  0.00    +0.073 C 
ATOM     14  N   UNL     1      -4.221   1.997  24.533  0.00  0.00    -0.269 NA
ATOM     24  C   UNL     1      -3.880   1.280  24.307  0.00  0.00    +0.080 C 
ENDROOT
BRANCH  11   3
ATOM      1  C   UNL     1      -3.208  -0.289  25.740  0.00  0.00    +0.132 C 
ATOM      2  N   UNL     1      -3.638  -0.577  25.099  0.00  0.00    -0.313 N 
ATOM      3  C   UNL     1      -4.137  -0.135  24.612  0.00  0.00    +0.121 A 
ATOM      4  N   UNL     1      -4.452  -0.642  24.043  0.00  0.00    -0.231 NA
ATOM      5  C   UNL     1      -4.149  -1.397  24.177  0.00  0.00    +0.098 A 
ATOM      6  C   UNL     1      -3.646  -1.356  24.830  0.00  0.00    +0.079 A 
ATOM      7  C   UNL     1      -3.259  -2.036  25.095  0.00  0.00    +0.019 A 
ATOM      8  C   UNL     1      -3.375  -2.754  24.708  0.00  0.00    +0.002 A 
ATOM      9  C   UNL     1      -3.879  -2.795  24.056  0.00  0.00    +0.002 A 
ATOM     10  C   UNL     1      -4.265  -2.116  23.790  0.00  0.00    +0.021 A 
ENDBRANCH  11   3
BRANCH  14  15
ATOM     15  C   UNL     1      -3.980   2.747  24.288  0.00  0.00    +0.099 C 
BRANCH  15  16
ATOM     16  C   UNL     1      -3.398   3.152  24.709  0.00  0.00    -0.004 A 
ATOM     17  C   UNL     1      -3.600   3.579  25.385  0.00  0.00    +0.029 A 
ATOM     18  C   UNL     1      -3.018   3.984  25.806  0.00  0.00    +0.167 A 
ATOM     19  F   UNL     1      -3.220   4.412  26.482  0.00  0.00    -0.202 F 
ATOM     20  C   UNL     1      -2.234   3.962  25.551  0.00  0.00    +0.167 A 
ATOM     21  F   UNL     1      -1.652   4.367  25.973  0.00  0.00    -0.202 F 
ATOM     22  C   UNL     1      -2.031   3.534  24.875  0.00  0.00    +0.032 A 
ATOM     23  C   UNL     1      -2.614   3.129  24.453  0.00  0.00    -0.000 A 
ENDBRANCH  15  16
ENDBRANCH  14  15
TORSDOF 3
ENDMDL
MODEL 3
REMARK VINA RESULT:     -12.5      2.620      5.290
REMARK  Name = 
REMARK  3 active torsions:
REMARK  status: ('A' for Active; 'I' for Inactive)
REMARK    1  A    between atoms: C_3  and  C_11
REMARK    2  A    between atoms: N_14  and  C_15
REMARK    3  A    between atoms: C_15  and  C_16
REMARK                            x       y       z     vdW  Elec       q    Type
REMARK                         _______ _______ _______ _____ _____    ______ ____
ROOT
ATOM     11  C   UNL     1      -1.776   0.827  24.683  0.00  0.00    +0.074 C 
ATOM     12  C   UNL     1      -1.207   1.075  24.140  0.00  0.00    +0.026 C 
ATOM     13  C   UNL     1      -0.818   1.730  24.459  0.00  0.00    +0.073 C 
ATOM     14  N   UNL     1      -1.146   1.885  25.199  0.00  0.00    -0.269 NA
ATOM     24  C   UNL     1      -1.738   1.327  25.339  0.00  0.00    +0.080 C 
ENDROOT
BRANCH  11   3
ATOM      1  C   UNL     1      -3.348   0.861  23.819  0.00  0.00    +0.132 C 
ATOM      2  N   UNL     1      -3.015   0.205  24.192  0.00  0.00    -0.313 N 
ATOM      3  C   UNL     1      -2.291   0.189  24.589  0.00  0.00    +0.121 A 
ATOM      4  N   UNL     1      -2.175  -0.575  24.875  0.00  0.00    -0.231 NA
ATOM      5  C   UNL     1      -2.825  -1.032  24.655  0.00  0.00    +0.098 A 
ATOM      6  C   UNL     1      -3.344  -0.549  24.233  0.00  0.00    +0.079 A 
ATOM      7  C   UNL     1      -4.050  -0.860  23.940  0.00  0.00    +0.019 A 
ATOM      8  C   UNL     1      -4.237  -1.653  24.069  0.00  0.00    +0.002 A 
ATOM      9  C   UNL     1      -3.718  -2.135  24.492  0.00  0.00    +0.002 A 
ATOM     10  C   UNL     1      -3.012  -1.825  24.785  0.00  0.00    +0.021 A 
ENDBRANCH  11   3
BRANCH  14  15
ATOM     15  C   UNL     1      -0.922   2.492  25.711  0.00  0.00    +0.099 C 
BRANCH  15  16
ATOM     16  C   UNL     1      -1.162   3.267  25.562  0.00  0.00    -0.004 A 
ATOM     17  C   UNL     1      -0.664   3.781  25.151  0.00  0.00    +0.029 A 
ATOM     18  C   UNL     1      -0.905   4.556  25.003  0.00  0.00    +0.167 A 
ATOM     19  F   UNL     1      -0.407   5.070  24.591  0.00  0.00    -0.202 F 
ATOM     20  C   UNL     1      -1.642   4.817  25.265  0.00  0.00    +0.167 A 
ATOM     21  F   UNL     1      -1.881   5.592  25.116  0.00  0.00    -0.202 F 
ATOM     22  C   UNL     1      -2.139   4.303  25.676  0.00  0.00    +0.032 A 
ATOM     23  C   UNL     1      -1.899   3.527  25.825  0.00  0.00    -0.000 A 
ENDBRANCH  15  16
ENDBRANCH  14  15
TORSDOF 3
ENDMDL
