REMARK  Name = 
REMARK  10 active torsions:
REMARK  status: ('A' for Active; 'I' for Inactive)
REMARK    1  A    between atoms: O_2  and  C_3
REMARK    2  A    between atoms: C_6  and  S_9
REMARK    3  A    between atoms: S_9  and  N_12
REMARK    4  A    between atoms: N_12  and  C_13
REMARK    5  A    between atoms: C_13  and  C_14
REMARK    6  A    between atoms: C_18  and  C_19
REMARK    7  A    between atoms: C_19  and  C_20
REMARK    8  A    between atoms: N_22  and  C_23
REMARK    9  A    between atoms: C_23  and  C_24
REMARK   10  A    between atoms: C_27  and  C_28
REMARK                            x       y       z     vdW  Elec       q    Type
REMARK                         _______ _______ _______ _____ _____    ______ ____
ROOT
ATOM     14  C   UNL     1      -1.429   0.825   0.000  0.00  0.00    +0.041 C 
ATOM     15  C   UNL     1      -1.429   1.650   0.000  0.00  0.00    -0.033 C 
ATOM     16  C   UNL     1      -0.715   2.062   0.000  0.00  0.00    -0.048 C 
ATOM     17  C   UNL     1      -0.715   2.888   0.000  0.00  0.00    +0.026 C 
ATOM     18  C   UNL     1       0.000   1.650   0.000  0.00  0.00    +0.027 C 
ATOM     26  C   UNL     1       0.000   0.825   0.000  0.00  0.00    +0.005 C 
ATOM     27  C   UNL     1      -0.715   0.412   0.000  0.00  0.00    +0.006 C 
ENDROOT
BRANCH  27  28
ATOM     28  C   UNL     1      -0.715  -0.412   0.000  0.00  0.00    +0.000 C 
ATOM     29  C   UNL     1      -1.429  -0.825   0.000  0.00  0.00    +0.000 C 
ATOM     30  C   UNL     1       0.000  -0.825   0.000  0.00  0.00    +0.000 C 
ENDBRANCH  27  28
BRANCH  14  13
ATOM     13  C   UNL     1      -2.143   0.412   0.000  0.00  0.00    +0.120 C 
BRANCH  13  12
ATOM     12  N   UNL     1      -2.143  -0.412   0.000  0.00  0.00    -0.077 NA
BRANCH  12   9
ATOM      9  S   UNL     1      -2.858  -0.825   0.000  0.00  0.00    +0.077 S 
ATOM     10  O   UNL     1      -2.445  -1.540   0.000  0.00  0.00    -0.152 OA
ATOM     11  O   UNL     1      -3.270  -0.111   0.000  0.00  0.00    -0.152 OA
BRANCH   9   6
ATOM      3  C   UNL     1      -5.001  -2.062   0.000  0.00  0.00    +0.139 A 
ATOM      4  C   UNL     1      -5.001  -1.238   0.000  0.00  0.00    +0.038 A 
ATOM      5  C   UNL     1      -4.287  -0.825   0.000  0.00  0.00    +0.023 A 
ATOM      6  C   UNL     1      -3.572  -1.238   0.000  0.00  0.00    +0.124 A 
ATOM      7  C   UNL     1      -3.572  -2.062   0.000  0.00  0.00    +0.023 A 
ATOM      8  C   UNL     1      -4.287  -2.475   0.000  0.00  0.00    +0.038 A 
BRANCH   3   2
ATOM      1  C   UNL     1      -5.716  -3.300   0.000  0.00  0.00    +0.252 C 
ATOM      2  O   UNL     1      -5.716  -2.475   0.000  0.00  0.00    -0.471 OA
ENDBRANCH   3   2
ENDBRANCH   9   6
ENDBRANCH  12   9
ENDBRANCH  13  12
ENDBRANCH  14  13
BRANCH  18  19
ATOM     19  C   UNL     1       0.715   2.062   0.000  0.00  0.00    +0.091 C 
BRANCH  19  20
ATOM     20  C   UNL     1       1.429   1.650   0.000  0.00  0.00    +0.243 C 
ATOM     21  O   UNL     1       1.429   0.825   0.000  0.00  0.00    -0.273 OA
ATOM     22  N   UNL     1       2.143   2.062   0.000  0.00  0.00    -0.191 NA
BRANCH  22  23
ATOM     23  C   UNL     1       2.858   1.650   0.000  0.00  0.00    +0.191 C 
BRANCH  23  24
ATOM     24  C   UNL     1       3.572   2.062   0.000  0.00  0.00    -0.054 C 
ATOM     25  C   UNL     1       4.287   2.475   0.000  0.00  0.00    -0.012 C 
ENDBRANCH  23  24
ENDBRANCH  22  23
ENDBRANCH  19  20
ENDBRANCH  18  19
TORSDOF 10
