MODEL 1
REMARK VINA RESULT:     -10.7      0.000      0.000
REMARK  Name = 
REMARK  4 active torsions:
REMARK  status: ('A' for Active; 'I' for Inactive)
REMARK    1  A    between atoms: C_7  and  C_8
REMARK    2  A    between atoms: C_8  and  N_9
REMARK    3  A    between atoms: C_14  and  O_16
REMARK    4  A    between atoms: O_16  and  C_17
REMARK                            x       y       z     vdW  Elec       q    Type
REMARK                         _______ _______ _______ _____ _____    ______ ____
ROOT
ATOM      9  N   UNL     1      -3.356   0.164  24.911  0.00  0.00    -0.264 NA
ATOM     10  C   UNL     1      -2.535   0.144  24.839  0.00  0.00    +0.105 C 
ATOM     11  C   UNL     1      -2.037   0.699  24.486  0.00  0.00    +0.160 C 
ATOM     12  O   UNL     1      -2.237   1.411  24.119  0.00  0.00    -0.348 OA
ATOM     13  C   UNL     1      -2.985   1.742  24.014  0.00  0.00    +0.187 C 
ATOM     14  C   UNL     1      -3.717   1.445  24.250  0.00  0.00    +0.213 C 
ATOM     15  C   UNL     1      -3.882   0.742  24.650  0.00  0.00    +0.119 C 
ENDROOT
BRANCH   9   8
ATOM      8  C   UNL     1      -3.697  -0.482  25.298  0.00  0.00    +0.102 C 
BRANCH   8   7
ATOM      1  F   UNL     1      -3.169  -1.859  26.037  0.00  0.00    -0.204 F 
ATOM      2  C   UNL     1      -3.495  -1.896  25.280  0.00  0.00    +0.137 A 
ATOM      3  C   UNL     1      -3.558  -2.622  24.893  0.00  0.00    +0.029 A 
ATOM      4  C   UNL     1      -3.883  -2.659  24.137  0.00  0.00    +0.002 A 
ATOM      5  C   UNL     1      -4.147  -1.971  23.766  0.00  0.00    -0.000 A 
ATOM      6  C   UNL     1      -4.085  -1.244  24.154  0.00  0.00    -0.001 A 
ATOM      7  C   UNL     1      -3.759  -1.207  24.910  0.00  0.00    +0.021 A 
ENDBRANCH   8   7
ENDBRANCH   9   8
BRANCH  14  16
ATOM     16  O   UNL     1      -4.371   1.912  24.062  0.00  0.00    -0.459 OA
BRANCH  16  17
ATOM     17  C   UNL     1      -4.625   2.496  24.586  0.00  0.00    +0.245 A 
ATOM     18  C   UNL     1      -4.258   3.235  24.589  0.00  0.00    +0.156 A 
ATOM     19  N   UNL     1      -4.512   3.820  25.112  0.00  0.00    -0.236 NA
ATOM     20  C   UNL     1      -5.134   3.666  25.634  0.00  0.00    +0.120 A 
ATOM     21  C   UNL     1      -5.501   2.926  25.630  0.00  0.00    +0.123 A 
ATOM     22  N   UNL     1      -5.247   2.342  25.107  0.00  0.00    -0.207 NA
ENDBRANCH  16  17
ENDBRANCH  14  16
TORSDOF 4
ENDMDL
MODEL 2
REMARK VINA RESULT:     -10.5      1.474      2.472
REMARK  Name = 
REMARK  4 active torsions:
REMARK  status: ('A' for Active; 'I' for Inactive)
REMARK    1  A    between atoms: C_7  and  C_8
REMARK    2  A    between atoms: C_8  and  N_9
REMARK    3  A    between atoms: C_14  and  O_16
REMARK    4  A    between atoms: O_16  and  C_17
REMARK                            x       y       z     vdW  Elec       q    Type
REMARK                         _______ _______ _______ _____ _____    ______ ____
ROOT
ATOM      9  N   UNL     1      -3.646   0.495  24.943  0.00  0.00    -0.264 NA
ATOM     10  C   UNL     1      -4.296   0.960  24.742  0.00  0.00    +0.105 C 
ATOM     11  C   UNL     1      -4.311   1.670  24.322  0.00  0.00    +0.160 C 
ATOM     12  O   UNL     1      -3.678   2.089  23.998  0.00  0.00    -0.348 OA
ATOM     13  C   UNL     1      -2.876   1.903  24.015  0.00  0.00    +0.187 C 
ATOM     14  C   UNL     1      -2.506   1.251  24.360  0.00  0.00    +0.213 C 
ATOM     15  C   UNL     1      -2.849   0.624  24.773  0.00  0.00    +0.119 C 
ENDROOT
BRANCH   9   8
ATOM      8  C   UNL     1      -3.814  -0.191  25.370  0.00  0.00    +0.102 C 
BRANCH   8   7
ATOM      1  F   UNL     1      -3.082  -1.498  26.063  0.00  0.00    -0.204 F 
ATOM      2  C   UNL     1      -3.462  -1.575  25.334  0.00  0.00    +0.137 A 
ATOM      3  C   UNL     1      -3.476  -2.306  24.951  0.00  0.00    +0.029 A 
ATOM      4  C   UNL     1      -3.855  -2.384  24.224  0.00  0.00    +0.002 A 
ATOM      5  C   UNL     1      -4.221  -1.731  23.877  0.00  0.00    -0.000 A 
ATOM      6  C   UNL     1      -4.207  -0.999  24.260  0.00  0.00    -0.001 A 
ATOM      7  C   UNL     1      -3.828  -0.922  24.987  0.00  0.00    +0.021 A 
ENDBRANCH   8   7
ENDBRANCH   9   8
BRANCH  14  16
ATOM     16  O   UNL     1      -1.685   1.221  24.282  0.00  0.00    -0.459 OA
BRANCH  16  17
ATOM     17  C   UNL     1      -1.209   1.716  24.739  0.00  0.00    +0.245 A 
ATOM     18  C   UNL     1      -0.955   2.440  24.436  0.00  0.00    +0.156 A 
ATOM     19  N   UNL     1      -0.479   2.934  24.893  0.00  0.00    -0.236 NA
ATOM     20  C   UNL     1      -0.256   2.705  25.654  0.00  0.00    +0.120 A 
ATOM     21  C   UNL     1      -0.510   1.981  25.957  0.00  0.00    +0.123 A 
ATOM     22  N   UNL     1      -0.986   1.486  25.500  0.00  0.00    -0.207 NA
ENDBRANCH  16  17
ENDBRANCH  14  16
TORSDOF 4
ENDMDL
MODEL 3
REMARK VINA RESULT:     -10.1      1.396      1.884
REMARK  Name = 
REMARK  4 active torsions:
REMARK  status: ('A' for Active; 'I' for Inactive)
REMARK    1  A    between atoms: C_7  and  C_8
REMARK    2  A    between atoms: C_8  and  N_9
REMARK    3  A    between atoms: C_14  and  O_16
REMARK    4  A    between atoms: O_16  and  C_17
REMARK                            x       y       z     vdW  Elec       q    Type
REMARK                         _______ _______ _______ _____ _____    ______ ____
ROOT
ATOM      9  N   UNL     1      -2.705  -0.256  25.284  0.00  0.00    -0.264 NA
ATOM     10  C   UNL     1      -2.127  -0.589  25.768  0.00  0.00    +0.105 C 
ATOM     11  C   UNL     1      -1.337  -0.365  25.855  0.00  0.00    +0.160 C 
ATOM     12  O   UNL     1      -0.931   0.246  25.478  0.00  0.00    -0.348 OA
ATOM     13  C   UNL     1      -1.215   0.785  24.922  0.00  0.00    +0.187 C 
ATOM     14  C   UNL     1      -1.974   0.847  24.605  0.00  0.00    +0.213 C 
ATOM     15  C   UNL     1      -2.637   0.383  24.766  0.00  0.00    +0.119 C 
ENDROOT
BRANCH   9   8
ATOM      8  C   UNL     1      -3.450  -0.608  25.322  0.00  0.00    +0.102 C 
BRANCH   8   7
ATOM      1  F   UNL     1      -4.652  -0.564  24.192  0.00  0.00    -0.204 F 
ATOM      2  C   UNL     1      -4.215  -1.255  24.302  0.00  0.00    +0.137 A 
ATOM      3  C   UNL     1      -4.377  -1.924  23.848  0.00  0.00    +0.029 A 
ATOM      4  C   UNL     1      -3.940  -2.614  23.958  0.00  0.00    +0.002 A 
ATOM      5  C   UNL     1      -3.340  -2.637  24.523  0.00  0.00    -0.000 A 
ATOM      6  C   UNL     1      -3.176  -1.967  24.978  0.00  0.00    -0.001 A 
ATOM      7  C   UNL     1      -3.613  -1.277  24.868  0.00  0.00    +0.021 A 
ENDBRANCH   8   7
ENDBRANCH   9   8
BRANCH  14  16
ATOM     16  O   UNL     1      -2.084   1.451  24.054  0.00  0.00    -0.459 OA
BRANCH  16  17
ATOM     17  C   UNL     1      -2.304   2.204  24.307  0.00  0.00    +0.245 A 
ATOM     18  C   UNL     1      -1.729   2.736  24.569  0.00  0.00    +0.156 A 
ATOM     19  N   UNL     1      -1.948   3.489  24.821  0.00  0.00    -0.236 NA
ATOM     20  C   UNL     1      -2.743   3.713  24.813  0.00  0.00    +0.120 A 
ATOM     21  C   UNL     1      -3.318   3.181  24.551  0.00  0.00    +0.123 A 
ATOM     22  N   UNL     1      -3.099   2.428  24.299  0.00  0.00    -0.207 NA
ENDBRANCH  16  17
ENDBRANCH  14  16
TORSDOF 4
ENDMDL
MODEL 4
REMARK VINA RESULT:      -9.9      1.515      4.243
REMARK  Name = 
REMARK  4 active torsions:
REMARK  status: ('A' for Active; 'I' for Inactive)
REMARK    1  A    between atoms: C_7  and  C_8
REMARK    2  A    between atoms: C_8  and  N_9
REMARK    3  A    between atoms: C_14  and  O_16
REMARK    4  A    between atoms: O_16  and  C_17
REMARK                            x       y       z     vdW  Elec       q    Type
REMARK                         _______ _______ _______ _____ _____    ______ ____
ROOT
ATOM      9  N   UNL     1      -3.507   1.445  24.328  0.00  0.00    -0.264 NA
ATOM     10  C   UNL     1      -2.747   1.689  24.124  0.00  0.00    +0.105 C 
ATOM     11  C   UNL     1      -2.031   1.300  24.250  0.00  0.00    +0.160 C 
ATOM     12  O   UNL     1      -1.898   0.571  24.613  0.00  0.00    -0.348 OA
ATOM     13  C   UNL     1      -2.449   0.051  24.937  0.00  0.00    +0.187 C 
ATOM     14  C   UNL     1      -3.269   0.131  24.981  0.00  0.00    +0.213 C 
ATOM     15  C   UNL     1      -3.740   0.752  24.709  0.00  0.00    +0.119 C 
ENDROOT
BRANCH   9   8
ATOM      8  C   UNL     1      -4.117   1.963  24.124  0.00  0.00    +0.102 C 
BRANCH   8   7
ATOM      1  F   UNL     1      -5.733   2.031  24.452  0.00  0.00    -0.204 F 
ATOM      2  C   UNL     1      -5.211   2.536  24.843  0.00  0.00    +0.137 A 
ATOM      3  C   UNL     1      -5.496   3.076  25.398  0.00  0.00    +0.029 A 
ATOM      4  C   UNL     1      -4.974   3.581  25.789  0.00  0.00    +0.002 A 
ATOM      5  C   UNL     1      -4.166   3.547  25.625  0.00  0.00    -0.000 A 
ATOM      6  C   UNL     1      -3.881   3.007  25.069  0.00  0.00    -0.001 A 
ATOM      7  C   UNL     1      -4.402   2.502  24.679  0.00  0.00    +0.021 A 
ENDBRANCH   8   7
ENDBRANCH   9   8
BRANCH  14  16
ATOM     16  O   UNL     1      -3.671  -0.492  25.343  0.00  0.00    -0.459 OA
BRANCH  16  17
ATOM     17  C   UNL     1      -3.707  -1.229  24.976  0.00  0.00    +0.245 A 
ATOM     18  C   UNL     1      -3.279  -1.865  25.282  0.00  0.00    +0.156 A 
ATOM     19  N   UNL     1      -3.315  -2.602  24.915  0.00  0.00    -0.236 NA
ATOM     20  C   UNL     1      -3.779  -2.705  24.240  0.00  0.00    +0.120 A 
ATOM     21  C   UNL     1      -4.207  -2.070  23.933  0.00  0.00    +0.123 A 
ATOM     22  N   UNL     1      -4.172  -1.333  24.301  0.00  0.00    -0.207 NA
ENDBRANCH  16  17
ENDBRANCH  14  16
TORSDOF 4
ENDMDL
