MODEL 1
REMARK VINA RESULT:     -12.7      0.000      0.000
REMARK  Name = 
REMARK  3 active torsions:
REMARK  status: ('A' for Active; 'I' for Inactive)
REMARK    1  A    between atoms: O_2  and  C_3
REMARK    2  A    between atoms: C_17  and  C_19
REMARK    3  A    between atoms: C_20  and  O_21
REMARK                            x       y       z     vdW  Elec       q    Type
REMARK                         _______ _______ _______ _____ _____    ______ ____
ROOT
ATOM      3  C   UNL     1      -2.352   3.768  24.702  0.00  0.00    +0.137 C 
ATOM      4  C   UNL     1      -3.134   3.873  24.942  0.00  0.00    +0.061 C 
ATOM      5  C   UNL     1      -3.493   3.131  24.975  0.00  0.00    +0.157 C 
ATOM      6  N   UNL     1      -2.933   2.567  24.755  0.00  0.00    -0.267 N 
ATOM      7  C   UNL     1      -2.227   2.961  24.586  0.00  0.00    +0.124 C 
ATOM      8  C   UNL     1      -3.020   1.749  24.700  0.00  0.00    +0.251 C 
ATOM      9  O   UNL     1      -2.349   1.332  24.461  0.00  0.00    -0.270 OA
ATOM     10  C   UNL     1      -3.690   1.292  24.852  0.00  0.00    +0.069 A 
ATOM     11  C   UNL     1      -4.438   1.541  25.096  0.00  0.00    +0.078 A 
ATOM     12  N   UNL     1      -4.700   2.309  25.249  0.00  0.00    -0.178 NA
ATOM     13  C   UNL     1      -4.279   3.016  25.195  0.00  0.00    +0.264 C 
ATOM     14  O   UNL     1      -4.702   3.699  25.386  0.00  0.00    -0.271 OA
ATOM     15  C   UNL     1      -5.038   0.988  25.218  0.00  0.00    +0.017 A 
ATOM     16  C   UNL     1      -4.889   0.186  25.096  0.00  0.00    +0.001 A 
ATOM     17  C   UNL     1      -4.142  -0.064  24.851  0.00  0.00    +0.003 A 
ATOM     18  C   UNL     1      -3.542   0.490  24.729  0.00  0.00    +0.006 A 
ENDROOT
BRANCH  17  19
ATOM     19  C   UNL     1      -3.994  -0.866  24.729  0.00  0.00    +0.035 A 
ATOM     20  C   UNL     1      -3.623  -1.311  25.317  0.00  0.00    +0.139 A 
ATOM     23  C   UNL     1      -3.476  -2.113  25.195  0.00  0.00    +0.038 A 
ATOM     24  C   UNL     1      -3.699  -2.471  24.485  0.00  0.00    +0.015 A 
ATOM     25  C   UNL     1      -4.069  -2.025  23.898  0.00  0.00    +0.058 A 
ATOM     26 CL   UNL     1      -4.292  -2.383  23.188  0.00  0.00    -0.082 Cl
ATOM     27  C   UNL     1      -4.217  -1.223  24.021  0.00  0.00    +0.014 A 
BRANCH  20  21
ATOM     21  O   UNL     1      -3.400  -0.954  26.026  0.00  0.00    -0.471 OA
ATOM     22  C   UNL     1      -3.013  -1.396  26.606  0.00  0.00    +0.252 C 
ENDBRANCH  20  21
ENDBRANCH  17  19
BRANCH   3   2
ATOM      1  C   UNL     1      -1.290   4.575  25.215  0.00  0.00    +0.174 C 
ATOM      2  O   UNL     1      -1.793   4.365  24.596  0.00  0.00    -0.352 OA
ENDBRANCH   3   2
TORSDOF 3
ENDMDL
MODEL 2
REMARK VINA RESULT:     -12.5      1.274      2.041
REMARK  Name = 
REMARK  3 active torsions:
REMARK  status: ('A' for Active; 'I' for Inactive)
REMARK    1  A    between atoms: O_2  and  C_3
REMARK    2  A    between atoms: C_17  and  C_19
REMARK    3  A    between atoms: C_20  and  O_21
REMARK                            x       y       z     vdW  Elec       q    Type
REMARK                         _______ _______ _______ _____ _____    ______ ____
ROOT
ATOM      3  C   UNL     1      -5.468   3.381  25.496  0.00  0.00    +0.137 C 
ATOM      4  C   UNL     1      -4.914   3.591  24.921  0.00  0.00    +0.061 C 
ATOM      5  C   UNL     1      -4.534   2.904  24.669  0.00  0.00    +0.157 C 
ATOM      6  N   UNL     1      -4.852   2.268  25.088  0.00  0.00    -0.267 N 
ATOM      7  C   UNL     1      -5.430   2.563  25.599  0.00  0.00    +0.124 C 
ATOM      8  C   UNL     1      -4.657   1.469  25.036  0.00  0.00    +0.251 C 
ATOM      9  O   UNL     1      -5.080   0.964  25.533  0.00  0.00    -0.270 OA
ATOM     10  C   UNL     1      -4.096   1.107  24.552  0.00  0.00    +0.069 A 
ATOM     11  C   UNL     1      -3.590   1.455  24.001  0.00  0.00    +0.078 A 
ATOM     12  N   UNL     1      -3.522   2.252  23.797  0.00  0.00    -0.178 NA
ATOM     13  C   UNL     1      -3.942   2.896  24.095  0.00  0.00    +0.264 C 
ATOM     14  O   UNL     1      -3.743   3.631  23.776  0.00  0.00    -0.271 OA
ATOM     15  C   UNL     1      -3.064   0.988  23.569  0.00  0.00    +0.017 A 
ATOM     16  C   UNL     1      -3.044   0.172  23.690  0.00  0.00    +0.001 A 
ATOM     17  C   UNL     1      -3.549  -0.177  24.241  0.00  0.00    +0.003 A 
ATOM     18  C   UNL     1      -4.075   0.291  24.672  0.00  0.00    +0.006 A 
ENDROOT
BRANCH  17  19
ATOM     19  C   UNL     1      -3.529  -0.993  24.361  0.00  0.00    +0.035 A 
ATOM     20  C   UNL     1      -2.980  -1.319  24.884  0.00  0.00    +0.139 A 
ATOM     23  C   UNL     1      -2.959  -2.134  25.004  0.00  0.00    +0.038 A 
ATOM     24  C   UNL     1      -3.487  -2.625  24.601  0.00  0.00    +0.015 A 
ATOM     25  C   UNL     1      -4.034  -2.298  24.078  0.00  0.00    +0.058 A 
ATOM     26 CL   UNL     1      -4.562  -2.789  23.675  0.00  0.00    -0.082 Cl
ATOM     27  C   UNL     1      -4.055  -1.483  23.958  0.00  0.00    +0.014 A 
BRANCH  20  21
ATOM     21  O   UNL     1      -2.453  -0.829  25.287  0.00  0.00    -0.471 OA
ATOM     22  C   UNL     1      -1.890  -1.158  25.794  0.00  0.00    +0.252 C 
ENDBRANCH  20  21
ENDBRANCH  17  19
BRANCH   3   2
ATOM      1  C   UNL     1      -5.960   4.703  25.720  0.00  0.00    +0.174 C 
ATOM      2  O   UNL     1      -5.970   3.897  25.896  0.00  0.00    -0.352 OA
ENDBRANCH   3   2
TORSDOF 3
ENDMDL
MODEL 3
REMARK VINA RESULT:     -11.6      2.172      4.270
REMARK  Name = 
REMARK  3 active torsions:
REMARK  status: ('A' for Active; 'I' for Inactive)
REMARK    1  A    between atoms: O_2  and  C_3
REMARK    2  A    between atoms: C_17  and  C_19
REMARK    3  A    between atoms: C_20  and  O_21
REMARK                            x       y       z     vdW  Elec       q    Type
REMARK                         _______ _______ _______ _____ _____    ______ ____
ROOT
ATOM      3  C   UNL     1      -0.637  -1.011  25.055  0.00  0.00    +0.137 C 
ATOM      4  C   UNL     1      -0.383  -0.534  24.432  0.00  0.00    +0.061 C 
ATOM      5  C   UNL     1      -0.937   0.067  24.327  0.00  0.00    +0.157 C 
ATOM      6  N   UNL     1      -1.535  -0.038  24.886  0.00  0.00    -0.267 N 
ATOM      7  C   UNL     1      -1.350  -0.705  25.336  0.00  0.00    +0.124 C 
ATOM      8  C   UNL     1      -2.213   0.417  25.006  0.00  0.00    +0.251 C 
ATOM      9  O   UNL     1      -2.709   0.165  25.616  0.00  0.00    -0.270 OA
ATOM     10  C   UNL     1      -2.460   1.089  24.598  0.00  0.00    +0.069 A 
ATOM     11  C   UNL     1      -2.090   1.474  23.969  0.00  0.00    +0.078 A 
ATOM     12  N   UNL     1      -1.382   1.279  23.592  0.00  0.00    -0.178 NA
ATOM     13  C   UNL     1      -0.869   0.653  23.752  0.00  0.00    +0.264 C 
ATOM     14  O   UNL     1      -0.200   0.608  23.271  0.00  0.00    -0.271 OA
ATOM     15  C   UNL     1      -2.433   2.146  23.636  0.00  0.00    +0.017 A 
ATOM     16  C   UNL     1      -3.147   2.434  23.934  0.00  0.00    +0.001 A 
ATOM     17  C   UNL     1      -3.517   2.050  24.563  0.00  0.00    +0.003 A 
ATOM     18  C   UNL     1      -3.173   1.378  24.896  0.00  0.00    +0.006 A 
ENDROOT
BRANCH  17  19
ATOM     19  C   UNL     1      -4.230   2.339  24.860  0.00  0.00    +0.035 A 
ATOM     20  C   UNL     1      -4.236   3.013  25.337  0.00  0.00    +0.139 A 
ATOM     23  C   UNL     1      -4.949   3.301  25.635  0.00  0.00    +0.038 A 
ATOM     24  C   UNL     1      -5.657   2.916  25.455  0.00  0.00    +0.015 A 
ATOM     25  C   UNL     1      -5.651   2.243  24.979  0.00  0.00    +0.058 A 
ATOM     26 CL   UNL     1      -6.358   1.859  24.800  0.00  0.00    -0.082 Cl
ATOM     27  C   UNL     1      -4.937   1.955  24.682  0.00  0.00    +0.014 A 
BRANCH  20  21
ATOM     21  O   UNL     1      -3.529   3.397  25.517  0.00  0.00    -0.471 OA
ATOM     22  C   UNL     1      -3.527   4.031  26.045  0.00  0.00    +0.252 C 
ENDBRANCH  20  21
ENDBRANCH  17  19
BRANCH   3   2
ATOM      1  C   UNL     1      -0.517  -2.432  25.151  0.00  0.00    +0.174 C 
ATOM      2  O   UNL     1      -0.247  -1.677  25.346  0.00  0.00    -0.352 OA
ENDBRANCH   3   2
TORSDOF 3
ENDMDL
MODEL 4
REMARK VINA RESULT:     -11.2      2.020      4.752
REMARK  Name = 
REMARK  3 active torsions:
REMARK  status: ('A' for Active; 'I' for Inactive)
REMARK    1  A    between atoms: O_2  and  C_3
REMARK    2  A    between atoms: C_17  and  C_19
REMARK    3  A    between atoms: C_20  and  O_21
REMARK                            x       y       z     vdW  Elec       q    Type
REMARK                         _______ _______ _______ _____ _____    ______ ____
ROOT
ATOM      3  C   UNL     1      -2.477  -1.531  24.943  0.00  0.00    +0.137 C 
ATOM      4  C   UNL     1      -3.178  -1.329  24.557  0.00  0.00    +0.061 C 
ATOM      5  C   UNL     1      -3.211  -0.507  24.503  0.00  0.00    +0.157 C 
ATOM      6  N   UNL     1      -2.531  -0.200  24.855  0.00  0.00    -0.267 N 
ATOM      7  C   UNL     1      -2.077  -0.834  25.128  0.00  0.00    +0.124 C 
ATOM      8  C   UNL     1      -2.306   0.589  24.942  0.00  0.00    +0.251 C 
ATOM      9  O   UNL     1      -1.587   0.716  25.324  0.00  0.00    -0.270 OA
ATOM     10  C   UNL     1      -2.706   1.267  24.696  0.00  0.00    +0.069 A 
ATOM     11  C   UNL     1      -3.430   1.324  24.303  0.00  0.00    +0.078 A 
ATOM     12  N   UNL     1      -3.932   0.715  24.060  0.00  0.00    -0.178 NA
ATOM     13  C   UNL     1      -3.834  -0.099  24.149  0.00  0.00    +0.264 C 
ATOM     14  O   UNL     1      -4.441  -0.567  23.842  0.00  0.00    -0.271 OA
ATOM     15  C   UNL     1      -3.736   2.063  24.106  0.00  0.00    +0.017 A 
ATOM     16  C   UNL     1      -3.317   2.748  24.301  0.00  0.00    +0.001 A 
ATOM     17  C   UNL     1      -2.594   2.692  24.693  0.00  0.00    +0.003 A 
ATOM     18  C   UNL     1      -2.289   1.951  24.891  0.00  0.00    +0.006 A 
ENDROOT
BRANCH  17  19
ATOM     19  C   UNL     1      -2.176   3.376  24.888  0.00  0.00    +0.035 A 
ATOM     20  C   UNL     1      -2.452   3.870  25.489  0.00  0.00    +0.139 A 
ATOM     23  C   UNL     1      -2.034   4.554  25.684  0.00  0.00    +0.038 A 
ATOM     24  C   UNL     1      -1.341   4.744  25.278  0.00  0.00    +0.015 A 
ATOM     25  C   UNL     1      -1.066   4.250  24.678  0.00  0.00    +0.058 A 
ATOM     26 CL   UNL     1      -0.373   4.440  24.272  0.00  0.00    -0.082 Cl
ATOM     27  C   UNL     1      -1.484   3.566  24.483  0.00  0.00    +0.014 A 
BRANCH  20  21
ATOM     21  O   UNL     1      -3.144   3.680  25.894  0.00  0.00    -0.471 OA
ATOM     22  C   UNL     1      -3.402   4.158  26.517  0.00  0.00    +0.252 C 
ENDBRANCH  20  21
ENDBRANCH  17  19
BRANCH   3   2
ATOM      1  C   UNL     1      -1.733  -2.697  24.586  0.00  0.00    +0.174 C 
ATOM      2  O   UNL     1      -2.223  -2.297  25.115  0.00  0.00    -0.352 OA
ENDBRANCH   3   2
TORSDOF 3
ENDMDL
MODEL 5
REMARK VINA RESULT:     -11.1      2.185      5.081
REMARK  Name = 
REMARK  3 active torsions:
REMARK  status: ('A' for Active; 'I' for Inactive)
REMARK    1  A    between atoms: O_2  and  C_3
REMARK    2  A    between atoms: C_17  and  C_19
REMARK    3  A    between atoms: C_20  and  O_21
REMARK                            x       y       z     vdW  Elec       q    Type
REMARK                         _______ _______ _______ _____ _____    ______ ____
ROOT
ATOM      3  C   UNL     1      -3.750  -1.281  24.142  0.00  0.00    +0.137 C 
ATOM      4  C   UNL     1      -3.051  -1.533  24.500  0.00  0.00    +0.061 C 
ATOM      5  C   UNL     1      -2.627  -0.865  24.730  0.00  0.00    +0.157 C 
ATOM      6  N   UNL     1      -3.063  -0.199  24.514  0.00  0.00    -0.267 N 
ATOM      7  C   UNL     1      -3.758  -0.457  24.150  0.00  0.00    +0.124 C 
ATOM      8  C   UNL     1      -2.876   0.597  24.623  0.00  0.00    +0.251 C 
ATOM      9  O   UNL     1      -3.433   1.137  24.343  0.00  0.00    -0.270 OA
ATOM     10  C   UNL     1      -2.206   0.924  24.975  0.00  0.00    +0.069 A 
ATOM     11  C   UNL     1      -1.557   0.536  25.305  0.00  0.00    +0.078 A 
ATOM     12  N   UNL     1      -1.418  -0.276  25.364  0.00  0.00    -0.178 NA
ATOM     13  C   UNL     1      -1.895  -0.899  25.108  0.00  0.00    +0.264 C 
ATOM     14  O   UNL     1      -1.599  -1.656  25.250  0.00  0.00    -0.271 OA
ATOM     15  C   UNL     1      -0.937   0.971  25.632  0.00  0.00    +0.017 A 
ATOM     16  C   UNL     1      -0.967   1.796  25.629  0.00  0.00    +0.001 A 
ATOM     17  C   UNL     1      -1.616   2.185  25.300  0.00  0.00    +0.003 A 
ATOM     18  C   UNL     1      -2.235   1.748  24.972  0.00  0.00    +0.006 A 
ENDROOT
BRANCH  17  19
ATOM     19  C   UNL     1      -1.645   3.009  25.297  0.00  0.00    +0.035 A 
ATOM     20  C   UNL     1      -1.116   3.439  24.831  0.00  0.00    +0.139 A 
ATOM     23  C   UNL     1      -1.145   4.263  24.828  0.00  0.00    +0.038 A 
ATOM     24  C   UNL     1      -1.703   4.658  25.291  0.00  0.00    +0.015 A 
ATOM     25  C   UNL     1      -2.231   4.228  25.756  0.00  0.00    +0.058 A 
ATOM     26 CL   UNL     1      -2.789   4.623  26.219  0.00  0.00    -0.082 Cl
ATOM     27  C   UNL     1      -2.202   3.404  25.759  0.00  0.00    +0.014 A 
BRANCH  20  21
ATOM     21  O   UNL     1      -0.559   3.045  24.368  0.00  0.00    -0.471 OA
ATOM     22  C   UNL     1      -0.056   3.474  23.874  0.00  0.00    +0.252 C 
ENDBRANCH  20  21
ENDBRANCH  17  19
BRANCH   3   2
ATOM      1  C   UNL     1      -4.229  -2.586  23.809  0.00  0.00    +0.174 C 
ATOM      2  O   UNL     1      -4.338  -1.769  23.830  0.00  0.00    -0.352 OA
ENDBRANCH   3   2
TORSDOF 3
ENDMDL
MODEL 6
REMARK VINA RESULT:     -11.1      2.118      4.606
REMARK  Name = 
REMARK  3 active torsions:
REMARK  status: ('A' for Active; 'I' for Inactive)
REMARK    1  A    between atoms: O_2  and  C_3
REMARK    2  A    between atoms: C_17  and  C_19
REMARK    3  A    between atoms: C_20  and  O_21
REMARK                            x       y       z     vdW  Elec       q    Type
REMARK                         _______ _______ _______ _____ _____    ______ ____
ROOT
ATOM      3  C   UNL     1      -1.874  -1.977  24.661  0.00  0.00    +0.137 C 
ATOM      4  C   UNL     1      -2.680  -2.125  24.571  0.00  0.00    +0.061 C 
ATOM      5  C   UNL     1      -3.076  -1.402  24.586  0.00  0.00    +0.157 C 
ATOM      6  N   UNL     1      -2.514  -0.806  24.685  0.00  0.00    -0.267 N 
ATOM      7  C   UNL     1      -1.770  -1.161  24.731  0.00  0.00    +0.124 C 
ATOM      8  C   UNL     1      -2.631   0.009  24.734  0.00  0.00    +0.251 C 
ATOM      9  O   UNL     1      -1.950   0.464  24.834  0.00  0.00    -0.270 OA
ATOM     10  C   UNL     1      -3.340   0.430  24.696  0.00  0.00    +0.069 A 
ATOM     11  C   UNL     1      -4.106   0.140  24.600  0.00  0.00    +0.078 A 
ATOM     12  N   UNL     1      -4.353  -0.643  24.518  0.00  0.00    -0.178 NA
ATOM     13  C   UNL     1      -3.894  -1.329  24.512  0.00  0.00    +0.264 C 
ATOM     14  O   UNL     1      -4.309  -2.036  24.419  0.00  0.00    -0.271 OA
ATOM     15  C   UNL     1      -4.745   0.661  24.576  0.00  0.00    +0.017 A 
ATOM     16  C   UNL     1      -4.617   1.473  24.649  0.00  0.00    +0.001 A 
ATOM     17  C   UNL     1      -3.852   1.764  24.745  0.00  0.00    +0.003 A 
ATOM     18  C   UNL     1      -3.212   1.242  24.768  0.00  0.00    +0.006 A 
ENDROOT
BRANCH  17  19
ATOM     19  C   UNL     1      -3.725   2.575  24.817  0.00  0.00    +0.035 A 
ATOM     20  C   UNL     1      -3.695   3.050  24.142  0.00  0.00    +0.139 A 
ATOM     23  C   UNL     1      -3.568   3.862  24.215  0.00  0.00    +0.038 A 
ATOM     24  C   UNL     1      -3.470   4.199  24.962  0.00  0.00    +0.015 A 
ATOM     25  C   UNL     1      -3.500   3.725  25.635  0.00  0.00    +0.058 A 
ATOM     26 CL   UNL     1      -3.402   4.062  26.382  0.00  0.00    -0.082 Cl
ATOM     27  C   UNL     1      -3.627   2.913  25.563  0.00  0.00    +0.014 A 
BRANCH  20  21
ATOM     21  O   UNL     1      -3.793   2.713  23.396  0.00  0.00    -0.471 OA
ATOM     22  C   UNL     1      -3.686   3.173  22.719  0.00  0.00    +0.252 C 
ENDBRANCH  20  21
ENDBRANCH  17  19
BRANCH   3   2
ATOM      1  C   UNL     1      -0.580  -2.400  25.095  0.00  0.00    +0.174 C 
ATOM      2  O   UNL     1      -1.276  -2.544  24.677  0.00  0.00    -0.352 OA
ENDBRANCH   3   2
TORSDOF 3
ENDMDL
MODEL 7
REMARK VINA RESULT:     -10.8      1.503      2.291
REMARK  Name = 
REMARK  3 active torsions:
REMARK  status: ('A' for Active; 'I' for Inactive)
REMARK    1  A    between atoms: O_2  and  C_3
REMARK    2  A    between atoms: C_17  and  C_19
REMARK    3  A    between atoms: C_20  and  O_21
REMARK                            x       y       z     vdW  Elec       q    Type
REMARK                         _______ _______ _______ _____ _____    ______ ____
ROOT
ATOM      3  C   UNL     1      -1.495   3.909  25.392  0.00  0.00    +0.137 C 
ATOM      4  C   UNL     1      -0.764   3.528  25.402  0.00  0.00    +0.061 C 
ATOM      5  C   UNL     1      -0.895   2.720  25.308  0.00  0.00    +0.157 C 
ATOM      6  N   UNL     1      -1.709   2.600  25.240  0.00  0.00    -0.267 N 
ATOM      7  C   UNL     1      -2.080   3.336  25.292  0.00  0.00    +0.124 C 
ATOM      8  C   UNL     1      -2.118   1.892  25.137  0.00  0.00    +0.251 C 
ATOM      9  O   UNL     1      -2.939   1.957  25.088  0.00  0.00    -0.270 OA
ATOM     10  C   UNL     1      -1.815   1.127  25.077  0.00  0.00    +0.069 A 
ATOM     11  C   UNL     1      -1.029   0.881  25.105  0.00  0.00    +0.078 A 
ATOM     12  N   UNL     1      -0.349   1.341  25.200  0.00  0.00    -0.178 NA
ATOM     13  C   UNL     1      -0.291   2.159  25.290  0.00  0.00    +0.264 C 
ATOM     14  O   UNL     1       0.475   2.456  25.373  0.00  0.00    -0.271 OA
ATOM     15  C   UNL     1      -0.842   0.081  25.034  0.00  0.00    +0.017 A 
ATOM     16  C   UNL     1      -1.444  -0.474  24.934  0.00  0.00    +0.001 A 
ATOM     17  C   UNL     1      -2.231  -0.230  24.906  0.00  0.00    +0.003 A 
ATOM     18  C   UNL     1      -2.417   0.571  24.978  0.00  0.00    +0.006 A 
ENDROOT
BRANCH  17  19
ATOM     19  C   UNL     1      -2.833  -0.785  24.807  0.00  0.00    +0.035 A 
ATOM     20  C   UNL     1      -3.080  -1.245  25.447  0.00  0.00    +0.139 A 
ATOM     23  C   UNL     1      -3.681  -1.800  25.348  0.00  0.00    +0.038 A 
ATOM     24  C   UNL     1      -4.036  -1.897  24.609  0.00  0.00    +0.015 A 
ATOM     25  C   UNL     1      -3.788  -1.439  23.970  0.00  0.00    +0.058 A 
ATOM     26 CL   UNL     1      -4.142  -1.536  23.231  0.00  0.00    -0.082 Cl
ATOM     27  C   UNL     1      -3.187  -0.883  24.069  0.00  0.00    +0.014 A 
BRANCH  20  21
ATOM     21  O   UNL     1      -2.726  -1.148  26.186  0.00  0.00    -0.471 OA
ATOM     22  C   UNL     1      -3.010  -1.568  26.837  0.00  0.00    +0.252 C 
ENDBRANCH  20  21
ENDBRANCH  17  19
BRANCH   3   2
ATOM      1  C   UNL     1      -1.207   5.249  24.988  0.00  0.00    +0.174 C 
ATOM      2  O   UNL     1      -1.620   4.721  25.469  0.00  0.00    -0.352 OA
ENDBRANCH   3   2
TORSDOF 3
ENDMDL
MODEL 8
REMARK VINA RESULT:      -9.8     16.102     18.533
REMARK  Name = 
REMARK  3 active torsions:
REMARK  status: ('A' for Active; 'I' for Inactive)
REMARK    1  A    between atoms: O_2  and  C_3
REMARK    2  A    between atoms: C_17  and  C_19
REMARK    3  A    between atoms: C_20  and  O_21
REMARK                            x       y       z     vdW  Elec       q    Type
REMARK                         _______ _______ _______ _____ _____    ______ ____
ROOT
ATOM      3  C   UNL     1      13.828   7.802  17.016  0.00  0.00    +0.137 C 
ATOM      4  C   UNL     1      14.449   7.543  17.493  0.00  0.00    +0.061 C 
ATOM      5  C   UNL     1      14.164   7.463  18.263  0.00  0.00    +0.157 C 
ATOM      6  N   UNL     1      13.366   7.672  18.262  0.00  0.00    -0.267 N 
ATOM      7  C   UNL     1      13.158   7.881  17.490  0.00  0.00    +0.124 C 
ATOM      8  C   UNL     1      12.836   7.683  18.894  0.00  0.00    +0.251 C 
ATOM      9  O   UNL     1      12.067   7.920  18.712  0.00  0.00    -0.270 OA
ATOM     10  C   UNL     1      12.973   7.488  19.683  0.00  0.00    +0.069 A 
ATOM     11  C   UNL     1      13.674   7.234  20.036  0.00  0.00    +0.078 A 
ATOM     12  N   UNL     1      14.412   7.112  19.686  0.00  0.00    -0.178 NA
ATOM     13  C   UNL     1      14.629   7.214  18.896  0.00  0.00    +0.264 C 
ATOM     14  O   UNL     1      15.417   7.044  18.717  0.00  0.00    -0.271 OA
ATOM     15  C   UNL     1      13.694   7.066  20.843  0.00  0.00    +0.017 A 
ATOM     16  C   UNL     1      13.011   7.153  21.298  0.00  0.00    +0.001 A 
ATOM     17  C   UNL     1      12.310   7.407  20.947  0.00  0.00    +0.003 A 
ATOM     18  C   UNL     1      12.291   7.575  20.138  0.00  0.00    +0.006 A 
ENDROOT
BRANCH  17  19
ATOM     19  C   UNL     1      11.628   7.494  21.402  0.00  0.00    +0.035 A 
ATOM     20  C   UNL     1      11.173   6.832  21.594  0.00  0.00    +0.139 A 
ATOM     23  C   UNL     1      10.491   6.919  22.049  0.00  0.00    +0.038 A 
ATOM     24  C   UNL     1      10.262   7.667  22.313  0.00  0.00    +0.015 A 
ATOM     25  C   UNL     1      10.717   8.327  22.120  0.00  0.00    +0.058 A 
ATOM     26 CL   UNL     1      10.488   9.076  22.384  0.00  0.00    -0.082 Cl
ATOM     27  C   UNL     1      11.399   8.241  21.665  0.00  0.00    +0.014 A 
BRANCH  20  21
ATOM     21  O   UNL     1      11.401   6.085  21.331  0.00  0.00    -0.471 OA
ATOM     22  C   UNL     1      10.981   5.417  21.573  0.00  0.00    +0.252 C 
ENDBRANCH  20  21
ENDBRANCH  17  19
BRANCH   3   2
ATOM      1  C   UNL     1      14.020   8.719  15.937  0.00  0.00    +0.174 C 
ATOM      2  O   UNL     1      13.869   7.954  16.206  0.00  0.00    -0.352 OA
ENDBRANCH   3   2
TORSDOF 3
ENDMDL
MODEL 9
REMARK VINA RESULT:      -9.6     18.081     19.958
REMARK  Name = 
REMARK  3 active torsions:
REMARK  status: ('A' for Active; 'I' for Inactive)
REMARK    1  A    between atoms: O_2  and  C_3
REMARK    2  A    between atoms: C_17  and  C_19
REMARK    3  A    between atoms: C_20  and  O_21
REMARK                            x       y       z     vdW  Elec       q    Type
REMARK                         _______ _______ _______ _____ _____    ______ ____
ROOT
ATOM      3  C   UNL     1      11.868   8.704  17.403  0.00  0.00    +0.137 C 
ATOM      4  C   UNL     1      11.526   8.409  18.094  0.00  0.00    +0.061 C 
ATOM      5  C   UNL     1      12.123   8.066  18.548  0.00  0.00    +0.157 C 
ATOM      6  N   UNL     1      12.834   8.149  18.139  0.00  0.00    -0.267 N 
ATOM      7  C   UNL     1      12.677   8.543  17.430  0.00  0.00    +0.124 C 
ATOM      8  C   UNL     1      13.588   7.897  18.360  0.00  0.00    +0.251 C 
ATOM      9  O   UNL     1      14.193   8.064  17.825  0.00  0.00    -0.270 OA
ATOM     10  C   UNL     1      13.817   7.501  19.047  0.00  0.00    +0.069 A 
ATOM     11  C   UNL     1      13.349   7.259  19.681  0.00  0.00    +0.078 A 
ATOM     12  N   UNL     1      12.535   7.353  19.786  0.00  0.00    -0.178 NA
ATOM     13  C   UNL     1      11.990   7.712  19.281  0.00  0.00    +0.264 C 
ATOM     14  O   UNL     1      11.208   7.718  19.545  0.00  0.00    -0.271 OA
ATOM     15  C   UNL     1      13.690   6.866  20.321  0.00  0.00    +0.017 A 
ATOM     16  C   UNL     1      14.502   6.716  20.326  0.00  0.00    +0.001 A 
ATOM     17  C   UNL     1      14.971   6.958  19.692  0.00  0.00    +0.003 A 
ATOM     18  C   UNL     1      14.628   7.351  19.052  0.00  0.00    +0.006 A 
ENDROOT
BRANCH  17  19
ATOM     19  C   UNL     1      15.781   6.808  19.698  0.00  0.00    +0.035 A 
ATOM     20  C   UNL     1      16.278   7.244  20.193  0.00  0.00    +0.139 A 
ATOM     23  C   UNL     1      17.089   7.094  20.199  0.00  0.00    +0.038 A 
ATOM     24  C   UNL     1      17.404   6.508  19.710  0.00  0.00    +0.015 A 
ATOM     25  C   UNL     1      16.908   6.073  19.216  0.00  0.00    +0.058 A 
ATOM     26 CL   UNL     1      17.222   5.487  18.727  0.00  0.00    -0.082 Cl
ATOM     27  C   UNL     1      16.097   6.223  19.210  0.00  0.00    +0.014 A 
BRANCH  20  21
ATOM     21  O   UNL     1      15.964   7.829  20.681  0.00  0.00    -0.471 OA
ATOM     22  C   UNL     1      16.466   8.293  21.145  0.00  0.00    +0.252 C 
ENDBRANCH  20  21
ENDBRANCH  17  19
BRANCH   3   2
ATOM      1  C   UNL     1      10.890   8.696  16.362  0.00  0.00    +0.174 C 
ATOM      2  O   UNL     1      11.471   9.091  16.793  0.00  0.00    -0.352 OA
ENDBRANCH   3   2
TORSDOF 3
ENDMDL
MODEL 10
REMARK VINA RESULT:      -9.5     16.980     19.672
REMARK  Name = 
REMARK  3 active torsions:
REMARK  status: ('A' for Active; 'I' for Inactive)
REMARK    1  A    between atoms: O_2  and  C_3
REMARK    2  A    between atoms: C_17  and  C_19
REMARK    3  A    between atoms: C_20  and  O_21
REMARK                            x       y       z     vdW  Elec       q    Type
REMARK                         _______ _______ _______ _____ _____    ______ ____
ROOT
ATOM      3  C   UNL     1      11.223   7.264  21.121  0.00  0.00    +0.137 C 
ATOM      4  C   UNL     1      11.218   7.836  20.526  0.00  0.00    +0.061 C 
ATOM      5  C   UNL     1      11.978   7.880  20.208  0.00  0.00    +0.157 C 
ATOM      6  N   UNL     1      12.453   7.335  20.606  0.00  0.00    -0.267 N 
ATOM      7  C   UNL     1      11.986   6.954  21.171  0.00  0.00    +0.124 C 
ATOM      8  C   UNL     1      13.253   7.169  20.492  0.00  0.00    +0.251 C 
ATOM      9  O   UNL     1      13.571   6.588  20.984  0.00  0.00    -0.270 OA
ATOM     10  C   UNL     1      13.776   7.507  19.952  0.00  0.00    +0.069 A 
ATOM     11  C   UNL     1      13.628   8.095  19.392  0.00  0.00    +0.078 A 
ATOM     12  N   UNL     1      12.920   8.489  19.234  0.00  0.00    -0.178 NA
ATOM     13  C   UNL     1      12.186   8.393  19.598  0.00  0.00    +0.264 C 
ATOM     14  O   UNL     1      11.580   8.875  19.312  0.00  0.00    -0.271 OA
ATOM     15  C   UNL     1      14.235   8.358  18.899  0.00  0.00    +0.017 A 
ATOM     16  C   UNL     1      14.991   8.033  18.967  0.00  0.00    +0.001 A 
ATOM     17  C   UNL     1      15.139   7.446  19.527  0.00  0.00    +0.003 A 
ATOM     18  C   UNL     1      14.531   7.183  20.019  0.00  0.00    +0.006 A 
ENDROOT
BRANCH  17  19
ATOM     19  C   UNL     1      15.894   7.121  19.594  0.00  0.00    +0.035 A 
ATOM     20  C   UNL     1      16.442   7.455  20.115  0.00  0.00    +0.139 A 
ATOM     23  C   UNL     1      17.197   7.131  20.182  0.00  0.00    +0.038 A 
ATOM     24  C   UNL     1      17.405   6.472  19.730  0.00  0.00    +0.015 A 
ATOM     25  C   UNL     1      16.858   6.139  19.211  0.00  0.00    +0.058 A 
ATOM     26 CL   UNL     1      17.067   5.481  18.759  0.00  0.00    -0.082 Cl
ATOM     27  C   UNL     1      16.103   6.464  19.144  0.00  0.00    +0.014 A 
BRANCH  20  21
ATOM     21  O   UNL     1      16.234   8.113  20.566  0.00  0.00    -0.471 OA
ATOM     22  C   UNL     1      16.783   8.450  21.082  0.00  0.00    +0.252 C 
ENDBRANCH  20  21
ENDBRANCH  17  19
BRANCH   3   2
ATOM      1  C   UNL     1      10.325   7.528  22.201  0.00  0.00    +0.174 C 
ATOM      2  O   UNL     1      10.578   7.042  21.584  0.00  0.00    -0.352 OA
ENDBRANCH   3   2
TORSDOF 3
ENDMDL
