MODEL 1
REMARK VINA RESULT:      -8.8      0.000      0.000
REMARK  Name = 
REMARK  6 active torsions:
REMARK  status: ('A' for Active; 'I' for Inactive)
REMARK    1  A    between atoms: O_2  and  C_3
REMARK    2  A    between atoms: C_5  and  S_6
REMARK    3  A    between atoms: C_10  and  C_11
REMARK    4  A    between atoms: N_13  and  C_14
REMARK    5  A    between atoms: CA_23  and  CB_24
REMARK    6  A    between atoms: CB_24  and  CG_25
REMARK                            x       y       z     vdW  Elec       q    Type
REMARK                         _______ _______ _______ _____ _____    ______ ____
ROOT
ATOM     14  C   UNK A   1      -1.648   1.076  24.501  0.00  0.00    +0.099 C 
ATOM     15  C   UNK A   1      -0.977   0.623  24.666  0.00  0.00    +0.043 C 
ATOM     16  C   UNK A   1      -1.033  -0.200  24.693  0.00  0.00    +0.096 C 
ATOM     17  N   UNK A   1      -1.757  -0.571  24.554  0.00  0.00    -0.271 N 
ATOM     18  C   UNK A   1      -2.427  -0.118  24.389  0.00  0.00    +0.155 C 
ATOM     19  C   UNK A   1      -2.372   0.705  24.362  0.00  0.00    +0.051 C 
ATOM     20  C   UNK A   1      -3.151  -0.487  24.251  0.00  0.00    +0.260 C 
ATOM     21  O   UNK A   1      -3.820  -0.035  24.085  0.00  0.00    -0.272 OA
ATOM     22  N   LEU A   2      -3.206  -1.310  24.277  0.00  0.00    -0.196 NA
ATOM     23  CA  LEU A   2      -2.535  -1.763  24.443  0.00  0.00    +0.171 C 
ATOM     28  C   LEU A   2      -1.812  -1.393  24.581  0.00  0.00    +0.246 C 
ATOM     29  O   LEU A   2      -1.142  -1.846  24.746  0.00  0.00    -0.273 OA
ENDROOT
BRANCH  14  13
ATOM     11  C   UNK A   1      -1.616   2.336  25.172  0.00  0.00    +0.268 C 
ATOM     12  O   UNK A   1      -1.694   1.951  25.898  0.00  0.00    -0.268 OA
ATOM     13  N   UNK A   1      -1.593   1.898  24.474  0.00  0.00    -0.203 NA
BRANCH  11  10
ATOM      3  C   UNK A   1      -2.205   3.623  25.367  0.00  0.00    +0.144 A 
ATOM      4  C   UNK A   1      -2.150   4.446  25.340  0.00  0.00    +0.043 A 
ATOM      5  C   UNK A   1      -1.450   4.804  25.093  0.00  0.00    +0.028 A 
ATOM      8  C   UNK A   1      -0.804   4.340  24.871  0.00  0.00    +0.006 A 
ATOM      9  C   UNK A   1      -0.860   3.517  24.898  0.00  0.00    +0.008 A 
ATOM     10  C   UNK A   1      -1.561   3.159  25.146  0.00  0.00    +0.089 A 
BRANCH   3   2
ATOM      1  C   UNK A   1      -3.563   3.727  25.800  0.00  0.00    +0.252 C 
ATOM      2  O   UNK A   1      -2.907   3.264  25.614  0.00  0.00    -0.471 OA
ENDBRANCH   3   2
BRANCH   5   6
ATOM      6  S   UNK A   1      -1.394   5.627  25.066  0.00  0.00    -0.113 S 
ATOM      7  C   UNK A   1      -0.759   5.985  24.681  0.00  0.00    +0.074 C 
ENDBRANCH   5   6
ENDBRANCH  11  10
ENDBRANCH  14  13
BRANCH  23  24
ATOM     24  CB  LEU A   2      -2.591  -2.586  24.469  0.00  0.00    +0.031 C 
BRANCH  24  25
ATOM     25  CG  LEU A   2      -3.314  -2.945  24.639  0.00  0.00    +0.002 C 
ATOM     26  CD1 LEU A   2      -3.819  -3.167  24.026  0.00  0.00    +0.000 C 
ATOM     27  CD2 LEU A   2      -3.533  -3.081  25.424  0.00  0.00    +0.000 C 
ENDBRANCH  24  25
ENDBRANCH  23  24
TORSDOF 6
ENDMDL
MODEL 2
REMARK VINA RESULT:      -8.8      2.063      5.835
REMARK  Name = 
REMARK  6 active torsions:
REMARK  status: ('A' for Active; 'I' for Inactive)
REMARK    1  A    between atoms: O_2  and  C_3
REMARK    2  A    between atoms: C_5  and  S_6
REMARK    3  A    between atoms: C_10  and  C_11
REMARK    4  A    between atoms: N_13  and  C_14
REMARK    5  A    between atoms: CA_23  and  CB_24
REMARK    6  A    between atoms: CB_24  and  CG_25
REMARK                            x       y       z     vdW  Elec       q    Type
REMARK                         _______ _______ _______ _____ _____    ______ ____
ROOT
ATOM     14  C   UNK A   1      -3.163   1.369  24.621  0.00  0.00    +0.099 C 
ATOM     15  C   UNK A   1      -3.728   1.795  25.046  0.00  0.00    +0.043 C 
ATOM     16  C   UNK A   1      -3.563   2.564  25.296  0.00  0.00    +0.096 C 
ATOM     17  N   UNK A   1      -2.833   2.907  25.123  0.00  0.00    -0.271 N 
ATOM     18  C   UNK A   1      -2.267   2.481  24.698  0.00  0.00    +0.155 C 
ATOM     19  C   UNK A   1      -2.433   1.713  24.447  0.00  0.00    +0.051 C 
ATOM     20  C   UNK A   1      -1.538   2.824  24.524  0.00  0.00    +0.260 C 
ATOM     21  O   UNK A   1      -0.973   2.399  24.100  0.00  0.00    -0.272 OA
ATOM     22  N   LEU A   2      -1.373   3.592  24.775  0.00  0.00    -0.196 NA
ATOM     23  CA  LEU A   2      -1.939   4.018  25.200  0.00  0.00    +0.171 C 
ATOM     28  C   LEU A   2      -2.668   3.675  25.374  0.00  0.00    +0.246 C 
ATOM     29  O   LEU A   2      -3.233   4.100  25.798  0.00  0.00    -0.273 OA
ENDROOT
BRANCH  14  13
ATOM     11  C   UNK A   1      -3.251  -0.029  24.895  0.00  0.00    +0.268 C 
ATOM     12  O   UNK A   1      -3.009   0.108  25.673  0.00  0.00    -0.268 OA
ATOM     13  N   UNK A   1      -3.328   0.601  24.370  0.00  0.00    -0.203 NA
BRANCH  11  10
ATOM      3  C   UNK A   1      -2.842  -1.386  24.711  0.00  0.00    +0.144 A 
ATOM      4  C   UNK A   1      -3.007  -2.155  24.460  0.00  0.00    +0.043 A 
ATOM      5  C   UNK A   1      -3.747  -2.335  24.143  0.00  0.00    +0.028 A 
ATOM      8  C   UNK A   1      -4.322  -1.746  24.077  0.00  0.00    +0.006 A 
ATOM      9  C   UNK A   1      -4.156  -0.978  24.328  0.00  0.00    +0.008 A 
ATOM     10  C   UNK A   1      -3.416  -0.798  24.644  0.00  0.00    +0.089 A 
BRANCH   3   2
ATOM      1  C   UNK A   1      -1.489  -1.756  24.984  0.00  0.00    +0.252 C 
ATOM      2  O   UNK A   1      -2.101  -1.206  25.028  0.00  0.00    -0.471 OA
ENDBRANCH   3   2
BRANCH   5   6
ATOM      6  S   UNK A   1      -3.913  -3.103  23.892  0.00  0.00    -0.113 S 
ATOM      7  C   UNK A   1      -4.537  -3.241  23.372  0.00  0.00    +0.074 C 
ENDBRANCH   5   6
ENDBRANCH  11  10
ENDBRANCH  14  13
BRANCH  23  24
ATOM     24  CB  LEU A   2      -1.774   4.787  25.451  0.00  0.00    +0.031 C 
BRANCH  24  25
ATOM     25  CG  LEU A   2      -1.318   5.285  24.978  0.00  0.00    +0.002 C 
ATOM     26  CD1 LEU A   2      -0.496   5.215  24.975  0.00  0.00    +0.000 C 
ATOM     27  CD2 LEU A   2      -1.684   5.855  24.506  0.00  0.00    +0.000 C 
ENDBRANCH  24  25
ENDBRANCH  23  24
TORSDOF 6
ENDMDL
MODEL 3
REMARK VINA RESULT:      -8.2      2.431      4.408
REMARK  Name = 
REMARK  6 active torsions:
REMARK  status: ('A' for Active; 'I' for Inactive)
REMARK    1  A    between atoms: O_2  and  C_3
REMARK    2  A    between atoms: C_5  and  S_6
REMARK    3  A    between atoms: C_10  and  C_11
REMARK    4  A    between atoms: N_13  and  C_14
REMARK    5  A    between atoms: CA_23  and  CB_24
REMARK    6  A    between atoms: CB_24  and  CG_25
REMARK                            x       y       z     vdW  Elec       q    Type
REMARK                         _______ _______ _______ _____ _____    ______ ____
ROOT
ATOM     14  C   UNK A   1      -2.018   1.739  24.040  0.00  0.00    +0.099 C 
ATOM     15  C   UNK A   1      -1.990   2.510  24.336  0.00  0.00    +0.043 C 
ATOM     16  C   UNK A   1      -2.662   2.845  24.679  0.00  0.00    +0.096 C 
ATOM     17  N   UNK A   1      -3.362   2.410  24.726  0.00  0.00    -0.271 N 
ATOM     18  C   UNK A   1      -3.390   1.639  24.431  0.00  0.00    +0.155 C 
ATOM     19  C   UNK A   1      -2.718   1.305  24.088  0.00  0.00    +0.051 C 
ATOM     20  C   UNK A   1      -4.089   1.205  24.478  0.00  0.00    +0.260 C 
ATOM     21  O   UNK A   1      -4.117   0.435  24.183  0.00  0.00    -0.272 OA
ATOM     22  N   LEU A   2      -4.760   1.539  24.820  0.00  0.00    -0.196 NA
ATOM     23  CA  LEU A   2      -4.732   2.310  25.116  0.00  0.00    +0.171 C 
ATOM     28  C   LEU A   2      -4.033   2.744  25.069  0.00  0.00    +0.246 C 
ATOM     29  O   LEU A   2      -4.005   3.514  25.364  0.00  0.00    -0.273 OA
ENDROOT
BRANCH  14  13
ATOM     11  C   UNK A   1      -0.768   1.061  24.174  0.00  0.00    +0.268 C 
ATOM     12  O   UNK A   1      -0.861   1.052  24.995  0.00  0.00    -0.268 OA
ATOM     13  N   UNK A   1      -1.347   1.405  23.698  0.00  0.00    -0.203 NA
BRANCH  11  10
ATOM      3  C   UNK A   1       0.016  -0.090  23.855  0.00  0.00    +0.144 A 
ATOM      4  C   UNK A   1       0.688  -0.425  23.513  0.00  0.00    +0.043 A 
ATOM      5  C   UNK A   1       1.248   0.058  23.147  0.00  0.00    +0.028 A 
ATOM      8  C   UNK A   1       1.136   0.876  23.123  0.00  0.00    +0.006 A 
ATOM      9  C   UNK A   1       0.463   1.209  23.465  0.00  0.00    +0.008 A 
ATOM     10  C   UNK A   1      -0.096   0.726  23.832  0.00  0.00    +0.089 A 
BRANCH   3   2
ATOM      1  C   UNK A   1      -0.388  -1.375  24.331  0.00  0.00    +0.252 C 
ATOM      2  O   UNK A   1      -0.544  -0.573  24.222  0.00  0.00    -0.471 OA
ENDBRANCH   3   2
BRANCH   5   6
ATOM      6  S   UNK A   1       1.920  -0.276  22.804  0.00  0.00    -0.113 S 
ATOM      7  C   UNK A   1       2.584   0.191  22.660  0.00  0.00    +0.074 C 
ENDBRANCH   5   6
ENDBRANCH  11  10
ENDBRANCH  14  13
BRANCH  23  24
ATOM     24  CB  LEU A   2      -5.404   2.644  25.459  0.00  0.00    +0.031 C 
BRANCH  24  25
ATOM     25  CG  LEU A   2      -6.072   2.179  25.595  0.00  0.00    +0.002 C 
ATOM     26  CD1 LEU A   2      -6.610   2.041  24.985  0.00  0.00    +0.000 C 
ATOM     27  CD2 LEU A   2      -6.202   1.852  26.341  0.00  0.00    +0.000 C 
ENDBRANCH  24  25
ENDBRANCH  23  24
TORSDOF 6
ENDMDL
MODEL 4
REMARK VINA RESULT:      -8.2      2.465      3.957
REMARK  Name = 
REMARK  6 active torsions:
REMARK  status: ('A' for Active; 'I' for Inactive)
REMARK    1  A    between atoms: O_2  and  C_3
REMARK    2  A    between atoms: C_5  and  S_6
REMARK    3  A    between atoms: C_10  and  C_11
REMARK    4  A    between atoms: N_13  and  C_14
REMARK    5  A    between atoms: CA_23  and  CB_24
REMARK    6  A    between atoms: CB_24  and  CG_25
REMARK                            x       y       z     vdW  Elec       q    Type
REMARK                         _______ _______ _______ _____ _____    ______ ____
ROOT
ATOM     14  C   UNK A   1      -1.985   0.522  24.632  0.00  0.00    +0.099 C 
ATOM     15  C   UNK A   1      -1.900  -0.300  24.625  0.00  0.00    +0.043 C 
ATOM     16  C   UNK A   1      -1.195  -0.639  24.360  0.00  0.00    +0.096 C 
ATOM     17  N   UNK A   1      -0.576  -0.158  24.104  0.00  0.00    -0.271 N 
ATOM     18  C   UNK A   1      -0.661   0.664  24.111  0.00  0.00    +0.155 C 
ATOM     19  C   UNK A   1      -1.366   1.003  24.375  0.00  0.00    +0.051 C 
ATOM     20  C   UNK A   1      -0.043   1.145  23.854  0.00  0.00    +0.260 C 
ATOM     21  O   UNK A   1      -0.128   1.965  23.861  0.00  0.00    -0.272 OA
ATOM     22  N   LEU A   2       0.661   0.806  23.590  0.00  0.00    -0.196 NA
ATOM     23  CA  LEU A   2       0.746  -0.016  23.583  0.00  0.00    +0.171 C 
ATOM     28  C   LEU A   2       0.128  -0.496  23.840  0.00  0.00    +0.246 C 
ATOM     29  O   LEU A   2       0.213  -1.317  23.833  0.00  0.00    -0.273 OA
ENDROOT
BRANCH  14  13
ATOM     11  C   UNK A   1      -3.325   0.945  24.378  0.00  0.00    +0.268 C 
ATOM     12  O   UNK A   1      -3.258   0.690  23.596  0.00  0.00    -0.268 OA
ATOM     13  N   UNK A   1      -2.689   0.860  24.896  0.00  0.00    -0.203 NA
BRANCH  11  10
ATOM      3  C   UNK A   1      -4.233   2.048  24.409  0.00  0.00    +0.144 A 
ATOM      4  C   UNK A   1      -4.938   2.387  24.672  0.00  0.00    +0.043 A 
ATOM      5  C   UNK A   1      -5.439   1.961  25.170  0.00  0.00    +0.028 A 
ATOM      8  C   UNK A   1      -5.236   1.195  25.403  0.00  0.00    +0.006 A 
ATOM      9  C   UNK A   1      -4.532   0.857  25.139  0.00  0.00    +0.008 A 
ATOM     10  C   UNK A   1      -4.030   1.284  24.642  0.00  0.00    +0.089 A 
BRANCH   3   2
ATOM      1  C   UNK A   1      -3.924   3.246  23.694  0.00  0.00    +0.252 C 
ATOM      2  O   UNK A   1      -3.731   2.475  23.911  0.00  0.00    -0.471 OA
ENDBRANCH   3   2
BRANCH   5   6
ATOM      6  S   UNK A   1      -6.144   2.298  25.434  0.00  0.00    -0.113 S 
ATOM      7  C   UNK A   1      -6.335   2.280  26.235  0.00  0.00    +0.074 C 
ENDBRANCH   5   6
ENDBRANCH  11  10
ENDBRANCH  14  13
BRANCH  23  24
ATOM     24  CB  LEU A   2       1.451  -0.354  23.319  0.00  0.00    +0.031 C 
BRANCH  24  25
ATOM     25  CG  LEU A   2       1.858  -0.017  22.685  0.00  0.00    +0.002 C 
ATOM     26  CD1 LEU A   2       1.613  -0.166  21.912  0.00  0.00    +0.000 C 
ATOM     27  CD2 LEU A   2       2.510   0.469  22.825  0.00  0.00    +0.000 C 
ENDBRANCH  24  25
ENDBRANCH  23  24
TORSDOF 6
ENDMDL
