REMARK  Name = 
REMARK  3 active torsions:
REMARK  status: ('A' for Active; 'I' for Inactive)
REMARK    1  A    between atoms: C_4  and  C_5
REMARK    2  A    between atoms: C_5  and  N_6
REMARK    3  A    between atoms: C_9  and  C_11
REMARK                            x       y       z     vdW  Elec       q    Type
REMARK                         _______ _______ _______ _____ _____    ______ ____
ROOT
ATOM      6  N   UNL     1      -0.765  -6.391   0.000  0.00  0.00    -0.268 NA
ATOM      7  C   UNL     1      -1.101  -7.145   0.000  0.00  0.00    +0.073 C 
ATOM      8  C   UNL     1      -1.921  -7.058   0.000  0.00  0.00    +0.026 C 
ATOM      9  C   UNL     1      -2.093  -6.251   0.000  0.00  0.00    +0.076 C 
ATOM     10  C   UNL     1      -1.378  -5.839   0.000  0.00  0.00    +0.080 C 
ENDROOT
BRANCH   9  11
ATOM     11  C   UNL     1      -2.847  -5.916   0.000  0.00  0.00    +0.140 A 
ATOM     12  N   UNL     1      -3.018  -5.109   0.000  0.00  0.00    -0.229 NA
ATOM     13  C   UNL     1      -3.839  -5.023   0.000  0.00  0.00    +0.100 A 
ATOM     14  C   UNL     1      -4.174  -5.776   0.000  0.00  0.00    +0.100 A 
ATOM     15  N   UNL     1      -3.561  -6.328   0.000  0.00  0.00    -0.229 NA
ATOM     16  C   UNL     1      -4.995  -5.863   0.000  0.00  0.00    +0.020 A 
ATOM     17  C   UNL     1      -5.479  -5.195   0.000  0.00  0.00    -0.003 A 
ATOM     18  C   UNL     1      -5.144  -4.441   0.000  0.00  0.00    -0.020 A 
ATOM     19  C   UNL     1      -5.629  -3.774   0.000  0.00  0.00    +0.031 C 
ATOM     20  C   UNL     1      -4.324  -4.355   0.000  0.00  0.00    +0.016 A 
ENDBRANCH   9  11
BRANCH   6   5
ATOM      5  C   UNL     1       0.042  -6.219   0.000  0.00  0.00    +0.101 C 
BRANCH   5   4
ATOM      1  C   UNL     1       0.042  -3.315   0.000  0.00  0.00    +0.130 C 
ATOM      2  N   UNL     1       0.297  -4.100   0.000  0.00  0.00    -0.324 N 
ATOM      3  C   UNL     1      -0.188  -4.767   0.000  0.00  0.00    +0.073 A 
ATOM      4  C   UNL     1       0.297  -5.435   0.000  0.00  0.00    +0.012 A 
ATOM     21  C   UNL     1       1.081  -5.180   0.000  0.00  0.00    +0.015 A 
ATOM     22  C   UNL     1       1.081  -4.355   0.000  0.00  0.00    +0.060 A 
ATOM     23  C   UNL     1       1.796  -3.942   0.000  0.00  0.00    +0.017 A 
ATOM     24  C   UNL     1       2.510  -4.355   0.000  0.00  0.00    +0.001 A 
ATOM     25  C   UNL     1       2.510  -5.180   0.000  0.00  0.00    +0.000 A 
ATOM     26  C   UNL     1       1.796  -5.592   0.000  0.00  0.00    +0.001 A 
ENDBRANCH   5   4
ENDBRANCH   6   5
TORSDOF 3
