MODEL 1
REMARK VINA RESULT:     -18.1      0.000      0.000
REMARK  Name = 
REMARK  4 active torsions:
REMARK  status: ('A' for Active; 'I' for Inactive)
REMARK    1  A    between atoms: C_5  and  C_8
REMARK    2  A    between atoms: C_17  and  C_24
REMARK    3  A    between atoms: C_27  and  O_28
REMARK    4  A    between atoms: O_28  and  C_29
REMARK                            x       y       z     vdW  Elec       q    Type
REMARK                         _______ _______ _______ _____ _____    ______ ____
ROOT
ATOM      8  C   UNL     1      -3.930   3.432  24.380  0.00  0.00    +0.249 C 
ATOM      9  O   UNL     1      -3.771   4.289  24.189  0.00  0.00    -0.270 OA
ATOM     10  N   UNL     1      -3.303   2.842  24.174  0.00  0.00    -0.276 N 
ATOM     11  C   UNL     1      -2.551   2.675  23.852  0.00  0.00    +0.096 C 
ATOM     12  C   UNL     1      -2.530   1.695  23.978  0.00  0.00    +0.043 C 
ATOM     13  C   UNL     1      -2.360   0.899  24.010  0.00  0.00    +0.011 C 
ATOM     14  C   UNL     1      -2.887   1.325  24.193  0.00  0.00    +0.058 C 
ATOM     15  C   UNL     1      -2.892   2.271  24.064  0.00  0.00    +0.099 C 
ATOM     16  C   UNL     1      -3.722   1.314  24.578  0.00  0.00    +0.041 A 
ATOM     17  C   UNL     1      -4.270   0.791  24.903  0.00  0.00    +0.012 A 
ATOM     18  C   UNL     1      -4.988   1.075  25.194  0.00  0.00    +0.006 A 
ATOM     19  C   UNL     1      -5.158   1.882  25.160  0.00  0.00    +0.061 A 
ATOM     20  C   UNL     1      -4.609   2.405  24.835  0.00  0.00    +0.261 A 
ATOM     21  O   UNL     1      -4.769   3.422  24.767  0.00  0.00    -0.267 OA
ATOM     22  N   UNL     1      -3.891   2.121  24.544  0.00  0.00    -0.299 N 
ATOM     23  C   UNL     1      -3.403   1.694  24.379  0.00  0.00    +0.110 C 
ENDROOT
BRANCH   8   5
ATOM      1  F   UNL     1      -6.313   1.657  26.038  0.00  0.00    -0.204 F 
ATOM      2  C   UNL     1      -5.744   2.075  25.614  0.00  0.00    +0.140 A 
ATOM      3  C   UNL     1      -5.760   1.891  24.824  0.00  0.00    +0.030 A 
ATOM      4  C   UNL     1      -5.102   2.382  24.373  0.00  0.00    +0.007 A 
ATOM      5  C   UNL     1      -4.604   2.911  24.763  0.00  0.00    +0.054 A 
ATOM      6  C   UNL     1      -4.674   3.023  25.576  0.00  0.00    +0.007 A 
ATOM      7  C   UNL     1      -5.245   2.605  26.002  0.00  0.00    +0.030 A 
ENDBRANCH   8   5
BRANCH  17  24
ATOM     24  C   UNL     1      -4.101  -0.016  24.937  0.00  0.00    +0.001 A 
ATOM     25  C   UNL     1      -3.726  -0.331  25.601  0.00  0.00    +0.003 A 
ATOM     26  C   UNL     1      -3.557  -1.138  25.635  0.00  0.00    +0.037 A 
ATOM     27  C   UNL     1      -3.763  -1.630  25.005  0.00  0.00    +0.147 A 
ATOM     33  C   UNL     1      -4.139  -1.315  24.342  0.00  0.00    +0.037 A 
ATOM     34  C   UNL     1      -4.308  -0.508  24.308  0.00  0.00    +0.003 A 
BRANCH  27  28
ATOM     28  O   UNL     1      -3.587  -2.469  25.041  0.00  0.00    -0.404 OA
BRANCH  28  29
ATOM     29  C   UNL     1      -3.180  -2.943  24.478  0.00  0.00    +0.575 C 
ATOM     30  F   UNL     1      -2.781  -3.409  23.926  0.00  0.00    -0.133 F 
ATOM     31  F   UNL     1      -2.458  -2.697  24.792  0.00  0.00    -0.133 F 
ATOM     32  F   UNL     1      -3.902  -3.190  24.165  0.00  0.00    -0.133 F 
ENDBRANCH  28  29
ENDBRANCH  27  28
ENDBRANCH  17  24
TORSDOF 4
ENDMDL
MODEL 2
REMARK VINA RESULT:     -17.4      1.087      2.067
REMARK  Name = 
REMARK  4 active torsions:
REMARK  status: ('A' for Active; 'I' for Inactive)
REMARK    1  A    between atoms: C_5  and  C_8
REMARK    2  A    between atoms: C_17  and  C_24
REMARK    3  A    between atoms: C_27  and  O_28
REMARK    4  A    between atoms: O_28  and  C_29
REMARK                            x       y       z     vdW  Elec       q    Type
REMARK                         _______ _______ _______ _____ _____    ______ ____
ROOT
ATOM      8  C   UNL     1      -4.301   3.631  24.681  0.00  0.00    +0.249 C 
ATOM      9  O   UNL     1      -4.553   4.483  24.766  0.00  0.00    -0.270 OA
ATOM     10  N   UNL     1      -4.840   3.008  25.005  0.00  0.00    -0.276 N 
ATOM     11  C   UNL     1      -5.549   2.803  25.396  0.00  0.00    +0.096 C 
ATOM     12  C   UNL     1      -5.456   1.820  25.404  0.00  0.00    +0.043 C 
ATOM     13  C   UNL     1      -5.529   1.013  25.490  0.00  0.00    +0.011 C 
ATOM     14  C   UNL     1      -5.067   1.466  25.218  0.00  0.00    +0.058 C 
ATOM     15  C   UNL     1      -5.172   2.415  25.218  0.00  0.00    +0.099 C 
ATOM     16  C   UNL     1      -4.258   1.496  24.784  0.00  0.00    +0.041 A 
ATOM     17  C   UNL     1      -3.666   0.999  24.497  0.00  0.00    +0.012 A 
ATOM     18  C   UNL     1      -3.003   1.319  24.124  0.00  0.00    +0.006 A 
ATOM     19  C   UNL     1      -2.932   2.137  24.038  0.00  0.00    +0.061 A 
ATOM     20  C   UNL     1      -3.524   2.634  24.325  0.00  0.00    +0.261 A 
ATOM     21  O   UNL     1      -3.487   3.663  24.245  0.00  0.00    -0.267 OA
ATOM     22  N   UNL     1      -4.187   2.314  24.698  0.00  0.00    -0.299 N 
ATOM     23  C   UNL     1      -4.611   1.861  24.951  0.00  0.00    +0.110 C 
ENDROOT
BRANCH   8   5
ATOM      1  F   UNL     1      -1.537   1.945  23.632  0.00  0.00    -0.204 F 
ATOM      2  C   UNL     1      -2.220   2.344  23.865  0.00  0.00    +0.140 A 
ATOM      3  C   UNL     1      -2.832   2.221  23.347  0.00  0.00    +0.030 A 
ATOM      4  C   UNL     1      -3.590   2.687  23.641  0.00  0.00    +0.007 A 
ATOM      5  C   UNL     1      -3.587   3.142  24.329  0.00  0.00    +0.054 A 
ATOM      6  C   UNL     1      -2.903   3.198  24.785  0.00  0.00    +0.007 A 
ATOM      7  C   UNL     1      -2.219   2.799  24.552  0.00  0.00    +0.030 A 
ENDBRANCH   8   5
BRANCH  17  24
ATOM     24  C   UNL     1      -3.736   0.181  24.583  0.00  0.00    +0.001 A 
ATOM     25  C   UNL     1      -3.455  -0.188  25.264  0.00  0.00    +0.003 A 
ATOM     26  C   UNL     1      -3.526  -1.005  25.350  0.00  0.00    +0.037 A 
ATOM     27  C   UNL     1      -3.878  -1.454  24.754  0.00  0.00    +0.147 A 
ATOM     33  C   UNL     1      -4.159  -1.085  24.072  0.00  0.00    +0.037 A 
ATOM     34  C   UNL     1      -4.088  -0.267  23.987  0.00  0.00    +0.003 A 
BRANCH  27  28
ATOM     28  O   UNL     1      -3.951  -2.305  24.844  0.00  0.00    -0.404 OA
BRANCH  28  29
ATOM     29  C   UNL     1      -3.581  -2.912  24.395  0.00  0.00    +0.575 C 
ATOM     30  F   UNL     1      -3.219  -3.509  23.954  0.00  0.00    -0.133 F 
ATOM     31  F   UNL     1      -2.925  -2.882  24.894  0.00  0.00    -0.133 F 
ATOM     32  F   UNL     1      -4.237  -2.943  23.896  0.00  0.00    -0.133 F 
ENDBRANCH  28  29
ENDBRANCH  27  28
ENDBRANCH  17  24
TORSDOF 4
ENDMDL
MODEL 3
REMARK VINA RESULT:     -16.7      1.656      4.501
REMARK  Name = 
REMARK  4 active torsions:
REMARK  status: ('A' for Active; 'I' for Inactive)
REMARK    1  A    between atoms: C_5  and  C_8
REMARK    2  A    between atoms: C_17  and  C_24
REMARK    3  A    between atoms: C_27  and  O_28
REMARK    4  A    between atoms: O_28  and  C_29
REMARK                            x       y       z     vdW  Elec       q    Type
REMARK                         _______ _______ _______ _____ _____    ______ ____
ROOT
ATOM      8  C   UNL     1      -1.685  -1.982  24.817  0.00  0.00    +0.249 C 
ATOM      9  O   UNL     1      -1.004  -2.551  24.913  0.00  0.00    -0.270 OA
ATOM     10  N   UNL     1      -1.563  -1.147  25.084  0.00  0.00    -0.276 N 
ATOM     11  C   UNL     1      -1.067  -0.564  25.419  0.00  0.00    +0.096 C 
ATOM     12  C   UNL     1      -1.683   0.208  25.400  0.00  0.00    +0.043 C 
ATOM     13  C   UNL     1      -2.061   0.928  25.455  0.00  0.00    +0.011 C 
ATOM     14  C   UNL     1      -2.209   0.281  25.228  0.00  0.00    +0.058 C 
ATOM     15  C   UNL     1      -1.602  -0.456  25.253  0.00  0.00    +0.099 C 
ATOM     16  C   UNL     1      -2.885  -0.214  24.851  0.00  0.00    +0.041 A 
ATOM     17  C   UNL     1      -3.663  -0.139  24.588  0.00  0.00    +0.012 A 
ATOM     18  C   UNL     1      -4.056  -0.792  24.271  0.00  0.00    +0.006 A 
ATOM     19  C   UNL     1      -3.671  -1.519  24.218  0.00  0.00    +0.061 A 
ATOM     20  C   UNL     1      -2.893  -1.594  24.481  0.00  0.00    +0.261 A 
ATOM     21  O   UNL     1      -2.364  -2.480  24.438  0.00  0.00    -0.267 OA
ATOM     22  N   UNL     1      -2.500  -0.942  24.797  0.00  0.00    -0.299 N 
ATOM     23  C   UNL     1      -2.384  -0.316  25.006  0.00  0.00    +0.110 C 
ENDROOT
BRANCH   8   5
ATOM      1  F   UNL     1      -4.955  -2.157  23.893  0.00  0.00    -0.204 F 
ATOM      2  C   UNL     1      -4.158  -2.099  24.095  0.00  0.00    +0.140 A 
ATOM      3  C   UNL     1      -3.739  -1.668  23.551  0.00  0.00    +0.030 A 
ATOM      4  C   UNL     1      -2.840  -1.623  23.810  0.00  0.00    +0.007 A 
ATOM      5  C   UNL     1      -2.562  -1.984  24.498  0.00  0.00    +0.054 A 
ATOM      6  C   UNL     1      -3.080  -2.403  24.984  0.00  0.00    +0.007 A 
ATOM      7  C   UNL     1      -3.879  -2.460  24.782  0.00  0.00    +0.030 A 
ENDBRANCH   8   5
BRANCH  17  24
ATOM     24  C   UNL     1      -4.049   0.589  24.641  0.00  0.00    +0.001 A 
ATOM     25  C   UNL     1      -4.545   0.747  25.281  0.00  0.00    +0.003 A 
ATOM     26  C   UNL     1      -4.930   1.474  25.334  0.00  0.00    +0.037 A 
ATOM     27  C   UNL     1      -4.820   2.044  24.748  0.00  0.00    +0.147 A 
ATOM     33  C   UNL     1      -4.324   1.886  24.108  0.00  0.00    +0.037 A 
ATOM     34  C   UNL     1      -3.938   1.158  24.055  0.00  0.00    +0.003 A 
BRANCH  27  28
ATOM     28  O   UNL     1      -5.221   2.801  24.804  0.00  0.00    -0.404 OA
BRANCH  28  29
ATOM     29  C   UNL     1      -5.042   3.453  25.304  0.00  0.00    +0.575 C 
ATOM     30  F   UNL     1      -4.867   4.092  25.795  0.00  0.00    -0.133 F 
ATOM     31  F   UNL     1      -4.488   3.723  24.755  0.00  0.00    -0.133 F 
ATOM     32  F   UNL     1      -5.595   3.183  25.853  0.00  0.00    -0.133 F 
ENDBRANCH  28  29
ENDBRANCH  27  28
ENDBRANCH  17  24
TORSDOF 4
ENDMDL
MODEL 4
REMARK VINA RESULT:     -16.3      1.640      2.585
REMARK  Name = 
REMARK  4 active torsions:
REMARK  status: ('A' for Active; 'I' for Inactive)
REMARK    1  A    between atoms: C_5  and  C_8
REMARK    2  A    between atoms: C_17  and  C_24
REMARK    3  A    between atoms: C_27  and  O_28
REMARK    4  A    between atoms: O_28  and  C_29
REMARK                            x       y       z     vdW  Elec       q    Type
REMARK                         _______ _______ _______ _____ _____    ______ ____
ROOT
ATOM      8  C   UNL     1      -5.044   3.408  25.335  0.00  0.00    +0.249 C 
ATOM      9  O   UNL     1      -5.815   3.841  25.458  0.00  0.00    -0.270 OA
ATOM     10  N   UNL     1      -5.081   2.534  25.197  0.00  0.00    -0.276 N 
ATOM     11  C   UNL     1      -5.534   1.837  25.116  0.00  0.00    +0.096 C 
ATOM     12  C   UNL     1      -4.809   1.185  24.962  0.00  0.00    +0.043 C 
ATOM     13  C   UNL     1      -4.338   0.535  24.825  0.00  0.00    +0.011 C 
ATOM     14  C   UNL     1      -4.253   1.223  24.929  0.00  0.00    +0.058 C 
ATOM     15  C   UNL     1      -4.966   1.842  25.078  0.00  0.00    +0.099 C 
ATOM     16  C   UNL     1      -3.602   1.869  24.988  0.00  0.00    +0.041 A 
ATOM     17  C   UNL     1      -2.783   1.958  24.946  0.00  0.00    +0.012 A 
ATOM     18  C   UNL     1      -2.444   2.704  25.043  0.00  0.00    +0.006 A 
ATOM     19  C   UNL     1      -2.925   3.361  25.181  0.00  0.00    +0.061 A 
ATOM     20  C   UNL     1      -3.743   3.272  25.223  0.00  0.00    +0.261 A 
ATOM     21  O   UNL     1      -4.390   4.058  25.394  0.00  0.00    -0.267 OA
ATOM     22  N   UNL     1      -4.082   2.526  25.127  0.00  0.00    -0.299 N 
ATOM     23  C   UNL     1      -4.135   1.866  25.025  0.00  0.00    +0.110 C 
ENDROOT
BRANCH   8   5
ATOM      1  F   UNL     1      -1.725   4.136  25.515  0.00  0.00    -0.204 F 
ATOM      2  C   UNL     1      -2.526   3.956  25.445  0.00  0.00    +0.140 A 
ATOM      3  C   UNL     1      -2.735   3.805  24.676  0.00  0.00    +0.030 A 
ATOM      4  C   UNL     1      -3.650   3.606  24.633  0.00  0.00    +0.007 A 
ATOM      5  C   UNL     1      -4.130   3.597  25.302  0.00  0.00    +0.054 A 
ATOM      6  C   UNL     1      -3.810   3.767  26.043  0.00  0.00    +0.007 A 
ATOM      7  C   UNL     1      -3.008   3.947  26.114  0.00  0.00    +0.030 A 
ENDBRANCH   8   5
BRANCH  17  24
ATOM     24  C   UNL     1      -2.303   1.302  24.808  0.00  0.00    +0.001 A 
ATOM     25  C   UNL     1      -2.118   1.082  24.034  0.00  0.00    +0.003 A 
ATOM     26  C   UNL     1      -1.638   0.426  23.896  0.00  0.00    +0.037 A 
ATOM     27  C   UNL     1      -1.343  -0.012  24.530  0.00  0.00    +0.147 A 
ATOM     33  C   UNL     1      -1.528   0.208  25.303  0.00  0.00    +0.037 A 
ATOM     34  C   UNL     1      -2.008   0.865  25.442  0.00  0.00    +0.003 A 
BRANCH  27  28
ATOM     28  O   UNL     1      -0.843  -0.695  24.386  0.00  0.00    -0.404 OA
BRANCH  28  29
ATOM     29  C   UNL     1      -0.913  -1.471  24.702  0.00  0.00    +0.575 C 
ATOM     30  F   UNL     1      -0.980  -2.232  25.014  0.00  0.00    -0.133 F 
ATOM     31  F   UNL     1      -1.504  -1.643  24.153  0.00  0.00    -0.133 F 
ATOM     32  F   UNL     1      -0.322  -1.299  25.252  0.00  0.00    -0.133 F 
ENDBRANCH  28  29
ENDBRANCH  27  28
ENDBRANCH  17  24
TORSDOF 4
ENDMDL
MODEL 5
REMARK VINA RESULT:     -16.0      2.612      4.592
REMARK  Name = 
REMARK  4 active torsions:
REMARK  status: ('A' for Active; 'I' for Inactive)
REMARK    1  A    between atoms: C_5  and  C_8
REMARK    2  A    between atoms: C_17  and  C_24
REMARK    3  A    between atoms: C_27  and  O_28
REMARK    4  A    between atoms: O_28  and  C_29
REMARK                            x       y       z     vdW  Elec       q    Type
REMARK                         _______ _______ _______ _____ _____    ______ ____
ROOT
ATOM      8  C   UNL     1      -3.172  -2.409  24.693  0.00  0.00    +0.249 C 
ATOM      9  O   UNL     1      -3.390  -3.274  24.656  0.00  0.00    -0.270 OA
ATOM     10  N   UNL     1      -2.313  -2.199  24.654  0.00  0.00    -0.276 N 
ATOM     11  C   UNL     1      -1.516  -2.441  24.592  0.00  0.00    +0.096 C 
ATOM     12  C   UNL     1      -1.073  -1.558  24.617  0.00  0.00    +0.043 C 
ATOM     13  C   UNL     1      -0.565  -0.921  24.624  0.00  0.00    +0.011 C 
ATOM     14  C   UNL     1      -1.257  -1.033  24.659  0.00  0.00    +0.058 C 
ATOM     15  C   UNL     1      -1.670  -1.894  24.633  0.00  0.00    +0.099 C 
ATOM     16  C   UNL     1      -2.057  -0.586  24.733  0.00  0.00    +0.041 A 
ATOM     17  C   UNL     1      -2.360   0.178  24.796  0.00  0.00    +0.012 A 
ATOM     18  C   UNL     1      -3.175   0.295  24.852  0.00  0.00    +0.006 A 
ATOM     19  C   UNL     1      -3.686  -0.352  24.845  0.00  0.00    +0.061 A 
ATOM     20  C   UNL     1      -3.383  -1.117  24.782  0.00  0.00    +0.261 A 
ATOM     21  O   UNL     1      -3.977  -1.961  24.768  0.00  0.00    -0.267 OA
ATOM     22  N   UNL     1      -2.568  -1.234  24.726  0.00  0.00    -0.299 N 
ATOM     23  C   UNL     1      -1.913  -1.100  24.694  0.00  0.00    +0.110 C 
ENDROOT
BRANCH   8   5
ATOM      1  F   UNL     1      -4.812   0.573  24.678  0.00  0.00    -0.204 F 
ATOM      2  C   UNL     1      -4.407  -0.145  24.707  0.00  0.00    +0.140 A 
ATOM      3  C   UNL     1      -4.062  -0.268  25.431  0.00  0.00    +0.030 A 
ATOM      4  C   UNL     1      -3.613  -1.090  25.429  0.00  0.00    +0.007 A 
ATOM      5  C   UNL     1      -3.597  -1.581  24.767  0.00  0.00    +0.054 A 
ATOM      6  C   UNL     1      -3.986  -1.356  24.076  0.00  0.00    +0.007 A 
ATOM      7  C   UNL     1      -4.391  -0.638  24.046  0.00  0.00    +0.030 A 
ENDBRANCH   8   5
BRANCH  17  24
ATOM     24  C   UNL     1      -1.849   0.826  24.803  0.00  0.00    +0.001 A 
ATOM     25  C   UNL     1      -1.529   1.091  25.516  0.00  0.00    +0.003 A 
ATOM     26  C   UNL     1      -1.018   1.738  25.523  0.00  0.00    +0.037 A 
ATOM     27  C   UNL     1      -0.826   2.120  24.817  0.00  0.00    +0.147 A 
ATOM     33  C   UNL     1      -1.145   1.855  24.105  0.00  0.00    +0.037 A 
ATOM     34  C   UNL     1      -1.657   1.208  24.098  0.00  0.00    +0.003 A 
BRANCH  27  28
ATOM     28  O   UNL     1      -0.294   2.794  24.825  0.00  0.00    -0.404 OA
BRANCH  28  29
ATOM     29  C   UNL     1      -0.472   3.601  24.981  0.00  0.00    +0.575 C 
ATOM     30  F   UNL     1      -0.647   4.393  25.135  0.00  0.00    -0.133 F 
ATOM     31  F   UNL     1      -0.623   3.723  24.179  0.00  0.00    -0.133 F 
ATOM     32  F   UNL     1      -0.322   3.479  25.783  0.00  0.00    -0.133 F 
ENDBRANCH  28  29
ENDBRANCH  27  28
ENDBRANCH  17  24
TORSDOF 4
ENDMDL
