MODEL 1
REMARK VINA RESULT:      -9.5      0.000      0.000
REMARK  Name = 
REMARK  5 active torsions:
REMARK  status: ('A' for Active; 'I' for Inactive)
REMARK    1  A    between atoms: O_2  and  C_3
REMARK    2  A    between atoms: C_3  and  C_4
REMARK    3  A    between atoms: C_4  and  N_5
REMARK    4  A    between atoms: N_8  and  C_9
REMARK    5  A    between atoms: C_9  and  C_10
REMARK                            x       y       z     vdW  Elec       q    Type
REMARK                         _______ _______ _______ _____ _____    ______ ____
ROOT
ATOM      5  N   UNL     1      -4.488   2.936  24.990  0.00  0.00    -0.273 N 
ATOM      6  C   UNL     1      -4.507   2.119  24.873  0.00  0.00    +0.120 C 
ATOM      7  C   UNL     1      -4.010   1.610  24.456  0.00  0.00    +0.095 C 
ATOM      8  N   UNL     1      -4.307   0.844  24.534  0.00  0.00    -0.265 NA
ATOM     19  C   UNL     1      -4.987   0.880  25.000  0.00  0.00    +0.104 C 
ATOM     20  C   UNL     1      -5.110   1.668  25.209  0.00  0.00    +0.151 C 
ATOM     21  O   UNL     1      -5.695   2.034  25.662  0.00  0.00    -0.344 OA
ATOM     22  C   UNL     1      -5.676   2.850  25.780  0.00  0.00    +0.227 C 
ATOM     23  C   UNL     1      -5.072   3.301  25.443  0.00  0.00    +0.256 C 
ATOM     24  O   UNL     1      -5.053   4.118  25.560  0.00  0.00    -0.272 OA
ENDROOT
BRANCH   5   4
ATOM      4  C   UNL     1      -3.884   3.387  24.654  0.00  0.00    +0.126 C 
BRANCH   4   3
ATOM      3  C   UNL     1      -3.273   3.675  25.126  0.00  0.00    +0.164 C 
BRANCH   3   2
ATOM      1  C   UNL     1      -2.008   4.330  25.250  0.00  0.00    +0.174 C 
ATOM      2  O   UNL     1      -2.633   4.065  24.780  0.00  0.00    -0.349 OA
ENDBRANCH   3   2
ENDBRANCH   4   3
ENDBRANCH   5   4
BRANCH   8   9
ATOM      9  C   UNL     1      -3.980   0.162  24.204  0.00  0.00    +0.099 C 
BRANCH   9  10
ATOM     10  C   UNL     1      -3.372  -0.236  24.597  0.00  0.00    -0.003 A 
ATOM     11  C   UNL     1      -3.551  -0.793  25.178  0.00  0.00    +0.000 A 
ATOM     12  C   UNL     1      -2.944  -1.190  25.569  0.00  0.00    +0.040 A 
ATOM     13  C   UNL     1      -2.158  -1.031  25.380  0.00  0.00    +0.176 A 
ATOM     14  O   UNL     1      -1.447  -1.334  25.670  0.00  0.00    -0.435 OA
ATOM     15  C   UNL     1      -0.829  -0.963  25.268  0.00  0.00    +0.429 C 
ATOM     16  O   UNL     1      -1.157  -0.432  24.730  0.00  0.00    -0.435 OA
ATOM     17  C   UNL     1      -1.979  -0.474  24.798  0.00  0.00    +0.176 A 
ATOM     18  C   UNL     1      -2.586  -0.076  24.406  0.00  0.00    +0.037 A 
ENDBRANCH   9  10
ENDBRANCH   8   9
TORSDOF 5
ENDMDL
MODEL 2
REMARK VINA RESULT:      -9.3      1.176      4.804
REMARK  Name = 
REMARK  5 active torsions:
REMARK  status: ('A' for Active; 'I' for Inactive)
REMARK    1  A    between atoms: O_2  and  C_3
REMARK    2  A    between atoms: C_3  and  C_4
REMARK    3  A    between atoms: C_4  and  N_5
REMARK    4  A    between atoms: N_8  and  C_9
REMARK    5  A    between atoms: C_9  and  C_10
REMARK                            x       y       z     vdW  Elec       q    Type
REMARK                         _______ _______ _______ _____ _____    ______ ____
ROOT
ATOM      5  N   UNL     1      -1.894  -0.484  24.890  0.00  0.00    -0.273 N 
ATOM      6  C   UNL     1      -2.116   0.193  24.472  0.00  0.00    +0.120 C 
ATOM      7  C   UNL     1      -2.854   0.492  24.259  0.00  0.00    +0.095 C 
ATOM      8  N   UNL     1      -2.734   1.193  23.841  0.00  0.00    -0.265 NA
ATOM     19  C   UNL     1      -1.921   1.326  23.795  0.00  0.00    +0.104 C 
ATOM     20  C   UNL     1      -1.539   0.708  24.185  0.00  0.00    +0.151 C 
ATOM     21  O   UNL     1      -0.741   0.547  24.316  0.00  0.00    -0.344 OA
ATOM     22  C   UNL     1      -0.519  -0.128  24.734  0.00  0.00    +0.227 C 
ATOM     23  C   UNL     1      -1.096  -0.644  25.021  0.00  0.00    +0.256 C 
ATOM     24  O   UNL     1      -0.874  -1.320  25.439  0.00  0.00    -0.272 OA
ENDROOT
BRANCH   5   4
ATOM      4  C   UNL     1      -2.471  -0.999  25.178  0.00  0.00    +0.126 C 
BRANCH   4   3
ATOM      3  C   UNL     1      -2.635  -1.700  24.775  0.00  0.00    +0.164 C 
BRANCH   3   2
ATOM      1  C   UNL     1      -3.505  -2.812  24.553  0.00  0.00    +0.174 C 
ATOM      2  O   UNL     1      -3.252  -2.185  25.028  0.00  0.00    -0.349 OA
ENDBRANCH   3   2
ENDBRANCH   4   3
ENDBRANCH   5   4
BRANCH   8   9
ATOM      9  C   UNL     1      -3.324   1.675  23.524  0.00  0.00    +0.099 C 
BRANCH   9  10
ATOM     10  C   UNL     1      -3.694   2.241  23.998  0.00  0.00    -0.003 A 
ATOM     11  C   UNL     1      -3.372   2.997  24.067  0.00  0.00    +0.000 A 
ATOM     12  C   UNL     1      -3.742   3.561  24.541  0.00  0.00    +0.040 A 
ATOM     13  C   UNL     1      -4.433   3.370  24.946  0.00  0.00    +0.176 A 
ATOM     14  O   UNL     1      -4.918   3.809  25.450  0.00  0.00    -0.435 OA
ATOM     15  C   UNL     1      -5.539   3.323  25.693  0.00  0.00    +0.429 C 
ATOM     16  O   UNL     1      -5.439   2.585  25.339  0.00  0.00    -0.435 OA
ATOM     17  C   UNL     1      -4.756   2.613  24.877  0.00  0.00    +0.176 A 
ATOM     18  C   UNL     1      -4.386   2.048  24.404  0.00  0.00    +0.037 A 
ENDBRANCH   9  10
ENDBRANCH   8   9
TORSDOF 5
ENDMDL
MODEL 3
REMARK VINA RESULT:      -9.1      1.343      1.793
REMARK  Name = 
REMARK  5 active torsions:
REMARK  status: ('A' for Active; 'I' for Inactive)
REMARK    1  A    between atoms: O_2  and  C_3
REMARK    2  A    between atoms: C_3  and  C_4
REMARK    3  A    between atoms: C_4  and  N_5
REMARK    4  A    between atoms: N_8  and  C_9
REMARK    5  A    between atoms: C_9  and  C_10
REMARK                            x       y       z     vdW  Elec       q    Type
REMARK                         _______ _______ _______ _____ _____    ______ ____
ROOT
ATOM      5  N   UNL     1      -2.651   3.177  25.241  0.00  0.00    -0.273 N 
ATOM      6  C   UNL     1      -3.069   2.574  24.861  0.00  0.00    +0.120 C 
ATOM      7  C   UNL     1      -2.823   1.952  24.380  0.00  0.00    +0.095 C 
ATOM      8  N   UNL     1      -3.491   1.522  24.158  0.00  0.00    -0.265 NA
ATOM     19  C   UNL     1      -4.150   1.879  24.503  0.00  0.00    +0.104 C 
ATOM     20  C   UNL     1      -3.889   2.529  24.937  0.00  0.00    +0.151 C 
ATOM     21  O   UNL     1      -4.292   3.087  25.393  0.00  0.00    -0.344 OA
ATOM     22  C   UNL     1      -3.875   3.689  25.772  0.00  0.00    +0.227 C 
ATOM     23  C   UNL     1      -3.055   3.734  25.696  0.00  0.00    +0.256 C 
ATOM     24  O   UNL     1      -2.637   4.336  26.076  0.00  0.00    -0.272 OA
ENDROOT
BRANCH   5   4
ATOM      4  C   UNL     1      -1.831   3.221  25.165  0.00  0.00    +0.126 C 
BRANCH   4   3
ATOM      3  C   UNL     1      -1.346   2.971  25.783  0.00  0.00    +0.164 C 
BRANCH   3   2
ATOM      1  C   UNL     1      -0.045   2.548  26.199  0.00  0.00    +0.174 C 
ATOM      2  O   UNL     1      -0.525   2.998  25.700  0.00  0.00    -0.349 OA
ENDBRANCH   3   2
ENDBRANCH   4   3
ENDBRANCH   5   4
BRANCH   8   9
ATOM      9  C   UNL     1      -3.499   0.852  23.676  0.00  0.00    +0.099 C 
BRANCH   9  10
ATOM     10  C   UNL     1      -3.537   0.100  24.014  0.00  0.00    -0.003 A 
ATOM     11  C   UNL     1      -4.268  -0.261  24.138  0.00  0.00    +0.000 A 
ATOM     12  C   UNL     1      -4.306  -1.012  24.476  0.00  0.00    +0.040 A 
ATOM     13  C   UNL     1      -3.612  -1.402  24.691  0.00  0.00    +0.176 A 
ATOM     14  O   UNL     1      -3.478  -2.141  25.033  0.00  0.00    -0.435 OA
ATOM     15  C   UNL     1      -2.662  -2.237  25.120  0.00  0.00    +0.429 C 
ATOM     16  O   UNL     1      -2.294  -1.557  24.833  0.00  0.00    -0.435 OA
ATOM     17  C   UNL     1      -2.881  -1.041  24.567  0.00  0.00    +0.176 A 
ATOM     18  C   UNL     1      -2.843  -0.290  24.229  0.00  0.00    +0.037 A 
ENDBRANCH   9  10
ENDBRANCH   8   9
TORSDOF 5
ENDMDL
MODEL 4
REMARK VINA RESULT:      -9.1      1.274      4.499
REMARK  Name = 
REMARK  5 active torsions:
REMARK  status: ('A' for Active; 'I' for Inactive)
REMARK    1  A    between atoms: O_2  and  C_3
REMARK    2  A    between atoms: C_3  and  C_4
REMARK    3  A    between atoms: C_4  and  N_5
REMARK    4  A    between atoms: N_8  and  C_9
REMARK    5  A    between atoms: C_9  and  C_10
REMARK                            x       y       z     vdW  Elec       q    Type
REMARK                         _______ _______ _______ _____ _____    ______ ____
ROOT
ATOM      5  N   UNL     1      -1.301  -0.254  24.751  0.00  0.00    -0.273 N 
ATOM      6  C   UNL     1      -2.043   0.043  24.540  0.00  0.00    +0.120 C 
ATOM      7  C   UNL     1      -2.268   0.705  24.104  0.00  0.00    +0.095 C 
ATOM      8  N   UNL     1      -3.092   0.722  24.074  0.00  0.00    -0.265 NA
ATOM     19  C   UNL     1      -3.376   0.069  24.492  0.00  0.00    +0.104 C 
ATOM     20  C   UNL     1      -2.728  -0.350  24.780  0.00  0.00    +0.151 C 
ATOM     21  O   UNL     1      -2.671  -1.039  25.230  0.00  0.00    -0.344 OA
ATOM     22  C   UNL     1      -1.931  -1.336  25.440  0.00  0.00    +0.227 C 
ATOM     23  C   UNL     1      -1.246  -0.943  25.200  0.00  0.00    +0.256 C 
ATOM     24  O   UNL     1      -0.505  -1.240  25.411  0.00  0.00    -0.272 OA
ENDROOT
BRANCH   5   4
ATOM      4  C   UNL     1      -0.617   0.138  24.511  0.00  0.00    +0.126 C 
BRANCH   4   3
ATOM      3  C   UNL     1      -0.158  -0.169  23.898  0.00  0.00    +0.164 C 
BRANCH   3   2
ATOM      1  C   UNL     1       0.939  -0.041  22.992  0.00  0.00    +0.174 C 
ATOM      2  O   UNL     1       0.443   0.287  23.565  0.00  0.00    -0.349 OA
ENDBRANCH   3   2
ENDBRANCH   4   3
ENDBRANCH   5   4
BRANCH   8   9
ATOM      9  C   UNL     1      -3.552   1.291  23.693  0.00  0.00    +0.099 C 
BRANCH   9  10
ATOM     10  C   UNL     1      -3.834   1.944  24.113  0.00  0.00    -0.003 A 
ATOM     11  C   UNL     1      -3.401   2.646  24.124  0.00  0.00    +0.000 A 
ATOM     12  C   UNL     1      -3.683   3.297  24.543  0.00  0.00    +0.040 A 
ATOM     13  C   UNL     1      -4.397   3.247  24.953  0.00  0.00    +0.176 A 
ATOM     14  O   UNL     1      -4.810   3.794  25.412  0.00  0.00    -0.435 OA
ATOM     15  C   UNL     1      -5.499   3.429  25.685  0.00  0.00    +0.429 C 
ATOM     16  O   UNL     1      -5.510   2.657  25.395  0.00  0.00    -0.435 OA
ATOM     17  C   UNL     1      -4.829   2.544  24.942  0.00  0.00    +0.176 A 
ATOM     18  C   UNL     1      -4.548   1.892  24.522  0.00  0.00    +0.037 A 
ENDBRANCH   9  10
ENDBRANCH   8   9
TORSDOF 5
ENDMDL
MODEL 5
REMARK VINA RESULT:      -9.0      1.688      4.363
REMARK  Name = 
REMARK  5 active torsions:
REMARK  status: ('A' for Active; 'I' for Inactive)
REMARK    1  A    between atoms: O_2  and  C_3
REMARK    2  A    between atoms: C_3  and  C_4
REMARK    3  A    between atoms: C_4  and  N_5
REMARK    4  A    between atoms: N_8  and  C_9
REMARK    5  A    between atoms: C_9  and  C_10
REMARK                            x       y       z     vdW  Elec       q    Type
REMARK                         _______ _______ _______ _____ _____    ______ ____
ROOT
ATOM      5  N   UNL     1      -0.721   2.106  24.792  0.00  0.00    -0.273 N 
ATOM      6  C   UNL     1      -1.439   2.512  24.750  0.00  0.00    +0.120 C 
ATOM      7  C   UNL     1      -2.123   2.377  24.310  0.00  0.00    +0.095 C 
ATOM      8  N   UNL     1      -2.667   2.968  24.497  0.00  0.00    -0.265 NA
ATOM     19  C   UNL     1      -2.318   3.469  25.053  0.00  0.00    +0.104 C 
ATOM     20  C   UNL     1      -1.560   3.187  25.209  0.00  0.00    +0.151 C 
ATOM     21  O   UNL     1      -0.962   3.456  25.710  0.00  0.00    -0.344 OA
ATOM     22  C   UNL     1      -0.245   3.052  25.752  0.00  0.00    +0.227 C 
ATOM     23  C   UNL     1      -0.124   2.377  25.294  0.00  0.00    +0.256 C 
ATOM     24  O   UNL     1       0.594   1.972  25.336  0.00  0.00    -0.272 OA
ENDROOT
BRANCH   5   4
ATOM      4  C   UNL     1      -0.601   1.431  24.334  0.00  0.00    +0.126 C 
BRANCH   4   3
ATOM      3  C   UNL     1      -0.606   0.687  24.687  0.00  0.00    +0.164 C 
BRANCH   3   2
ATOM      1  C   UNL     1      -0.599  -0.738  24.572  0.00  0.00    +0.174 C 
ATOM      2  O   UNL     1      -0.570   0.008  24.220  0.00  0.00    -0.349 OA
ENDBRANCH   3   2
ENDBRANCH   4   3
ENDBRANCH   5   4
BRANCH   8   9
ATOM      9  C   UNL     1      -3.426   3.046  24.183  0.00  0.00    +0.099 C 
BRANCH   9  10
ATOM     10  C   UNL     1      -4.066   2.679  24.554  0.00  0.00    -0.003 A 
ATOM     11  C   UNL     1      -4.282   1.912  24.341  0.00  0.00    +0.000 A 
ATOM     12  C   UNL     1      -4.921   1.546  24.712  0.00  0.00    +0.040 A 
ATOM     13  C   UNL     1      -5.344   1.946  25.296  0.00  0.00    +0.176 A 
ATOM     14  O   UNL     1      -5.994   1.727  25.754  0.00  0.00    -0.435 OA
ATOM     15  C   UNL     1      -6.180   2.360  26.251  0.00  0.00    +0.429 C 
ATOM     16  O   UNL     1      -5.645   2.969  26.099  0.00  0.00    -0.435 OA
ATOM     17  C   UNL     1      -5.128   2.713  25.509  0.00  0.00    +0.176 A 
ATOM     18  C   UNL     1      -4.489   3.080  25.138  0.00  0.00    +0.037 A 
ENDBRANCH   9  10
ENDBRANCH   8   9
TORSDOF 5
ENDMDL
MODEL 6
REMARK VINA RESULT:      -9.0      2.437      3.761
REMARK  Name = 
REMARK  5 active torsions:
REMARK  status: ('A' for Active; 'I' for Inactive)
REMARK    1  A    between atoms: O_2  and  C_3
REMARK    2  A    between atoms: C_3  and  C_4
REMARK    3  A    between atoms: C_4  and  N_5
REMARK    4  A    between atoms: N_8  and  C_9
REMARK    5  A    between atoms: C_9  and  C_10
REMARK                            x       y       z     vdW  Elec       q    Type
REMARK                         _______ _______ _______ _____ _____    ______ ____
ROOT
ATOM      5  N   UNL     1      -0.311   1.516  25.026  0.00  0.00    -0.273 N 
ATOM      6  C   UNL     1      -0.680   0.779  25.060  0.00  0.00    +0.120 C 
ATOM      7  C   UNL     1      -1.267   0.478  25.555  0.00  0.00    +0.095 C 
ATOM      8  N   UNL     1      -1.418  -0.300  25.329  0.00  0.00    -0.265 NA
ATOM     19  C   UNL     1      -0.924  -0.481  24.693  0.00  0.00    +0.104 C 
ATOM     20  C   UNL     1      -0.468   0.186  24.527  0.00  0.00    +0.151 C 
ATOM     21  O   UNL     1       0.113   0.331  23.960  0.00  0.00    -0.344 OA
ATOM     22  C   UNL     1       0.482   1.067  23.925  0.00  0.00    +0.227 C 
ATOM     23  C   UNL     1       0.270   1.660  24.458  0.00  0.00    +0.256 C 
ATOM     24  O   UNL     1       0.639   2.398  24.424  0.00  0.00    -0.272 OA
ENDROOT
BRANCH   5   4
ATOM      4  C   UNL     1      -0.523   2.109  25.559  0.00  0.00    +0.126 C 
BRANCH   4   3
ATOM      3  C   UNL     1      -1.005   2.731  25.313  0.00  0.00    +0.164 C 
BRANCH   3   2
ATOM      1  C   UNL     1      -1.829   3.855  25.634  0.00  0.00    +0.174 C 
ATOM      2  O   UNL     1      -1.277   3.284  25.862  0.00  0.00    -0.349 OA
ENDBRANCH   3   2
ENDBRANCH   4   3
ENDBRANCH   5   4
BRANCH   8   9
ATOM      9  C   UNL     1      -1.967  -0.809  25.676  0.00  0.00    +0.099 C 
BRANCH   9  10
ATOM     10  C   UNL     1      -2.652  -1.020  25.266  0.00  0.00    -0.003 A 
ATOM     11  C   UNL     1      -3.297  -0.507  25.250  0.00  0.00    +0.000 A 
ATOM     12  C   UNL     1      -3.981  -0.718  24.840  0.00  0.00    +0.040 A 
ATOM     13  C   UNL     1      -4.020  -1.442  24.448  0.00  0.00    +0.176 A 
ATOM     14  O   UNL     1      -4.616  -1.798  24.002  0.00  0.00    -0.435 OA
ATOM     15  C   UNL     1      -4.339  -2.531  23.743  0.00  0.00    +0.429 C 
ATOM     16  O   UNL     1      -3.571  -2.628  24.029  0.00  0.00    -0.435 OA
ATOM     17  C   UNL     1      -3.374  -1.955  24.465  0.00  0.00    +0.176 A 
ATOM     18  C   UNL     1      -2.690  -1.745  24.874  0.00  0.00    +0.037 A 
ENDBRANCH   9  10
ENDBRANCH   8   9
TORSDOF 5
ENDMDL
