MODEL 1
REMARK VINA RESULT:     -11.6      0.000      0.000
REMARK  Name = 
REMARK  7 active torsions:
REMARK  status: ('A' for Active; 'I' for Inactive)
REMARK    1  A    between atoms: C_2  and  C_4
REMARK    2  A    between atoms: C_4  and  C_5
REMARK    3  A    between atoms: C_4  and  N_12
REMARK    4  A    between atoms: C_5  and  C_6
REMARK    5  A    between atoms: C_13  and  C_15
REMARK    6  A    between atoms: N_20  and  S_21
REMARK    7  A    between atoms: S_21  and  C_24
REMARK                            x       y       z     vdW  Elec       q    Type
REMARK                         _______ _______ _______ _____ _____    ______ ____
ROOT
ATOM     15  C   UNL     1      -2.734   1.587  23.659  0.00  0.00    +0.174 C 
ATOM     16  C   UNL     1      -2.168   1.468  23.071  0.00  0.00    +0.116 C 
ATOM     17  N   UNL     1      -2.167   1.943  22.397  0.00  0.00    -0.215 NA
ATOM     18  C   UNL     1      -2.733   2.538  22.311  0.00  0.00    +0.108 C 
ATOM     19  C   UNL     1      -3.299   2.657  22.899  0.00  0.00    +0.115 C 
ATOM     20  N   UNL     1      -3.299   2.181  23.573  0.00  0.00    -0.145 NA
ENDROOT
BRANCH  15  13
ATOM     12  N   UNL     1      -2.708   0.290  24.258  0.00  0.00    -0.197 NA
ATOM     13  C   UNL     1      -2.735   1.110  24.333  0.00  0.00    +0.259 C 
ATOM     14  O   UNL     1      -2.762   1.456  25.082  0.00  0.00    -0.272 OA
BRANCH  12   4
ATOM      4  C   UNL     1      -2.708  -0.187  24.932  0.00  0.00    +0.174 C 
BRANCH   4   2
ATOM      1  N   UNL     1      -1.305  -0.448  25.012  0.00  0.00    -0.086 NA
ATOM      2  C   UNL     1      -2.020  -0.266  25.382  0.00  0.00    +0.281 C 
ATOM      3  O   UNL     1      -2.047  -0.162  26.199  0.00  0.00    -0.270 OA
ENDBRANCH   4   2
BRANCH   4   5
ATOM      5  C   UNL     1      -3.395  -0.584  25.157  0.00  0.00    +0.031 C 
BRANCH   5   6
ATOM      6  C   UNL     1      -3.585  -1.308  24.811  0.00  0.00    +0.002 C 
ATOM      7  C   UNL     1      -4.084  -1.333  24.153  0.00  0.00    +0.000 C 
ATOM      8  C   UNL     1      -4.274  -2.057  23.808  0.00  0.00    +0.000 C 
ATOM      9  C   UNL     1      -3.968  -2.756  24.119  0.00  0.00    +0.000 C 
ATOM     10  C   UNL     1      -3.469  -2.731  24.777  0.00  0.00    +0.000 C 
ATOM     11  C   UNL     1      -3.279  -2.007  25.123  0.00  0.00    +0.000 C 
ENDBRANCH   5   6
ENDBRANCH   4   5
ENDBRANCH  12   4
ENDBRANCH  15  13
BRANCH  20  21
ATOM     21  S   UNL     1      -3.866   2.300  24.162  0.00  0.00    +0.064 S 
ATOM     22  O   UNL     1      -3.337   2.780  24.574  0.00  0.00    -0.153 OA
ATOM     23  O   UNL     1      -4.395   1.820  23.749  0.00  0.00    -0.153 OA
BRANCH  21  24
ATOM     24  C   UNL     1      -4.432   2.418  24.749  0.00  0.00    +0.122 A 
ATOM     25  C   UNL     1      -4.277   2.937  25.373  0.00  0.00    +0.020 A 
ATOM     26  C   UNL     1      -4.843   3.056  25.961  0.00  0.00    +0.001 A 
ATOM     27  C   UNL     1      -5.564   2.656  25.926  0.00  0.00    +0.000 A 
ATOM     28  C   UNL     1      -5.719   2.138  25.303  0.00  0.00    +0.001 A 
ATOM     29  C   UNL     1      -5.153   2.019  24.715  0.00  0.00    +0.020 A 
ENDBRANCH  21  24
ENDBRANCH  20  21
TORSDOF 7
ENDMDL
MODEL 2
REMARK VINA RESULT:     -11.2      1.845      4.187
REMARK  Name = 
REMARK  7 active torsions:
REMARK  status: ('A' for Active; 'I' for Inactive)
REMARK    1  A    between atoms: C_2  and  C_4
REMARK    2  A    between atoms: C_4  and  C_5
REMARK    3  A    between atoms: C_4  and  N_12
REMARK    4  A    between atoms: C_5  and  C_6
REMARK    5  A    between atoms: C_13  and  C_15
REMARK    6  A    between atoms: N_20  and  S_21
REMARK    7  A    between atoms: S_21  and  C_24
REMARK                            x       y       z     vdW  Elec       q    Type
REMARK                         _______ _______ _______ _____ _____    ______ ____
ROOT
ATOM     15  C   UNL     1      -4.329   1.808  24.934  0.00  0.00    +0.174 C 
ATOM     16  C   UNL     1      -4.688   2.550  24.974  0.00  0.00    +0.116 C 
ATOM     17  N   UNL     1      -5.509   2.609  25.019  0.00  0.00    -0.215 NA
ATOM     18  C   UNL     1      -5.972   1.925  25.024  0.00  0.00    +0.108 C 
ATOM     19  C   UNL     1      -5.613   1.184  24.984  0.00  0.00    +0.115 C 
ATOM     20  N   UNL     1      -4.791   1.126  24.939  0.00  0.00    -0.145 NA
ENDROOT
BRANCH  15  13
ATOM     12  N   UNL     1      -3.082   2.270  24.410  0.00  0.00    -0.197 NA
ATOM     13  C   UNL     1      -3.507   1.750  24.889  0.00  0.00    +0.259 C 
ATOM     14  O   UNL     1      -3.110   1.171  25.324  0.00  0.00    -0.272 OA
BRANCH  12   4
ATOM      4  C   UNL     1      -2.260   2.212  24.365  0.00  0.00    +0.174 C 
BRANCH   4   2
ATOM      1  N   UNL     1      -1.297   1.333  23.778  0.00  0.00    -0.086 NA
ATOM      2  C   UNL     1      -1.906   1.884  23.695  0.00  0.00    +0.281 C 
ATOM      3  O   UNL     1      -2.160   2.107  22.943  0.00  0.00    -0.270 OA
ENDBRANCH   4   2
BRANCH   4   5
ATOM      5  C   UNL     1      -1.792   2.481  24.989  0.00  0.00    +0.031 C 
BRANCH   5   6
ATOM      6  C   UNL     1      -1.532   3.264  25.002  0.00  0.00    +0.002 C 
ATOM      7  C   UNL     1      -0.803   3.461  24.667  0.00  0.00    +0.000 C 
ATOM      8  C   UNL     1      -0.542   4.243  24.680  0.00  0.00    +0.000 C 
ATOM      9  C   UNL     1      -1.008   4.828  25.027  0.00  0.00    +0.000 C 
ATOM     10  C   UNL     1      -1.737   4.630  25.362  0.00  0.00    +0.000 C 
ATOM     11  C   UNL     1      -1.998   3.848  25.349  0.00  0.00    +0.000 C 
ENDBRANCH   5   6
ENDBRANCH   4   5
ENDBRANCH  12   4
ENDBRANCH  15  13
BRANCH  20  21
ATOM     21  S   UNL     1      -4.432   0.383  24.899  0.00  0.00    +0.064 S 
ATOM     22  O   UNL     1      -4.362   0.372  25.721  0.00  0.00    -0.153 OA
ATOM     23  O   UNL     1      -4.501   0.394  24.077  0.00  0.00    -0.153 OA
BRANCH  21  24
ATOM     24  C   UNL     1      -4.073  -0.357  24.858  0.00  0.00    +0.122 A 
ATOM     25  C   UNL     1      -3.756  -0.700  25.539  0.00  0.00    +0.020 A 
ATOM     26  C   UNL     1      -3.397  -1.442  25.499  0.00  0.00    +0.001 A 
ATOM     27  C   UNL     1      -3.355  -1.841  24.778  0.00  0.00    +0.000 A 
ATOM     28  C   UNL     1      -3.672  -1.499  24.098  0.00  0.00    +0.001 A 
ATOM     29  C   UNL     1      -4.031  -0.757  24.138  0.00  0.00    +0.020 A 
ENDBRANCH  21  24
ENDBRANCH  20  21
TORSDOF 7
ENDMDL
MODEL 3
REMARK VINA RESULT:     -10.9      1.825      2.680
REMARK  Name = 
REMARK  7 active torsions:
REMARK  status: ('A' for Active; 'I' for Inactive)
REMARK    1  A    between atoms: C_2  and  C_4
REMARK    2  A    between atoms: C_4  and  C_5
REMARK    3  A    between atoms: C_4  and  N_12
REMARK    4  A    between atoms: C_5  and  C_6
REMARK    5  A    between atoms: C_13  and  C_15
REMARK    6  A    between atoms: N_20  and  S_21
REMARK    7  A    between atoms: S_21  and  C_24
REMARK                            x       y       z     vdW  Elec       q    Type
REMARK                         _______ _______ _______ _____ _____    ______ ____
ROOT
ATOM     15  C   UNL     1      -1.017   0.810  24.394  0.00  0.00    +0.174 C 
ATOM     16  C   UNL     1      -0.650   0.144  24.074  0.00  0.00    +0.116 C 
ATOM     17  N   UNL     1       0.131   0.189  23.812  0.00  0.00    -0.215 NA
ATOM     18  C   UNL     1       0.545   0.901  23.870  0.00  0.00    +0.108 C 
ATOM     19  C   UNL     1       0.178   1.567  24.190  0.00  0.00    +0.115 C 
ATOM     20  N   UNL     1      -0.603   1.521  24.452  0.00  0.00    -0.145 NA
ENDROOT
BRANCH  15  13
ATOM     12  N   UNL     1      -2.372   0.408  24.183  0.00  0.00    -0.197 NA
ATOM     13  C   UNL     1      -1.798   0.764  24.656  0.00  0.00    +0.259 C 
ATOM     14  O   UNL     1      -2.005   1.075  25.392  0.00  0.00    -0.272 OA
BRANCH  12   4
ATOM      4  C   UNL     1      -3.153   0.362  24.444  0.00  0.00    +0.174 C 
BRANCH   4   2
ATOM      1  N   UNL     1      -4.285   1.215  24.631  0.00  0.00    -0.086 NA
ATOM      2  C   UNL     1      -3.723   0.873  24.133  0.00  0.00    +0.281 C 
ATOM      3  O   UNL     1      -3.730   1.040  23.326  0.00  0.00    -0.270 OA
ENDBRANCH   4   2
BRANCH   4   5
ATOM      5  C   UNL     1      -3.365  -0.193  25.016  0.00  0.00    +0.031 C 
BRANCH   5   6
ATOM      6  C   UNL     1      -3.533  -0.970  24.795  0.00  0.00    +0.002 C 
ATOM      7  C   UNL     1      -3.229  -1.599  25.236  0.00  0.00    +0.000 C 
ATOM      8  C   UNL     1      -3.397  -2.376  25.016  0.00  0.00    +0.000 C 
ATOM      9  C   UNL     1      -3.868  -2.525  24.356  0.00  0.00    +0.000 C 
ATOM     10  C   UNL     1      -4.172  -1.896  23.915  0.00  0.00    +0.000 C 
ATOM     11  C   UNL     1      -4.004  -1.119  24.135  0.00  0.00    +0.000 C 
ENDBRANCH   5   6
ENDBRANCH   4   5
ENDBRANCH  12   4
ENDBRANCH  15  13
BRANCH  20  21
ATOM     21  S   UNL     1      -0.971   2.188  24.772  0.00  0.00    +0.064 S 
ATOM     22  O   UNL     1      -1.165   2.445  24.012  0.00  0.00    -0.153 OA
ATOM     23  O   UNL     1      -0.776   1.930  25.531  0.00  0.00    -0.153 OA
BRANCH  21  24
ATOM     24  C   UNL     1      -1.338   2.853  25.091  0.00  0.00    +0.122 A 
ATOM     25  C   UNL     1      -1.650   3.432  24.592  0.00  0.00    +0.020 A 
ATOM     26  C   UNL     1      -2.017   4.098  24.912  0.00  0.00    +0.001 A 
ATOM     27  C   UNL     1      -2.072   4.185  25.731  0.00  0.00    +0.000 A 
ATOM     28  C   UNL     1      -1.760   3.607  26.229  0.00  0.00    +0.001 A 
ATOM     29  C   UNL     1      -1.393   2.941  25.909  0.00  0.00    +0.020 A 
ENDBRANCH  21  24
ENDBRANCH  20  21
TORSDOF 7
ENDMDL
MODEL 4
REMARK VINA RESULT:     -10.8      2.114      4.477
REMARK  Name = 
REMARK  7 active torsions:
REMARK  status: ('A' for Active; 'I' for Inactive)
REMARK    1  A    between atoms: C_2  and  C_4
REMARK    2  A    between atoms: C_4  and  C_5
REMARK    3  A    between atoms: C_4  and  N_12
REMARK    4  A    between atoms: C_5  and  C_6
REMARK    5  A    between atoms: C_13  and  C_15
REMARK    6  A    between atoms: N_20  and  S_21
REMARK    7  A    between atoms: S_21  and  C_24
REMARK                            x       y       z     vdW  Elec       q    Type
REMARK                         _______ _______ _______ _____ _____    ______ ____
ROOT
ATOM     15  C   UNL     1      -0.774   0.706  24.386  0.00  0.00    +0.174 C 
ATOM     16  C   UNL     1      -0.083   1.016  24.058  0.00  0.00    +0.116 C 
ATOM     17  N   UNL     1       0.466   0.515  23.701  0.00  0.00    -0.215 NA
ATOM     18  C   UNL     1       0.324  -0.298  23.673  0.00  0.00    +0.108 C 
ATOM     19  C   UNL     1      -0.366  -0.608  24.002  0.00  0.00    +0.115 C 
ATOM     20  N   UNL     1      -0.915  -0.105  24.358  0.00  0.00    -0.145 NA
ENDROOT
BRANCH  15  13
ATOM     12  N   UNL     1      -1.574   1.889  24.351  0.00  0.00    -0.197 NA
ATOM     13  C   UNL     1      -1.323   1.209  24.743  0.00  0.00    +0.259 C 
ATOM     14  O   UNL     1      -1.619   1.030  25.493  0.00  0.00    -0.272 OA
BRANCH  12   4
ATOM      4  C   UNL     1      -2.123   2.392  24.708  0.00  0.00    +0.174 C 
BRANCH   4   2
ATOM      1  N   UNL     1      -3.012   2.550  23.599  0.00  0.00    -0.086 NA
ATOM      2  C   UNL     1      -2.891   2.443  24.408  0.00  0.00    +0.281 C 
ATOM      3  O   UNL     1      -3.537   2.386  24.918  0.00  0.00    -0.270 OA
ENDBRANCH   4   2
BRANCH   4   5
ATOM      5  C   UNL     1      -1.905   2.844  25.362  0.00  0.00    +0.031 C 
BRANCH   5   6
ATOM      6  C   UNL     1      -1.681   3.632  25.264  0.00  0.00    +0.002 C 
ATOM      7  C   UNL     1      -2.198   4.238  25.484  0.00  0.00    +0.000 C 
ATOM      8  C   UNL     1      -1.975   5.026  25.387  0.00  0.00    +0.000 C 
ATOM      9  C   UNL     1      -1.236   5.209  25.069  0.00  0.00    +0.000 C 
ATOM     10  C   UNL     1      -0.720   4.603  24.848  0.00  0.00    +0.000 C 
ATOM     11  C   UNL     1      -0.943   3.815  24.946  0.00  0.00    +0.000 C 
ENDBRANCH   5   6
ENDBRANCH   4   5
ENDBRANCH  12   4
ENDBRANCH  15  13
BRANCH  20  21
ATOM     21  S   UNL     1      -1.606  -0.416  24.687  0.00  0.00    +0.064 S 
ATOM     22  O   UNL     1      -1.973  -0.382  23.949  0.00  0.00    -0.153 OA
ATOM     23  O   UNL     1      -1.240  -0.450  25.425  0.00  0.00    -0.153 OA
BRANCH  21  24
ATOM     24  C   UNL     1      -2.296  -0.726  25.015  0.00  0.00    +0.122 A 
ATOM     25  C   UNL     1      -2.945  -0.891  24.532  0.00  0.00    +0.020 A 
ATOM     26  C   UNL     1      -3.635  -1.201  24.860  0.00  0.00    +0.001 A 
ATOM     27  C   UNL     1      -3.677  -1.346  25.672  0.00  0.00    +0.000 A 
ATOM     28  C   UNL     1      -3.029  -1.181  26.154  0.00  0.00    +0.001 A 
ATOM     29  C   UNL     1      -2.338  -0.871  25.826  0.00  0.00    +0.020 A 
ENDBRANCH  21  24
ENDBRANCH  20  21
TORSDOF 7
ENDMDL
MODEL 5
REMARK VINA RESULT:     -10.7      1.577      2.670
REMARK  Name = 
REMARK  7 active torsions:
REMARK  status: ('A' for Active; 'I' for Inactive)
REMARK    1  A    between atoms: C_2  and  C_4
REMARK    2  A    between atoms: C_4  and  C_5
REMARK    3  A    between atoms: C_4  and  N_12
REMARK    4  A    between atoms: C_5  and  C_6
REMARK    5  A    between atoms: C_13  and  C_15
REMARK    6  A    between atoms: N_20  and  S_21
REMARK    7  A    between atoms: S_21  and  C_24
REMARK                            x       y       z     vdW  Elec       q    Type
REMARK                         _______ _______ _______ _____ _____    ______ ____
ROOT
ATOM     15  C   UNL     1      -4.534   2.299  25.204  0.00  0.00    +0.174 C 
ATOM     16  C   UNL     1      -5.289   1.968  25.223  0.00  0.00    +0.116 C 
ATOM     17  N   UNL     1      -5.945   2.445  25.375  0.00  0.00    -0.215 NA
ATOM     18  C   UNL     1      -5.845   3.254  25.507  0.00  0.00    +0.108 C 
ATOM     19  C   UNL     1      -5.089   3.584  25.488  0.00  0.00    +0.115 C 
ATOM     20  N   UNL     1      -4.434   3.106  25.336  0.00  0.00    -0.145 NA
ENDROOT
BRANCH  15  13
ATOM     12  N   UNL     1      -3.896   1.281  24.429  0.00  0.00    -0.197 NA
ATOM     13  C   UNL     1      -3.878   1.821  25.052  0.00  0.00    +0.259 C 
ATOM     14  O   UNL     1      -3.204   1.883  25.525  0.00  0.00    -0.272 OA
BRANCH  12   4
ATOM      4  C   UNL     1      -3.241   0.803  24.277  0.00  0.00    +0.174 C 
BRANCH   4   2
ATOM      1  N   UNL     1      -1.943   0.934  23.693  0.00  0.00    -0.086 NA
ATOM      2  C   UNL     1      -2.764   0.953  23.620  0.00  0.00    +0.281 C 
ATOM      3  O   UNL     1      -3.110   1.123  22.890  0.00  0.00    -0.270 OA
ENDBRANCH   4   2
BRANCH   4   5
ATOM      5  C   UNL     1      -3.062   0.176  24.781  0.00  0.00    +0.031 C 
BRANCH   5   6
ATOM      6  C   UNL     1      -3.348  -0.581  24.617  0.00  0.00    +0.002 C 
ATOM      7  C   UNL     1      -2.993  -1.240  24.966  0.00  0.00    +0.000 C 
ATOM      8  C   UNL     1      -3.278  -1.996  24.803  0.00  0.00    +0.000 C 
ATOM      9  C   UNL     1      -3.918  -2.094  24.292  0.00  0.00    +0.000 C 
ATOM     10  C   UNL     1      -4.273  -1.435  23.943  0.00  0.00    +0.000 C 
ATOM     11  C   UNL     1      -3.987  -0.679  24.107  0.00  0.00    +0.000 C 
ENDBRANCH   5   6
ENDBRANCH   4   5
ENDBRANCH  12   4
ENDBRANCH  15  13
BRANCH  20  21
ATOM     21  S   UNL     1      -3.677   3.437  25.317  0.00  0.00    +0.064 S 
ATOM     22  O   UNL     1      -3.571   3.241  26.111  0.00  0.00    -0.153 OA
ATOM     23  O   UNL     1      -3.784   3.634  24.523  0.00  0.00    -0.153 OA
BRANCH  21  24
ATOM     24  C   UNL     1      -2.923   3.768  25.298  0.00  0.00    +0.122 A 
ATOM     25  C   UNL     1      -2.667   4.176  24.627  0.00  0.00    +0.020 A 
ATOM     26  C   UNL     1      -1.912   4.507  24.608  0.00  0.00    +0.001 A 
ATOM     27  C   UNL     1      -1.411   4.429  25.259  0.00  0.00    +0.000 A 
ATOM     28  C   UNL     1      -1.666   4.021  25.929  0.00  0.00    +0.001 A 
ATOM     29  C   UNL     1      -2.421   3.691  25.948  0.00  0.00    +0.020 A 
ENDBRANCH  21  24
ENDBRANCH  20  21
TORSDOF 7
ENDMDL
MODEL 6
REMARK VINA RESULT:     -10.7      2.221      3.863
REMARK  Name = 
REMARK  7 active torsions:
REMARK  status: ('A' for Active; 'I' for Inactive)
REMARK    1  A    between atoms: C_2  and  C_4
REMARK    2  A    between atoms: C_4  and  C_5
REMARK    3  A    between atoms: C_4  and  N_12
REMARK    4  A    between atoms: C_5  and  C_6
REMARK    5  A    between atoms: C_13  and  C_15
REMARK    6  A    between atoms: N_20  and  S_21
REMARK    7  A    between atoms: S_21  and  C_24
REMARK                            x       y       z     vdW  Elec       q    Type
REMARK                         _______ _______ _______ _____ _____    ______ ____
ROOT
ATOM     15  C   UNL     1      -1.509   1.788  25.011  0.00  0.00    +0.174 C 
ATOM     16  C   UNL     1      -1.462   0.976  25.147  0.00  0.00    +0.116 C 
ATOM     17  N   UNL     1      -0.932   0.681  25.706  0.00  0.00    -0.215 NA
ATOM     18  C   UNL     1      -0.448   1.200  26.129  0.00  0.00    +0.108 C 
ATOM     19  C   UNL     1      -0.495   2.012  25.992  0.00  0.00    +0.115 C 
ATOM     20  N   UNL     1      -1.026   2.305  25.433  0.00  0.00    -0.145 NA
ENDROOT
BRANCH  15  13
ATOM     12  N   UNL     1      -2.838   1.879  24.493  0.00  0.00    -0.197 NA
ATOM     13  C   UNL     1      -2.040   2.082  24.451  0.00  0.00    +0.259 C 
ATOM     14  O   UNL     1      -1.771   2.579  23.849  0.00  0.00    -0.272 OA
BRANCH  12   4
ATOM      4  C   UNL     1      -3.369   2.173  23.934  0.00  0.00    +0.174 C 
BRANCH   4   2
ATOM      1  N   UNL     1      -3.300   2.457  22.535  0.00  0.00    -0.086 NA
ATOM      2  C   UNL     1      -3.331   1.910  23.152  0.00  0.00    +0.281 C 
ATOM      3  O   UNL     1      -3.325   1.102  22.988  0.00  0.00    -0.270 OA
ENDBRANCH   4   2
BRANCH   4   5
ATOM      5  C   UNL     1      -3.937   2.728  24.155  0.00  0.00    +0.031 C 
BRANCH   5   6
ATOM      6  C   UNL     1      -4.561   2.507  24.648  0.00  0.00    +0.002 C 
ATOM      7  C   UNL     1      -4.796   3.005  25.264  0.00  0.00    +0.000 C 
ATOM      8  C   UNL     1      -5.419   2.785  25.757  0.00  0.00    +0.000 C 
ATOM      9  C   UNL     1      -5.807   2.068  25.636  0.00  0.00    +0.000 C 
ATOM     10  C   UNL     1      -5.572   1.570  25.020  0.00  0.00    +0.000 C 
ATOM     11  C   UNL     1      -4.949   1.790  24.528  0.00  0.00    +0.000 C 
ENDBRANCH   5   6
ENDBRANCH   4   5
ENDBRANCH  12   4
ENDBRANCH  15  13
BRANCH  20  21
ATOM     21  S   UNL     1      -1.073   3.119  25.296  0.00  0.00    +0.064 S 
ATOM     22  O   UNL     1      -0.567   3.039  24.649  0.00  0.00    -0.153 OA
ATOM     23  O   UNL     1      -1.579   3.198  25.943  0.00  0.00    -0.153 OA
BRANCH  21  24
ATOM     24  C   UNL     1      -1.120   3.930  25.159  0.00  0.00    +0.122 A 
ATOM     25  C   UNL     1      -0.599   4.290  24.630  0.00  0.00    +0.020 A 
ATOM     26  C   UNL     1      -0.646   5.103  24.493  0.00  0.00    +0.001 A 
ATOM     27  C   UNL     1      -1.214   5.554  24.886  0.00  0.00    +0.000 A 
ATOM     28  C   UNL     1      -1.734   5.195  25.415  0.00  0.00    +0.001 A 
ATOM     29  C   UNL     1      -1.687   4.383  25.552  0.00  0.00    +0.020 A 
ENDBRANCH  21  24
ENDBRANCH  20  21
TORSDOF 7
ENDMDL
MODEL 7
REMARK VINA RESULT:     -10.5      1.849      4.005
REMARK  Name = 
REMARK  7 active torsions:
REMARK  status: ('A' for Active; 'I' for Inactive)
REMARK    1  A    between atoms: C_2  and  C_4
REMARK    2  A    between atoms: C_4  and  C_5
REMARK    3  A    between atoms: C_4  and  N_12
REMARK    4  A    between atoms: C_5  and  C_6
REMARK    5  A    between atoms: C_13  and  C_15
REMARK    6  A    between atoms: N_20  and  S_21
REMARK    7  A    between atoms: S_21  and  C_24
REMARK                            x       y       z     vdW  Elec       q    Type
REMARK                         _______ _______ _______ _____ _____    ______ ____
ROOT
ATOM     15  C   UNL     1      -1.217   2.200  24.982  0.00  0.00    +0.174 C 
ATOM     16  C   UNL     1      -1.159   3.007  25.143  0.00  0.00    +0.116 C 
ATOM     17  N   UNL     1      -0.642   3.276  25.727  0.00  0.00    -0.215 NA
ATOM     18  C   UNL     1      -0.182   2.736  26.150  0.00  0.00    +0.108 C 
ATOM     19  C   UNL     1      -0.240   1.929  25.990  0.00  0.00    +0.115 C 
ATOM     20  N   UNL     1      -0.758   1.662  25.405  0.00  0.00    -0.145 NA
ENDROOT
BRANCH  15  13
ATOM     12  N   UNL     1      -2.528   2.155  24.416  0.00  0.00    -0.197 NA
ATOM     13  C   UNL     1      -1.735   1.933  24.398  0.00  0.00    +0.259 C 
ATOM     14  O   UNL     1      -1.457   1.442  23.794  0.00  0.00    -0.272 OA
BRANCH  12   4
ATOM      4  C   UNL     1      -3.046   1.888  23.832  0.00  0.00    +0.174 C 
BRANCH   4   2
ATOM      1  N   UNL     1      -2.873   1.699  22.425  0.00  0.00    -0.086 NA
ATOM      2  C   UNL     1      -3.002   2.200  23.068  0.00  0.00    +0.281 C 
ATOM      3  O   UNL     1      -3.088   3.011  22.949  0.00  0.00    -0.270 OA
ENDBRANCH   4   2
BRANCH   4   5
ATOM      5  C   UNL     1      -3.606   1.310  24.009  0.00  0.00    +0.031 C 
BRANCH   5   6
ATOM      6  C   UNL     1      -4.267   1.501  24.465  0.00  0.00    +0.002 C 
ATOM      7  C   UNL     1      -4.586   0.942  24.983  0.00  0.00    +0.000 C 
ATOM      8  C   UNL     1      -5.246   1.132  25.438  0.00  0.00    +0.000 C 
ATOM      9  C   UNL     1      -5.588   1.880  25.378  0.00  0.00    +0.000 C 
ATOM     10  C   UNL     1      -5.268   2.439  24.860  0.00  0.00    +0.000 C 
ATOM     11  C   UNL     1      -4.608   2.248  24.405  0.00  0.00    +0.000 C 
ENDBRANCH   5   6
ENDBRANCH   4   5
ENDBRANCH  12   4
ENDBRANCH  15  13
BRANCH  20  21
ATOM     21  S   UNL     1      -0.816   0.854  25.244  0.00  0.00    +0.064 S 
ATOM     22  O   UNL     1      -1.361   0.770  25.858  0.00  0.00    -0.153 OA
ATOM     23  O   UNL     1      -0.272   0.937  24.630  0.00  0.00    -0.153 OA
BRANCH  21  24
ATOM     24  C   UNL     1      -0.874   0.047  25.083  0.00  0.00    +0.122 A 
ATOM     25  C   UNL     1      -1.342  -0.436  25.562  0.00  0.00    +0.020 A 
ATOM     26  C   UNL     1      -1.400  -1.244  25.401  0.00  0.00    +0.001 A 
ATOM     27  C   UNL     1      -0.991  -1.567  24.761  0.00  0.00    +0.000 A 
ATOM     28  C   UNL     1      -0.524  -1.084  24.283  0.00  0.00    +0.001 A 
ATOM     29  C   UNL     1      -0.466  -0.277  24.444  0.00  0.00    +0.020 A 
ENDBRANCH  21  24
ENDBRANCH  20  21
TORSDOF 7
ENDMDL
