MODEL 1
REMARK VINA RESULT:     -12.1      0.000      0.000
REMARK  Name = 
REMARK  7 active torsions:
REMARK  status: ('A' for Active; 'I' for Inactive)
REMARK    1  A    between atoms: C_2  and  C_4
REMARK    2  A    between atoms: C_4  and  C_5
REMARK    3  A    between atoms: C_5  and  N_6
REMARK    4  A    between atoms: C_5  and  C_29
REMARK    5  A    between atoms: C_7  and  C_9
REMARK    6  A    between atoms: C_16  and  N_18
REMARK    7  A    between atoms: C_19  and  C_21
REMARK                            x       y       z     vdW  Elec       q    Type
REMARK                         _______ _______ _______ _____ _____    ______ ____
ROOT
ATOM      9  C   UNL     1      -3.674   2.244  24.684  0.00  0.00    +0.200 C 
ATOM     10  O   UNL     1      -2.901   2.161  24.409  0.00  0.00    -0.216 OA
ATOM     11  C   UNL     1      -4.353   2.595  24.994  0.00  0.00    +0.075 C 
ATOM     12  C   UNL     1      -5.035   2.144  25.108  0.00  0.00    +0.187 C 
ATOM     13  O   UNL     1      -5.715   2.496  25.419  0.00  0.00    -0.220 OA
ATOM     14  C   UNL     1      -5.038   1.343  24.912  0.00  0.00    +0.202 C 
ATOM     15  O   UNL     1      -5.720   0.892  25.026  0.00  0.00    -0.219 OA
ATOM     16  C   UNL     1      -4.359   0.992  24.602  0.00  0.00    +0.131 C 
ATOM     17  C   UNL     1      -3.677   1.443  24.488  0.00  0.00    +0.064 C 
ENDROOT
BRANCH   9   7
ATOM      6  N   UNL     1      -2.791   3.173  25.315  0.00  0.00    -0.196 NA
ATOM      7  C   UNL     1      -3.403   3.016  24.784  0.00  0.00    +0.269 C 
ATOM      8  O   UNL     1      -3.744   3.632  24.354  0.00  0.00    -0.271 OA
BRANCH   6   5
ATOM      5  C   UNL     1      -2.520   3.945  25.415  0.00  0.00    +0.174 C 
BRANCH   5  29
ATOM     29  C   UNL     1      -2.758   4.384  26.072  0.00  0.00    +0.281 C 
ATOM     30  N   UNL     1      -3.055   5.147  25.974  0.00  0.00    -0.086 NA
ATOM     31  O   UNL     1      -2.699   4.059  26.829  0.00  0.00    -0.270 OA
ENDBRANCH   5  29
BRANCH   5   4
ATOM      4  C   UNL     1      -2.011   4.280  24.859  0.00  0.00    +0.031 C 
BRANCH   4   2
ATOM      1  C   UNL     1      -0.872   5.138  24.953  0.00  0.00    +0.000 C 
ATOM      2  C   UNL     1      -1.215   4.393  25.043  0.00  0.00    +0.002 C 
ATOM      3  C   UNL     1      -0.761   3.761  25.316  0.00  0.00    +0.000 C 
ENDBRANCH   4   2
ENDBRANCH   5   4
ENDBRANCH   6   5
ENDBRANCH   9   7
BRANCH  16  18
ATOM     18  N   UNL     1      -4.361   0.191  24.406  0.00  0.00    -0.201 NA
ATOM     19  C   UNL     1      -3.879  -0.337  24.818  0.00  0.00    +0.265 C 
ATOM     20  O   UNL     1      -3.394  -0.062  25.427  0.00  0.00    -0.268 OA
BRANCH  19  21
ATOM     21  C   UNL     1      -3.881  -1.138  24.622  0.00  0.00    +0.056 A 
ATOM     22  C   UNL     1      -3.539  -1.688  25.134  0.00  0.00    +0.018 A 
ATOM     23  C   UNL     1      -3.542  -2.490  24.938  0.00  0.00    +0.085 A 
ATOM     24 CL   UNL     1      -3.200  -3.040  25.448  0.00  0.00    -0.080 Cl
ATOM     25  C   UNL     1      -3.886  -2.741  24.230  0.00  0.00    +0.151 A 
ATOM     26  F   UNL     1      -3.888  -3.542  24.034  0.00  0.00    -0.203 F 
ATOM     27  C   UNL     1      -4.227  -2.190  23.719  0.00  0.00    +0.031 A 
ATOM     28  C   UNL     1      -4.225  -1.389  23.916  0.00  0.00    +0.007 A 
ENDBRANCH  19  21
ENDBRANCH  16  18
TORSDOF 7
ENDMDL
MODEL 2
REMARK VINA RESULT:     -11.2      2.512      5.472
REMARK  Name = 
REMARK  7 active torsions:
REMARK  status: ('A' for Active; 'I' for Inactive)
REMARK    1  A    between atoms: C_2  and  C_4
REMARK    2  A    between atoms: C_4  and  C_5
REMARK    3  A    between atoms: C_5  and  N_6
REMARK    4  A    between atoms: C_5  and  C_29
REMARK    5  A    between atoms: C_7  and  C_9
REMARK    6  A    between atoms: C_16  and  N_18
REMARK    7  A    between atoms: C_19  and  C_21
REMARK                            x       y       z     vdW  Elec       q    Type
REMARK                         _______ _______ _______ _____ _____    ______ ____
ROOT
ATOM      9  C   UNL     1      -3.630   0.781  24.790  0.00  0.00    +0.200 C 
ATOM     10  O   UNL     1      -2.875   0.449  24.794  0.00  0.00    -0.216 OA
ATOM     11  C   UNL     1      -4.452   0.836  24.806  0.00  0.00    +0.075 C 
ATOM     12  C   UNL     1      -4.817   1.575  24.763  0.00  0.00    +0.187 C 
ATOM     13  O   UNL     1      -5.641   1.630  24.780  0.00  0.00    -0.220 OA
ATOM     14  C   UNL     1      -4.359   2.259  24.703  0.00  0.00    +0.202 C 
ATOM     15  O   UNL     1      -4.724   2.998  24.660  0.00  0.00    -0.219 OA
ATOM     16  C   UNL     1      -3.536   2.204  24.686  0.00  0.00    +0.131 C 
ATOM     17  C   UNL     1      -3.172   1.464  24.730  0.00  0.00    +0.064 C 
ENDROOT
BRANCH   9   7
ATOM      6  N   UNL     1      -3.510  -0.562  24.317  0.00  0.00    -0.196 NA
ATOM      7  C   UNL     1      -3.825  -0.017  24.851  0.00  0.00    +0.269 C 
ATOM      8  O   UNL     1      -4.336  -0.272  25.447  0.00  0.00    -0.271 OA
BRANCH   6   5
ATOM      5  C   UNL     1      -3.706  -1.361  24.379  0.00  0.00    +0.174 C 
BRANCH   5  29
ATOM     29  C   UNL     1      -4.209  -1.706  23.824  0.00  0.00    +0.281 C 
ATOM     30  N   UNL     1      -4.846  -2.167  24.075  0.00  0.00    -0.086 NA
ATOM     31  O   UNL     1      -4.077  -1.590  23.018  0.00  0.00    -0.270 OA
ENDBRANCH   5  29
BRANCH   5   4
ATOM      4  C   UNL     1      -3.398  -1.815  24.995  0.00  0.00    +0.031 C 
BRANCH   4   2
ATOM      1  C   UNL     1      -2.091  -2.254  24.622  0.00  0.00    +0.000 C 
ATOM      2  C   UNL     1      -2.869  -2.426  24.834  0.00  0.00    +0.002 C 
ATOM      3  C   UNL     1      -3.118  -3.211  24.883  0.00  0.00    +0.000 C 
ENDBRANCH   4   2
ENDBRANCH   5   4
ENDBRANCH   6   5
ENDBRANCH   9   7
BRANCH  16  18
ATOM     18  N   UNL     1      -3.078   2.887  24.626  0.00  0.00    -0.201 NA
ATOM     19  C   UNL     1      -2.563   3.093  25.237  0.00  0.00    +0.265 C 
ATOM     20  O   UNL     1      -2.507   2.616  25.908  0.00  0.00    -0.268 OA
BRANCH  19  21
ATOM     21  C   UNL     1      -2.105   3.777  25.177  0.00  0.00    +0.056 A 
ATOM     22  C   UNL     1      -1.356   3.742  24.830  0.00  0.00    +0.018 A 
ATOM     23  C   UNL     1      -0.898   4.425  24.770  0.00  0.00    +0.085 A 
ATOM     24 CL   UNL     1      -0.151   4.391  24.424  0.00  0.00    -0.080 Cl
ATOM     25  C   UNL     1      -1.188   5.143  25.057  0.00  0.00    +0.151 A 
ATOM     26  F   UNL     1      -0.730   5.827  24.997  0.00  0.00    -0.203 F 
ATOM     27  C   UNL     1      -1.936   5.177  25.404  0.00  0.00    +0.031 A 
ATOM     28  C   UNL     1      -2.394   4.494  25.464  0.00  0.00    +0.007 A 
ENDBRANCH  19  21
ENDBRANCH  16  18
TORSDOF 7
ENDMDL
MODEL 3
REMARK VINA RESULT:     -11.0      3.057      5.962
REMARK  Name = 
REMARK  7 active torsions:
REMARK  status: ('A' for Active; 'I' for Inactive)
REMARK    1  A    between atoms: C_2  and  C_4
REMARK    2  A    between atoms: C_4  and  C_5
REMARK    3  A    between atoms: C_5  and  N_6
REMARK    4  A    between atoms: C_5  and  C_29
REMARK    5  A    between atoms: C_7  and  C_9
REMARK    6  A    between atoms: C_16  and  N_18
REMARK    7  A    between atoms: C_19  and  C_21
REMARK                            x       y       z     vdW  Elec       q    Type
REMARK                         _______ _______ _______ _____ _____    ______ ____
ROOT
ATOM      9  C   UNL     1      -1.661   0.097  25.005  0.00  0.00    +0.200 C 
ATOM     10  O   UNL     1      -2.340   0.220  25.457  0.00  0.00    -0.216 OA
ATOM     11  C   UNL     1      -1.089  -0.292  24.557  0.00  0.00    +0.075 C 
ATOM     12  C   UNL     1      -0.446   0.128  24.254  0.00  0.00    +0.187 C 
ATOM     13  O   UNL     1       0.127  -0.261  23.805  0.00  0.00    -0.220 OA
ATOM     14  C   UNL     1      -0.376   0.937  24.400  0.00  0.00    +0.202 C 
ATOM     15  O   UNL     1       0.266   1.358  24.097  0.00  0.00    -0.219 OA
ATOM     16  C   UNL     1      -0.949   1.326  24.848  0.00  0.00    +0.131 C 
ATOM     17  C   UNL     1      -1.592   0.906  25.151  0.00  0.00    +0.064 C 
ENDROOT
BRANCH   9   7
ATOM      6  N   UNL     1      -2.783  -0.789  24.989  0.00  0.00    -0.196 NA
ATOM      7  C   UNL     1      -1.967  -0.669  25.016  0.00  0.00    +0.269 C 
ATOM      8  O   UNL     1      -1.456  -1.316  25.054  0.00  0.00    -0.271 OA
BRANCH   6   5
ATOM      5  C   UNL     1      -3.088  -1.554  25.001  0.00  0.00    +0.174 C 
BRANCH   5  29
ATOM     29  C   UNL     1      -3.302  -1.902  25.717  0.00  0.00    +0.281 C 
ATOM     30  N   UNL     1      -3.086  -2.682  25.879  0.00  0.00    -0.086 NA
ATOM     31  O   UNL     1      -3.734  -1.470  26.273  0.00  0.00    -0.270 OA
ENDBRANCH   5  29
BRANCH   5   4
ATOM      4  C   UNL     1      -3.179  -1.973  24.296  0.00  0.00    +0.031 C 
BRANCH   4   2
ATOM      1  C   UNL     1      -4.335  -1.364  23.716  0.00  0.00    +0.000 C 
ATOM      2  C   UNL     1      -3.924  -2.041  23.949  0.00  0.00    +0.002 C 
ATOM      3  C   UNL     1      -4.260  -2.786  23.836  0.00  0.00    +0.000 C 
ENDBRANCH   4   2
ENDBRANCH   5   4
ENDBRANCH   6   5
ENDBRANCH   9   7
BRANCH  16  18
ATOM     18  N   UNL     1      -0.879   2.135  24.995  0.00  0.00    -0.201 NA
ATOM     19  C   UNL     1      -1.399   2.666  24.635  0.00  0.00    +0.265 C 
ATOM     20  O   UNL     1      -1.989   2.386  24.129  0.00  0.00    -0.268 OA
BRANCH  19  21
ATOM     21  C   UNL     1      -1.330   3.475  24.781  0.00  0.00    +0.056 A 
ATOM     22  C   UNL     1      -1.919   3.869  25.204  0.00  0.00    +0.018 A 
ATOM     23  C   UNL     1      -1.849   4.678  25.351  0.00  0.00    +0.085 A 
ATOM     24 CL   UNL     1      -2.437   5.072  25.773  0.00  0.00    -0.080 Cl
ATOM     25  C   UNL     1      -1.192   5.093  25.074  0.00  0.00    +0.151 A 
ATOM     26  F   UNL     1      -1.122   5.902  25.220  0.00  0.00    -0.203 F 
ATOM     27  C   UNL     1      -0.603   4.698  24.650  0.00  0.00    +0.031 A 
ATOM     28  C   UNL     1      -0.673   3.889  24.504  0.00  0.00    +0.007 A 
ENDBRANCH  19  21
ENDBRANCH  16  18
TORSDOF 7
ENDMDL
MODEL 4
REMARK VINA RESULT:     -10.8      1.683      2.428
REMARK  Name = 
REMARK  7 active torsions:
REMARK  status: ('A' for Active; 'I' for Inactive)
REMARK    1  A    between atoms: C_2  and  C_4
REMARK    2  A    between atoms: C_4  and  C_5
REMARK    3  A    between atoms: C_5  and  N_6
REMARK    4  A    between atoms: C_5  and  C_29
REMARK    5  A    between atoms: C_7  and  C_9
REMARK    6  A    between atoms: C_16  and  N_18
REMARK    7  A    between atoms: C_19  and  C_21
REMARK                            x       y       z     vdW  Elec       q    Type
REMARK                         _______ _______ _______ _____ _____    ______ ____
ROOT
ATOM      9  C   UNL     1      -1.780   1.687  25.169  0.00  0.00    +0.200 C 
ATOM     10  O   UNL     1      -2.568   1.894  25.298  0.00  0.00    -0.216 OA
ATOM     11  C   UNL     1      -0.958   1.747  25.137  0.00  0.00    +0.075 C 
ATOM     12  C   UNL     1      -0.508   1.109  24.869  0.00  0.00    +0.187 C 
ATOM     13  O   UNL     1       0.315   1.169  24.838  0.00  0.00    -0.220 OA
ATOM     14  C   UNL     1      -0.881   0.412  24.633  0.00  0.00    +0.202 C 
ATOM     15  O   UNL     1      -0.431  -0.226  24.365  0.00  0.00    -0.219 OA
ATOM     16  C   UNL     1      -1.702   0.352  24.665  0.00  0.00    +0.131 C 
ATOM     17  C   UNL     1      -2.152   0.990  24.933  0.00  0.00    +0.064 C 
ENDROOT
BRANCH   9   7
ATOM      6  N   UNL     1      -1.949   3.097  25.003  0.00  0.00    -0.196 NA
ATOM      7  C   UNL     1      -1.682   2.456  25.450  0.00  0.00    +0.269 C 
ATOM      8  O   UNL     1      -1.316   2.585  26.178  0.00  0.00    -0.271 OA
BRANCH   6   5
ATOM      5  C   UNL     1      -1.851   3.865  25.284  0.00  0.00    +0.174 C 
BRANCH   5  29
ATOM     29  C   UNL     1      -2.499   4.284  25.576  0.00  0.00    +0.281 C 
ATOM     30  N   UNL     1      -3.144   4.440  25.086  0.00  0.00    -0.086 NA
ATOM     31  O   UNL     1      -2.503   4.547  26.358  0.00  0.00    -0.270 OA
ENDBRANCH   5  29
BRANCH   5   4
ATOM      4  C   UNL     1      -1.104   4.217  25.275  0.00  0.00    +0.031 C 
BRANCH   4   2
ATOM      1  C   UNL     1      -1.186   5.600  24.926  0.00  0.00    +0.000 C 
ATOM      2  C   UNL     1      -0.944   4.831  24.749  0.00  0.00    +0.002 C 
ATOM      3  C   UNL     1      -0.541   4.677  24.045  0.00  0.00    +0.000 C 
ENDBRANCH   4   2
ENDBRANCH   5   4
ENDBRANCH   6   5
ENDBRANCH   9   7
BRANCH  16  18
ATOM     18  N   UNL     1      -2.075  -0.345  24.428  0.00  0.00    -0.201 NA
ATOM     19  C   UNL     1      -2.509  -0.786  24.974  0.00  0.00    +0.265 C 
ATOM     20  O   UNL     1      -2.570  -0.530  25.757  0.00  0.00    -0.268 OA
BRANCH  19  21
ATOM     21  C   UNL     1      -2.881  -1.484  24.738  0.00  0.00    +0.056 A 
ATOM     22  C   UNL     1      -3.583  -1.449  24.304  0.00  0.00    +0.018 A 
ATOM     23  C   UNL     1      -3.955  -2.146  24.068  0.00  0.00    +0.085 A 
ATOM     24 CL   UNL     1      -4.656  -2.113  23.634  0.00  0.00    -0.080 Cl
ATOM     25  C   UNL     1      -3.627  -2.878  24.265  0.00  0.00    +0.151 A 
ATOM     26  F   UNL     1      -3.999  -3.575  24.029  0.00  0.00    -0.203 F 
ATOM     27  C   UNL     1      -2.925  -2.911  24.699  0.00  0.00    +0.031 A 
ATOM     28  C   UNL     1      -2.553  -2.214  24.935  0.00  0.00    +0.007 A 
ENDBRANCH  19  21
ENDBRANCH  16  18
TORSDOF 7
ENDMDL
