REMARK  Name = 
REMARK  5 active torsions:
REMARK  status: ('A' for Active; 'I' for Inactive)
REMARK    1  A    between atoms: O_2  and  C_3
REMARK    2  A    between atoms: C_3  and  C_4
REMARK    3  A    between atoms: C_4  and  C_5
REMARK    4  A    between atoms: C_14  and  C_21
REMARK    5  A    between atoms: C_24  and  O_25
REMARK                            x       y       z     vdW  Elec       q    Type
REMARK                         _______ _______ _______ _____ _____    ______ ____
ROOT
ATOM      5  C   UNL     1       0.125  -2.547   0.000  0.00  0.00    +0.228 C 
ATOM      6  O   UNL     1      -0.614  -2.179   0.000  0.00  0.00    -0.275 OA
ATOM      7  N   UNL     1       0.813  -2.091   0.000  0.00  0.00    -0.279 N 
ATOM      8  C   UNL     1       1.629  -1.912   0.000  0.00  0.00    +0.095 C 
ATOM      9  C   UNL     1       1.582  -0.925   0.000  0.00  0.00    +0.043 C 
ATOM     10  C   UNL     1       1.713  -0.121   0.000  0.00  0.00    +0.011 C 
ATOM     11  C   UNL     1       1.163  -0.557   0.000  0.00  0.00    +0.058 C 
ATOM     12  C   UNL     1       1.225  -1.510   0.000  0.00  0.00    +0.099 C 
ATOM     13  C   UNL     1       0.244  -0.558   0.000  0.00  0.00    +0.041 A 
ATOM     14  C   UNL     1      -0.397  -0.039   0.000  0.00  0.00    +0.012 A 
ATOM     15  C   UNL     1      -1.167  -0.335   0.000  0.00  0.00    +0.006 A 
ATOM     16  C   UNL     1      -1.296  -1.150   0.000  0.00  0.00    +0.061 A 
ATOM     17  C   UNL     1      -0.655  -1.669   0.000  0.00  0.00    +0.261 A 
ATOM     18  O   UNL     1      -1.029  -2.404   0.000  0.00  0.00    -0.267 OA
ATOM     19  N   UNL     1       0.115  -1.373   0.000  0.00  0.00    -0.299 N 
ATOM     20  C   UNL     1       0.622  -0.936   0.000  0.00  0.00    +0.110 C 
ENDROOT
BRANCH  14  21
ATOM     21  C   UNL     1      -0.268   0.776   0.000  0.00  0.00    +0.001 A 
ATOM     22  C   UNL     1      -0.909   1.295   0.000  0.00  0.00    +0.003 A 
ATOM     23  C   UNL     1      -0.780   2.110   0.000  0.00  0.00    +0.037 A 
ATOM     24  C   UNL     1      -0.010   2.406   0.000  0.00  0.00    +0.139 A 
ATOM     27  C   UNL     1       0.631   1.887   0.000  0.00  0.00    +0.037 A 
ATOM     28  C   UNL     1       0.502   1.072   0.000  0.00  0.00    +0.003 A 
BRANCH  24  25
ATOM     25  O   UNL     1       0.119   3.220   0.000  0.00  0.00    -0.471 OA
ATOM     26  C   UNL     1       0.889   3.516   0.000  0.00  0.00    +0.252 C 
ENDBRANCH  24  25
ENDBRANCH  14  21
BRANCH   5   4
ATOM      4  C   UNL     1       0.176  -3.370   0.000  0.00  0.00    +0.117 C 
BRANCH   4   3
ATOM      3  C   UNL     1      -0.512  -3.826   0.000  0.00  0.00    +0.152 C 
BRANCH   3   2
ATOM      1  C   UNL     1      -1.149  -5.105   0.000  0.00  0.00    +0.174 C 
ATOM      2  O   UNL     1      -0.461  -4.650   0.000  0.00  0.00    -0.351 OA
ENDBRANCH   3   2
ENDBRANCH   4   3
ENDBRANCH   5   4
TORSDOF 5
