MODEL 1
REMARK VINA RESULT:      -9.3      0.000      0.000
REMARK  Name = 
REMARK  4 active torsions:
REMARK  status: ('A' for Active; 'I' for Inactive)
REMARK    1  A    between atoms: O_2  and  C_3
REMARK    2  A    between atoms: C_3  and  C_4
REMARK    3  A    between atoms: N_12  and  C_13
REMARK    4  A    between atoms: C_13  and  C_14
REMARK                            x       y       z     vdW  Elec       q    Type
REMARK                         _______ _______ _______ _____ _____    ______ ____
ROOT
ATOM      4  C   UNL     1      -1.794   3.127  24.760  0.00  0.00    +0.256 C 
ATOM      5  O   UNL     1      -1.086   2.781  24.513  0.00  0.00    -0.272 OA
ATOM      6  N   UNL     1      -2.483   2.674  24.800  0.00  0.00    -0.274 N 
ATOM      7  C   UNL     1      -3.190   3.019  25.047  0.00  0.00    +0.115 C 
ATOM      8  C   UNL     1      -3.878   2.566  25.087  0.00  0.00    +0.116 C 
ATOM      9  N   UNL     1      -3.860   1.768  24.880  0.00  0.00    -0.261 N 
ATOM     10  C   UNL     1      -3.152   1.422  24.633  0.00  0.00    +0.116 C 
ATOM     11  C   UNL     1      -3.301   0.629  24.465  0.00  0.00    +0.117 C 
ATOM     12  N   UNL     1      -4.100   0.484  24.608  0.00  0.00    -0.258 N 
ATOM     20  C   UNL     1      -4.445   1.188  24.865  0.00  0.00    +0.308 C 
ATOM     21  O   UNL     1      -5.237   1.293  25.070  0.00  0.00    -0.252 OA
ATOM     22  C   UNL     1      -2.463   1.876  24.593  0.00  0.00    +0.115 C 
ENDROOT
BRANCH   4   3
ATOM      3  C   UNL     1      -1.813   3.925  24.967  0.00  0.00    +0.227 C 
BRANCH   3   2
ATOM      1  C   UNL     1      -1.154   5.191  25.034  0.00  0.00    +0.175 C 
ATOM      2  O   UNL     1      -1.118   4.371  24.955  0.00  0.00    -0.342 OA
ENDBRANCH   3   2
ENDBRANCH   4   3
BRANCH  12  13
ATOM     13  C   UNL     1      -4.487  -0.239  24.512  0.00  0.00    +0.123 C 
BRANCH  13  14
ATOM     14  C   UNL     1      -4.084  -0.945  24.652  0.00  0.00    +0.017 A 
ATOM     15  C   UNL     1      -3.919  -1.457  24.026  0.00  0.00    +0.001 A 
ATOM     16  C   UNL     1      -3.516  -2.163  24.168  0.00  0.00    +0.020 A 
ATOM     17  C   UNL     1      -3.278  -2.357  24.933  0.00  0.00    +0.099 A 
ATOM     18  N   UNL     1      -3.443  -1.844  25.558  0.00  0.00    -0.243 NA
ATOM     19  C   UNL     1      -3.846  -1.138  25.418  0.00  0.00    +0.096 A 
ENDBRANCH  13  14
ENDBRANCH  12  13
TORSDOF 4
ENDMDL
MODEL 2
REMARK VINA RESULT:      -8.6      1.593      4.570
REMARK  Name = 
REMARK  4 active torsions:
REMARK  status: ('A' for Active; 'I' for Inactive)
REMARK    1  A    between atoms: O_2  and  C_3
REMARK    2  A    between atoms: C_3  and  C_4
REMARK    3  A    between atoms: N_12  and  C_13
REMARK    4  A    between atoms: C_13  and  C_14
REMARK                            x       y       z     vdW  Elec       q    Type
REMARK                         _______ _______ _______ _____ _____    ______ ____
ROOT
ATOM      4  C   UNL     1      -3.048  -1.035  24.603  0.00  0.00    +0.256 C 
ATOM      5  O   UNL     1      -2.227  -1.024  24.519  0.00  0.00    -0.272 OA
ATOM      6  N   UNL     1      -3.470  -0.326  24.633  0.00  0.00    -0.274 N 
ATOM      7  C   UNL     1      -4.291  -0.338  24.717  0.00  0.00    +0.115 C 
ATOM      8  C   UNL     1      -4.711   0.371  24.747  0.00  0.00    +0.116 C 
ATOM      9  N   UNL     1      -4.313   1.091  24.694  0.00  0.00    -0.261 N 
ATOM     10  C   UNL     1      -3.492   1.102  24.610  0.00  0.00    +0.116 C 
ATOM     11  C   UNL     1      -3.250   1.890  24.572  0.00  0.00    +0.117 C 
ATOM     12  N   UNL     1      -3.921   2.365  24.632  0.00  0.00    -0.258 N 
ATOM     20  C   UNL     1      -4.577   1.871  24.707  0.00  0.00    +0.308 C 
ATOM     21  O   UNL     1      -5.362   2.115  24.783  0.00  0.00    -0.252 OA
ATOM     22  C   UNL     1      -3.070   0.393  24.580  0.00  0.00    +0.115 C 
ENDROOT
BRANCH   4   3
ATOM      3  C   UNL     1      -3.448  -1.755  24.656  0.00  0.00    +0.227 C 
BRANCH   3   2
ATOM      1  C   UNL     1      -3.436  -3.178  24.527  0.00  0.00    +0.175 C 
ATOM      2  O   UNL     1      -3.029  -2.464  24.598  0.00  0.00    -0.342 OA
ENDBRANCH   3   2
ENDBRANCH   4   3
BRANCH  12  13
ATOM     13  C   UNL     1      -3.934   3.190  24.619  0.00  0.00    +0.123 C 
BRANCH  13  14
ATOM     14  C   UNL     1      -3.340   3.618  24.999  0.00  0.00    +0.017 A 
ATOM     15  C   UNL     1      -3.409   3.798  25.801  0.00  0.00    +0.001 A 
ATOM     16  C   UNL     1      -2.814   4.226  26.180  0.00  0.00    +0.020 A 
ATOM     17  C   UNL     1      -2.152   4.475  25.758  0.00  0.00    +0.099 A 
ATOM     18  N   UNL     1      -2.083   4.296  24.956  0.00  0.00    -0.243 NA
ATOM     19  C   UNL     1      -2.677   3.868  24.576  0.00  0.00    +0.096 A 
ENDBRANCH  13  14
ENDBRANCH  12  13
TORSDOF 4
ENDMDL
MODEL 3
REMARK VINA RESULT:      -8.5      2.608      3.521
REMARK  Name = 
REMARK  4 active torsions:
REMARK  status: ('A' for Active; 'I' for Inactive)
REMARK    1  A    between atoms: O_2  and  C_3
REMARK    2  A    between atoms: C_3  and  C_4
REMARK    3  A    between atoms: N_12  and  C_13
REMARK    4  A    between atoms: C_13  and  C_14
REMARK                            x       y       z     vdW  Elec       q    Type
REMARK                         _______ _______ _______ _____ _____    ______ ____
ROOT
ATOM      4  C   UNL     1      -0.881   0.765  24.276  0.00  0.00    +0.256 C 
ATOM      5  O   UNL     1      -0.811   0.496  25.053  0.00  0.00    -0.272 OA
ATOM      6  N   UNL     1      -1.511   1.254  24.063  0.00  0.00    -0.274 N 
ATOM      7  C   UNL     1      -1.581   1.523  23.286  0.00  0.00    +0.115 C 
ATOM      8  C   UNL     1      -2.211   2.010  23.074  0.00  0.00    +0.116 C 
ATOM      9  N   UNL     1      -2.772   2.230  23.638  0.00  0.00    -0.261 N 
ATOM     10  C   UNL     1      -2.702   1.961  24.415  0.00  0.00    +0.116 C 
ATOM     11  C   UNL     1      -3.334   2.266  24.848  0.00  0.00    +0.117 C 
ATOM     12  N   UNL     1      -3.795   2.723  24.339  0.00  0.00    -0.258 N 
ATOM     20  C   UNL     1      -3.447   2.701  23.592  0.00  0.00    +0.308 C 
ATOM     21  O   UNL     1      -3.726   3.083  22.915  0.00  0.00    -0.252 OA
ATOM     22  C   UNL     1      -2.072   1.472  24.628  0.00  0.00    +0.115 C 
ENDROOT
BRANCH   4   3
ATOM      3  C   UNL     1      -0.321   0.546  23.712  0.00  0.00    +0.227 C 
BRANCH   3   2
ATOM      1  C   UNL     1       0.792  -0.261  23.322  0.00  0.00    +0.175 C 
ATOM      2  O   UNL     1       0.220  -0.055  23.879  0.00  0.00    -0.342 OA
ENDBRANCH   3   2
ENDBRANCH   4   3
BRANCH  12  13
ATOM     13  C   UNL     1      -4.482   3.132  24.542  0.00  0.00    +0.123 C 
BRANCH  13  14
ATOM     14  C   UNL     1      -5.036   2.784  25.045  0.00  0.00    +0.017 A 
ATOM     15  C   UNL     1      -5.525   2.181  24.767  0.00  0.00    +0.001 A 
ATOM     16  C   UNL     1      -6.078   1.834  25.272  0.00  0.00    +0.020 A 
ATOM     17  C   UNL     1      -6.142   2.089  26.053  0.00  0.00    +0.099 A 
ATOM     18  N   UNL     1      -5.653   2.693  26.331  0.00  0.00    -0.243 NA
ATOM     19  C   UNL     1      -5.100   3.040  25.828  0.00  0.00    +0.096 A 
ENDBRANCH  13  14
ENDBRANCH  12  13
TORSDOF 4
ENDMDL
MODEL 4
REMARK VINA RESULT:      -8.4      1.492      4.966
REMARK  Name = 
REMARK  4 active torsions:
REMARK  status: ('A' for Active; 'I' for Inactive)
REMARK    1  A    between atoms: O_2  and  C_3
REMARK    2  A    between atoms: C_3  and  C_4
REMARK    3  A    between atoms: N_12  and  C_13
REMARK    4  A    between atoms: C_13  and  C_14
REMARK                            x       y       z     vdW  Elec       q    Type
REMARK                         _______ _______ _______ _____ _____    ______ ____
ROOT
ATOM      4  C   UNL     1      -3.628  -0.271  24.347  0.00  0.00    +0.256 C 
ATOM      5  O   UNL     1      -4.344   0.139  24.361  0.00  0.00    -0.272 OA
ATOM      6  N   UNL     1      -2.932   0.104  24.584  0.00  0.00    -0.274 N 
ATOM      7  C   UNL     1      -2.217  -0.306  24.570  0.00  0.00    +0.115 C 
ATOM      8  C   UNL     1      -1.522   0.070  24.807  0.00  0.00    +0.116 C 
ATOM      9  N   UNL     1      -1.542   0.855  25.059  0.00  0.00    -0.261 N 
ATOM     10  C   UNL     1      -2.258   1.265  25.074  0.00  0.00    +0.116 C 
ATOM     11  C   UNL     1      -2.109   2.029  25.347  0.00  0.00    +0.117 C 
ATOM     12  N   UNL     1      -1.301   2.091  25.501  0.00  0.00    -0.258 N 
ATOM     20  C   UNL     1      -0.951   1.366  25.323  0.00  0.00    +0.308 C 
ATOM     21  O   UNL     1      -0.150   1.183  25.397  0.00  0.00    -0.252 OA
ATOM     22  C   UNL     1      -2.954   0.890  24.836  0.00  0.00    +0.115 C 
ENDROOT
BRANCH   4   3
ATOM      3  C   UNL     1      -3.607  -1.056  24.095  0.00  0.00    +0.227 C 
BRANCH   3   2
ATOM      1  C   UNL     1      -4.303  -2.258  23.759  0.00  0.00    +0.175 C 
ATOM      2  O   UNL     1      -4.309  -1.446  23.900  0.00  0.00    -0.342 OA
ENDBRANCH   3   2
ENDBRANCH   4   3
BRANCH  12  13
ATOM     13  C   UNL     1      -0.911   2.761  25.784  0.00  0.00    +0.123 C 
BRANCH  13  14
ATOM     14  C   UNL     1      -1.163   3.512  25.554  0.00  0.00    +0.017 A 
ATOM     15  C   UNL     1      -0.750   3.926  24.972  0.00  0.00    +0.001 A 
ATOM     16  C   UNL     1      -1.003   4.678  24.743  0.00  0.00    +0.020 A 
ATOM     17  C   UNL     1      -1.667   5.015  25.097  0.00  0.00    +0.099 A 
ATOM     18  N   UNL     1      -2.079   4.602  25.679  0.00  0.00    -0.243 NA
ATOM     19  C   UNL     1      -1.828   3.850  25.909  0.00  0.00    +0.096 A 
ENDBRANCH  13  14
ENDBRANCH  12  13
TORSDOF 4
ENDMDL
MODEL 5
REMARK VINA RESULT:      -8.2      1.769      2.433
REMARK  Name = 
REMARK  4 active torsions:
REMARK  status: ('A' for Active; 'I' for Inactive)
REMARK    1  A    between atoms: O_2  and  C_3
REMARK    2  A    between atoms: C_3  and  C_4
REMARK    3  A    between atoms: N_12  and  C_13
REMARK    4  A    between atoms: C_13  and  C_14
REMARK                            x       y       z     vdW  Elec       q    Type
REMARK                         _______ _______ _______ _____ _____    ______ ____
ROOT
ATOM      4  C   UNL     1      -1.567   2.952  25.173  0.00  0.00    +0.256 C 
ATOM      5  O   UNL     1      -2.264   3.083  25.595  0.00  0.00    -0.272 OA
ATOM      6  N   UNL     1      -1.311   2.181  25.027  0.00  0.00    -0.274 N 
ATOM      7  C   UNL     1      -0.614   2.051  24.606  0.00  0.00    +0.115 C 
ATOM      8  C   UNL     1      -0.358   1.280  24.460  0.00  0.00    +0.116 C 
ATOM      9  N   UNL     1      -0.799   0.640  24.736  0.00  0.00    -0.261 N 
ATOM     10  C   UNL     1      -1.496   0.770  25.158  0.00  0.00    +0.116 C 
ATOM     11  C   UNL     1      -1.813   0.036  25.359  0.00  0.00    +0.117 C 
ATOM     12  N   UNL     1      -1.313  -0.548  25.063  0.00  0.00    -0.258 N 
ATOM     20  C   UNL     1      -0.686  -0.175  24.677  0.00  0.00    +0.308 C 
ATOM     21  O   UNL     1      -0.056  -0.551  24.299  0.00  0.00    -0.252 OA
ATOM     22  C   UNL     1      -1.752   1.541  25.304  0.00  0.00    +0.115 C 
ENDROOT
BRANCH   4   3
ATOM      3  C   UNL     1      -1.125   3.592  24.897  0.00  0.00    +0.227 C 
BRANCH   3   2
ATOM      1  C   UNL     1      -0.896   5.001  24.841  0.00  0.00    +0.175 C 
ATOM      2  O   UNL     1      -1.370   4.363  25.061  0.00  0.00    -0.342 OA
ENDBRANCH   3   2
ENDBRANCH   4   3
BRANCH  12  13
ATOM     13  C   UNL     1      -1.420  -1.362  25.138  0.00  0.00    +0.123 C 
BRANCH  13  14
ATOM     14  C   UNL     1      -2.157  -1.698  24.983  0.00  0.00    +0.017 A 
ATOM     15  C   UNL     1      -2.733  -1.720  25.573  0.00  0.00    +0.001 A 
ATOM     16  C   UNL     1      -3.471  -2.056  25.416  0.00  0.00    +0.020 A 
ATOM     17  C   UNL     1      -3.632  -2.370  24.672  0.00  0.00    +0.099 A 
ATOM     18  N   UNL     1      -3.056  -2.348  24.082  0.00  0.00    -0.243 NA
ATOM     19  C   UNL     1      -2.318  -2.013  24.237  0.00  0.00    +0.096 A 
ENDBRANCH  13  14
ENDBRANCH  12  13
TORSDOF 4
ENDMDL
MODEL 6
REMARK VINA RESULT:      -8.1      1.587      2.493
REMARK  Name = 
REMARK  4 active torsions:
REMARK  status: ('A' for Active; 'I' for Inactive)
REMARK    1  A    between atoms: O_2  and  C_3
REMARK    2  A    between atoms: C_3  and  C_4
REMARK    3  A    between atoms: N_12  and  C_13
REMARK    4  A    between atoms: C_13  and  C_14
REMARK                            x       y       z     vdW  Elec       q    Type
REMARK                         _______ _______ _______ _____ _____    ______ ____
ROOT
ATOM      4  C   UNL     1      -5.332   2.576  25.308  0.00  0.00    +0.256 C 
ATOM      5  O   UNL     1      -6.043   2.188  25.463  0.00  0.00    -0.272 OA
ATOM      6  N   UNL     1      -4.682   2.150  25.028  0.00  0.00    -0.274 N 
ATOM      7  C   UNL     1      -3.970   2.537  24.873  0.00  0.00    +0.115 C 
ATOM      8  C   UNL     1      -3.322   2.111  24.593  0.00  0.00    +0.116 C 
ATOM      9  N   UNL     1      -3.385   1.298  24.468  0.00  0.00    -0.261 N 
ATOM     10  C   UNL     1      -4.096   0.911  24.622  0.00  0.00    +0.116 C 
ATOM     11  C   UNL     1      -3.995   0.112  24.448  0.00  0.00    +0.117 C 
ATOM     12  N   UNL     1      -3.221   0.004  24.185  0.00  0.00    -0.258 N 
ATOM     20  C   UNL     1      -2.844   0.738  24.198  0.00  0.00    +0.308 C 
ATOM     21  O   UNL     1      -2.062   0.885  23.978  0.00  0.00    -0.252 OA
ATOM     22  C   UNL     1      -4.746   1.337  24.903  0.00  0.00    +0.115 C 
ENDROOT
BRANCH   4   3
ATOM      3  C   UNL     1      -5.268   3.388  25.433  0.00  0.00    +0.227 C 
BRANCH   3   2
ATOM      1  C   UNL     1      -5.914   4.643  25.660  0.00  0.00    +0.175 C 
ATOM      2  O   UNL     1      -5.924   3.818  25.691  0.00  0.00    -0.342 OA
ENDBRANCH   3   2
ENDBRANCH   4   3
BRANCH  12  13
ATOM     13  C   UNL     1      -2.883  -0.711  23.951  0.00  0.00    +0.123 C 
BRANCH  13  14
ATOM     14  C   UNL     1      -3.125  -1.417  24.303  0.00  0.00    +0.017 A 
ATOM     15  C   UNL     1      -3.693  -1.888  23.935  0.00  0.00    +0.001 A 
ATOM     16  C   UNL     1      -3.934  -2.594  24.287  0.00  0.00    +0.020 A 
ATOM     17  C   UNL     1      -3.608  -2.829  25.007  0.00  0.00    +0.099 A 
ATOM     18  N   UNL     1      -3.039  -2.358  25.375  0.00  0.00    -0.243 NA
ATOM     19  C   UNL     1      -2.797  -1.652  25.023  0.00  0.00    +0.096 A 
ENDBRANCH  13  14
ENDBRANCH  12  13
TORSDOF 4
ENDMDL
