MODEL 1
REMARK VINA RESULT:     -12.4      0.000      0.000
REMARK  Name = 
REMARK  6 active torsions:
REMARK  status: ('A' for Active; 'I' for Inactive)
REMARK    1  A    between atoms: O_2  and  C_3
REMARK    2  A    between atoms: C_6  and  C_9
REMARK    3  A    between atoms: C_11  and  C_12
REMARK    4  A    between atoms: C_12  and  C_13
REMARK    5  A    between atoms: C_15  and  N_16
REMARK    6  A    between atoms: C_17  and  C_19
REMARK                            x       y       z     vdW  Elec       q    Type
REMARK                         _______ _______ _______ _____ _____    ______ ____
ROOT
ATOM     13  C   UNL     1      -4.832   2.048  25.105  0.00  0.00    +0.009 C 
ATOM     14  C   UNL     1      -4.210   1.512  25.026  0.00  0.00    +0.022 C 
ATOM     15  C   UNL     1      -4.753   0.896  24.946  0.00  0.00    +0.096 C 
ATOM     25  C   UNL     1      -5.374   1.432  25.026  0.00  0.00    +0.019 C 
ATOM     26  C   UNL     1      -6.046   0.957  24.967  0.00  0.00    +0.002 C 
ATOM     27  C   UNL     1      -6.105   1.809  25.085  0.00  0.00    +0.002 C 
ENDROOT
BRANCH  15  16
ATOM     16  N   UNL     1      -4.696   0.081  24.834  0.00  0.00    -0.203 NA
ATOM     17  C   UNL     1      -3.959  -0.269  24.705  0.00  0.00    +0.265 C 
ATOM     18  O   UNL     1      -3.279   0.199  24.689  0.00  0.00    -0.268 OA
BRANCH  17  19
ATOM     19  C   UNL     1      -3.903  -1.084  24.592  0.00  0.00    +0.055 A 
ATOM     20  C   UNL     1      -4.193  -1.425  23.901  0.00  0.00    +0.005 A 
ATOM     21  C   UNL     1      -4.136  -2.241  23.788  0.00  0.00    +0.000 A 
ATOM     22  C   UNL     1      -3.790  -2.715  24.367  0.00  0.00    +0.000 A 
ATOM     23  C   UNL     1      -3.499  -2.372  25.060  0.00  0.00    +0.000 A 
ATOM     24  C   UNL     1      -3.555  -1.557  25.173  0.00  0.00    +0.005 A 
ENDBRANCH  17  19
ENDBRANCH  15  16
BRANCH  13  12
ATOM     12  C   UNL     1      -4.889   2.864  25.218  0.00  0.00    +0.049 C 
BRANCH  12  11
ATOM      9  C   UNL     1      -3.071   3.925  25.572  0.00  0.00    +0.177 A 
ATOM     10  C   UNL     1      -3.579   3.514  25.069  0.00  0.00    +0.058 A 
ATOM     11  C   UNL     1      -4.241   3.287  25.504  0.00  0.00    +0.101 A 
ATOM     28  N   UNL     1      -4.143   3.557  26.278  0.00  0.00    -0.081 NA
ATOM     29  O   UNL     1      -3.420   3.951  26.320  0.00  0.00    -0.354 OA
BRANCH   9   6
ATOM      3  C   UNL     1      -0.886   4.908  24.953  0.00  0.00    +0.139 A 
ATOM      4  C   UNL     1      -1.552   5.390  25.016  0.00  0.00    +0.037 A 
ATOM      5  C   UNL     1      -2.280   5.062  25.223  0.00  0.00    +0.006 A 
ATOM      6  C   UNL     1      -2.343   4.252  25.366  0.00  0.00    +0.037 A 
ATOM      7  C   UNL     1      -1.676   3.770  25.303  0.00  0.00    +0.006 A 
ATOM      8  C   UNL     1      -0.948   4.097  25.096  0.00  0.00    +0.037 A 
BRANCH   3   2
ATOM      1  C   UNL     1       0.181   5.062  24.015  0.00  0.00    +0.252 C 
ATOM      2  O   UNL     1      -0.157   5.235  24.747  0.00  0.00    -0.471 OA
ENDBRANCH   3   2
ENDBRANCH   9   6
ENDBRANCH  12  11
ENDBRANCH  13  12
TORSDOF 6
ENDMDL
MODEL 2
REMARK VINA RESULT:     -11.5      1.104      5.448
REMARK  Name = 
REMARK  6 active torsions:
REMARK  status: ('A' for Active; 'I' for Inactive)
REMARK    1  A    between atoms: O_2  and  C_3
REMARK    2  A    between atoms: C_6  and  C_9
REMARK    3  A    between atoms: C_11  and  C_12
REMARK    4  A    between atoms: C_12  and  C_13
REMARK    5  A    between atoms: C_15  and  N_16
REMARK    6  A    between atoms: C_17  and  C_19
REMARK                            x       y       z     vdW  Elec       q    Type
REMARK                         _______ _______ _______ _____ _____    ______ ____
ROOT
ATOM     13  C   UNL     1      -4.490   2.358  24.853  0.00  0.00    +0.009 C 
ATOM     14  C   UNL     1      -3.680   2.406  24.703  0.00  0.00    +0.022 C 
ATOM     15  C   UNL     1      -3.690   3.203  24.917  0.00  0.00    +0.096 C 
ATOM     25  C   UNL     1      -4.499   3.154  25.066  0.00  0.00    +0.019 C 
ATOM     26  C   UNL     1      -4.697   3.917  25.308  0.00  0.00    +0.002 C 
ATOM     27  C   UNL     1      -5.289   3.292  25.260  0.00  0.00    +0.002 C 
ENDROOT
BRANCH  15  16
ATOM     16  N   UNL     1      -3.123   3.801  24.963  0.00  0.00    -0.203 NA
ATOM     17  C   UNL     1      -2.327   3.627  24.829  0.00  0.00    +0.265 C 
ATOM     18  O   UNL     1      -2.099   2.855  24.651  0.00  0.00    -0.268 OA
BRANCH  17  19
ATOM     19  C   UNL     1      -1.761   4.225  24.875  0.00  0.00    +0.055 A 
ATOM     20  C   UNL     1      -1.993   5.002  25.023  0.00  0.00    +0.005 A 
ATOM     21  C   UNL     1      -1.427   5.600  25.069  0.00  0.00    +0.000 A 
ATOM     22  C   UNL     1      -0.628   5.422  24.966  0.00  0.00    +0.000 A 
ATOM     23  C   UNL     1      -0.396   4.643  24.817  0.00  0.00    +0.000 A 
ATOM     24  C   UNL     1      -0.962   4.045  24.772  0.00  0.00    +0.005 A 
ENDBRANCH  17  19
ENDBRANCH  15  16
BRANCH  13  12
ATOM     12  C   UNL     1      -5.057   1.760  24.807  0.00  0.00    +0.049 C 
BRANCH  12  11
ATOM      9  C   UNL     1      -4.351  -0.239  25.061  0.00  0.00    +0.177 A 
ATOM     10  C   UNL     1      -4.394   0.461  24.625  0.00  0.00    +0.058 A 
ATOM     11  C   UNL     1      -4.867   0.992  25.042  0.00  0.00    +0.101 A 
ATOM     28  N   UNL     1      -5.117   0.622  25.736  0.00  0.00    -0.081 NA
ATOM     29  O   UNL     1      -4.798  -0.139  25.748  0.00  0.00    -0.354 OA
BRANCH   9   6
ATOM      3  C   UNL     1      -3.102  -2.279  24.424  0.00  0.00    +0.139 A 
ATOM      4  C   UNL     1      -2.832  -1.806  25.044  0.00  0.00    +0.037 A 
ATOM      5  C   UNL     1      -3.248  -1.126  25.256  0.00  0.00    +0.006 A 
ATOM      6  C   UNL     1      -3.935  -0.919  24.848  0.00  0.00    +0.037 A 
ATOM      7  C   UNL     1      -4.205  -1.392  24.229  0.00  0.00    +0.006 A 
ATOM      8  C   UNL     1      -3.789  -2.072  24.017  0.00  0.00    +0.037 A 
BRANCH   3   2
ATOM      1  C   UNL     1      -1.862  -2.961  24.229  0.00  0.00    +0.252 C 
ATOM      2  O   UNL     1      -2.687  -2.959  24.212  0.00  0.00    -0.471 OA
ENDBRANCH   3   2
ENDBRANCH   9   6
ENDBRANCH  12  11
ENDBRANCH  13  12
TORSDOF 6
ENDMDL
MODEL 3
REMARK VINA RESULT:     -10.8      2.211      3.169
REMARK  Name = 
REMARK  6 active torsions:
REMARK  status: ('A' for Active; 'I' for Inactive)
REMARK    1  A    between atoms: O_2  and  C_3
REMARK    2  A    between atoms: C_6  and  C_9
REMARK    3  A    between atoms: C_11  and  C_12
REMARK    4  A    between atoms: C_12  and  C_13
REMARK    5  A    between atoms: C_15  and  N_16
REMARK    6  A    between atoms: C_17  and  C_19
REMARK                            x       y       z     vdW  Elec       q    Type
REMARK                         _______ _______ _______ _____ _____    ______ ____
ROOT
ATOM     13  C   UNL     1      -0.556   0.370  24.652  0.00  0.00    +0.009 C 
ATOM     14  C   UNL     1      -1.344   0.231  24.850  0.00  0.00    +0.022 C 
ATOM     15  C   UNL     1      -1.316  -0.490  24.451  0.00  0.00    +0.096 C 
ATOM     25  C   UNL     1      -0.528  -0.351  24.253  0.00  0.00    +0.019 C 
ATOM     26  C   UNL     1      -0.317  -1.019  23.819  0.00  0.00    +0.002 C 
ATOM     27  C   UNL     1       0.245  -0.383  23.967  0.00  0.00    +0.002 C 
ENDROOT
BRANCH  15  16
ATOM     16  N   UNL     1      -1.854  -1.099  24.309  0.00  0.00    -0.203 NA
ATOM     17  C   UNL     1      -2.625  -1.046  24.600  0.00  0.00    +0.265 C 
ATOM     18  O   UNL     1      -2.856  -0.383  25.033  0.00  0.00    -0.268 OA
BRANCH  17  19
ATOM     19  C   UNL     1      -3.163  -1.655  24.458  0.00  0.00    +0.055 A 
ATOM     20  C   UNL     1      -3.068  -2.384  24.831  0.00  0.00    +0.005 A 
ATOM     21  C   UNL     1      -3.606  -2.993  24.689  0.00  0.00    +0.000 A 
ATOM     22  C   UNL     1      -4.239  -2.873  24.173  0.00  0.00    +0.000 A 
ATOM     23  C   UNL     1      -4.333  -2.143  23.799  0.00  0.00    +0.000 A 
ATOM     24  C   UNL     1      -3.795  -1.534  23.942  0.00  0.00    +0.005 A 
ENDBRANCH  17  19
ENDBRANCH  15  16
BRANCH  13  12
ATOM     12  C   UNL     1      -0.018   0.980  24.794  0.00  0.00    +0.049 C 
BRANCH  12  11
ATOM      9  C   UNL     1      -0.722   2.867  25.499  0.00  0.00    +0.177 A 
ATOM     10  C   UNL     1      -0.561   2.342  24.883  0.00  0.00    +0.058 A 
ATOM     11  C   UNL     1      -0.254   1.651  25.211  0.00  0.00    +0.101 A 
ATOM     28  N   UNL     1      -0.225   1.747  26.030  0.00  0.00    -0.081 NA
ATOM     29  O   UNL     1      -0.514   2.499  26.208  0.00  0.00    -0.354 OA
BRANCH   9   6
ATOM      3  C   UNL     1      -1.661   5.145  25.264  0.00  0.00    +0.139 A 
ATOM      4  C   UNL     1      -0.907   4.979  24.976  0.00  0.00    +0.037 A 
ATOM      5  C   UNL     1      -0.594   4.219  25.054  0.00  0.00    +0.006 A 
ATOM      6  C   UNL     1      -1.036   3.626  25.421  0.00  0.00    +0.037 A 
ATOM      7  C   UNL     1      -1.790   3.793  25.708  0.00  0.00    +0.006 A 
ATOM      8  C   UNL     1      -2.103   4.552  25.630  0.00  0.00    +0.037 A 
BRANCH   3   2
ATOM      1  C   UNL     1      -1.982   6.275  24.449  0.00  0.00    +0.252 C 
ATOM      2  O   UNL     1      -1.975   5.904  25.186  0.00  0.00    -0.471 OA
ENDBRANCH   3   2
ENDBRANCH   9   6
ENDBRANCH  12  11
ENDBRANCH  13  12
TORSDOF 6
ENDMDL
MODEL 4
REMARK VINA RESULT:     -10.3      2.252      6.384
REMARK  Name = 
REMARK  6 active torsions:
REMARK  status: ('A' for Active; 'I' for Inactive)
REMARK    1  A    between atoms: O_2  and  C_3
REMARK    2  A    between atoms: C_6  and  C_9
REMARK    3  A    between atoms: C_11  and  C_12
REMARK    4  A    between atoms: C_12  and  C_13
REMARK    5  A    between atoms: C_15  and  N_16
REMARK    6  A    between atoms: C_17  and  C_19
REMARK                            x       y       z     vdW  Elec       q    Type
REMARK                         _______ _______ _______ _____ _____    ______ ____
ROOT
ATOM     13  C   UNL     1      -0.366   0.920  24.780  0.00  0.00    +0.009 C 
ATOM     14  C   UNL     1      -0.936   1.439  25.075  0.00  0.00    +0.022 C 
ATOM     15  C   UNL     1      -0.537   2.072  24.728  0.00  0.00    +0.096 C 
ATOM     25  C   UNL     1       0.032   1.553  24.433  0.00  0.00    +0.019 C 
ATOM     26  C   UNL     1       0.552   2.048  24.027  0.00  0.00    +0.002 C 
ATOM     27  C   UNL     1       0.678   1.196  24.065  0.00  0.00    +0.002 C 
ENDROOT
BRANCH  15  16
ATOM     16  N   UNL     1      -0.657   2.887  24.691  0.00  0.00    -0.203 NA
ATOM     17  C   UNL     1      -1.203   3.247  25.196  0.00  0.00    +0.265 C 
ATOM     18  O   UNL     1      -1.627   2.791  25.737  0.00  0.00    -0.268 OA
BRANCH  17  19
ATOM     19  C   UNL     1      -1.324   4.062  25.159  0.00  0.00    +0.055 A 
ATOM     20  C   UNL     1      -2.055   4.380  25.367  0.00  0.00    +0.005 A 
ATOM     21  C   UNL     1      -2.176   5.196  25.330  0.00  0.00    +0.000 A 
ATOM     22  C   UNL     1      -1.565   5.693  25.086  0.00  0.00    +0.000 A 
ATOM     23  C   UNL     1      -0.832   5.374  24.879  0.00  0.00    +0.000 A 
ATOM     24  C   UNL     1      -0.711   4.559  24.915  0.00  0.00    +0.005 A 
ENDBRANCH  17  19
ENDBRANCH  15  16
BRANCH  13  12
ATOM     12  C   UNL     1      -0.245   0.104  24.817  0.00  0.00    +0.049 C 
BRANCH  12  11
ATOM      9  C   UNL     1      -1.923  -1.193  25.062  0.00  0.00    +0.177 A 
ATOM     10  C   UNL     1      -1.424  -0.742  24.583  0.00  0.00    +0.058 A 
ATOM     11  C   UNL     1      -0.855  -0.392  25.066  0.00  0.00    +0.101 A 
ATOM     28  N   UNL     1      -1.001  -0.627  25.844  0.00  0.00    -0.081 NA
ATOM     29  O   UNL     1      -1.661  -1.121  25.841  0.00  0.00    -0.354 OA
BRANCH   9   6
ATOM      3  C   UNL     1      -3.864  -2.524  24.297  0.00  0.00    +0.139 A 
ATOM      4  C   UNL     1      -3.949  -1.716  24.438  0.00  0.00    +0.037 A 
ATOM      5  C   UNL     1      -3.301  -1.272  24.693  0.00  0.00    +0.006 A 
ATOM      6  C   UNL     1      -2.569  -1.637  24.807  0.00  0.00    +0.037 A 
ATOM      7  C   UNL     1      -2.486  -2.445  24.665  0.00  0.00    +0.006 A 
ATOM      8  C   UNL     1      -3.133  -2.889  24.411  0.00  0.00    +0.037 A 
BRANCH   3   2
ATOM      1  C   UNL     1      -4.761  -2.922  23.258  0.00  0.00    +0.252 C 
ATOM      2  O   UNL     1      -4.511  -2.968  24.043  0.00  0.00    -0.471 OA
ENDBRANCH   3   2
ENDBRANCH   9   6
ENDBRANCH  12  11
ENDBRANCH  13  12
TORSDOF 6
ENDMDL
MODEL 5
REMARK VINA RESULT:     -10.3      3.085      5.037
REMARK  Name = 
REMARK  6 active torsions:
REMARK  status: ('A' for Active; 'I' for Inactive)
REMARK    1  A    between atoms: O_2  and  C_3
REMARK    2  A    between atoms: C_6  and  C_9
REMARK    3  A    between atoms: C_11  and  C_12
REMARK    4  A    between atoms: C_12  and  C_13
REMARK    5  A    between atoms: C_15  and  N_16
REMARK    6  A    between atoms: C_17  and  C_19
REMARK                            x       y       z     vdW  Elec       q    Type
REMARK                         _______ _______ _______ _____ _____    ______ ____
ROOT
ATOM     13  C   UNL     1      -1.725  -0.817  24.815  0.00  0.00    +0.009 C 
ATOM     14  C   UNL     1      -1.384  -0.288  24.281  0.00  0.00    +0.022 C 
ATOM     15  C   UNL     1      -0.664  -0.685  24.349  0.00  0.00    +0.096 C 
ATOM     25  C   UNL     1      -1.005  -1.214  24.882  0.00  0.00    +0.019 C 
ATOM     26  C   UNL     1      -0.384  -1.723  25.071  0.00  0.00    +0.002 C 
ATOM     27  C   UNL     1      -1.168  -1.821  25.416  0.00  0.00    +0.002 C 
ENDROOT
BRANCH  15  16
ATOM     16  N   UNL     1       0.086  -0.592  24.018  0.00  0.00    -0.203 NA
ATOM     17  C   UNL     1       0.245   0.054  23.529  0.00  0.00    +0.265 C 
ATOM     18  O   UNL     1      -0.348   0.606  23.371  0.00  0.00    -0.268 OA
BRANCH  17  19
ATOM     19  C   UNL     1       0.995   0.148  23.199  0.00  0.00    +0.055 A 
ATOM     20  C   UNL     1       1.218  -0.306  22.548  0.00  0.00    +0.005 A 
ATOM     21  C   UNL     1       1.969  -0.213  22.218  0.00  0.00    +0.000 A 
ATOM     22  C   UNL     1       2.496   0.334  22.539  0.00  0.00    +0.000 A 
ATOM     23  C   UNL     1       2.272   0.789  23.191  0.00  0.00    +0.000 A 
ATOM     24  C   UNL     1       1.522   0.695  23.521  0.00  0.00    +0.005 A 
ENDBRANCH  17  19
ENDBRANCH  15  16
BRANCH  13  12
ATOM     12  C   UNL     1      -2.475  -0.911  25.145  0.00  0.00    +0.049 C 
BRANCH  12  11
ATOM      9  C   UNL     1      -4.027   0.500  24.748  0.00  0.00    +0.177 A 
ATOM     10  C   UNL     1      -3.392   0.236  25.204  0.00  0.00    +0.058 A 
ATOM     11  C   UNL     1      -3.107  -0.460  24.867  0.00  0.00    +0.101 A 
ATOM     28  N   UNL     1      -3.566  -0.628  24.202  0.00  0.00    -0.081 NA
ATOM     29  O   UNL     1      -4.135  -0.035  24.128  0.00  0.00    -0.354 OA
BRANCH   9   6
ATOM      3  C   UNL     1      -5.373   2.535  25.161  0.00  0.00    +0.139 A 
ATOM      4  C   UNL     1      -4.690   2.579  24.701  0.00  0.00    +0.037 A 
ATOM      5  C   UNL     1      -4.241   1.900  24.563  0.00  0.00    +0.006 A 
ATOM      6  C   UNL     1      -4.476   1.178  24.886  0.00  0.00    +0.037 A 
ATOM      7  C   UNL     1      -5.159   1.135  25.345  0.00  0.00    +0.006 A 
ATOM      8  C   UNL     1      -5.608   1.813  25.483  0.00  0.00    +0.037 A 
BRANCH   3   2
ATOM      1  C   UNL     1      -5.460   3.899  25.578  0.00  0.00    +0.252 C 
ATOM      2  O   UNL     1      -5.822   3.213  25.298  0.00  0.00    -0.471 OA
ENDBRANCH   3   2
ENDBRANCH   9   6
ENDBRANCH  12  11
ENDBRANCH  13  12
TORSDOF 6
ENDMDL
MODEL 6
REMARK VINA RESULT:      -9.8      2.923      4.633
REMARK  Name = 
REMARK  6 active torsions:
REMARK  status: ('A' for Active; 'I' for Inactive)
REMARK    1  A    between atoms: O_2  and  C_3
REMARK    2  A    between atoms: C_6  and  C_9
REMARK    3  A    between atoms: C_11  and  C_12
REMARK    4  A    between atoms: C_12  and  C_13
REMARK    5  A    between atoms: C_15  and  N_16
REMARK    6  A    between atoms: C_17  and  C_19
REMARK                            x       y       z     vdW  Elec       q    Type
REMARK                         _______ _______ _______ _____ _____    ______ ____
ROOT
ATOM     13  C   UNL     1      -2.991  -0.772  24.639  0.00  0.00    +0.009 C 
ATOM     14  C   UNL     1      -3.004  -0.005  24.944  0.00  0.00    +0.022 C 
ATOM     15  C   UNL     1      -3.821   0.023  24.832  0.00  0.00    +0.096 C 
ATOM     25  C   UNL     1      -3.807  -0.742  24.527  0.00  0.00    +0.019 C 
ATOM     26  C   UNL     1      -4.598  -0.892  24.348  0.00  0.00    +0.002 C 
ATOM     27  C   UNL     1      -3.984  -1.480  24.205  0.00  0.00    +0.002 C 
ENDROOT
BRANCH  15  16
ATOM     16  N   UNL     1      -4.409   0.586  24.969  0.00  0.00    -0.203 NA
ATOM     17  C   UNL     1      -4.202   1.373  25.113  0.00  0.00    +0.265 C 
ATOM     18  O   UNL     1      -3.408   1.595  25.120  0.00  0.00    -0.268 OA
BRANCH  17  19
ATOM     19  C   UNL     1      -4.790   1.935  25.250  0.00  0.00    +0.055 A 
ATOM     20  C   UNL     1      -4.627   2.736  25.139  0.00  0.00    +0.005 A 
ATOM     21  C   UNL     1      -5.215   3.299  25.276  0.00  0.00    +0.000 A 
ATOM     22  C   UNL     1      -5.965   3.061  25.524  0.00  0.00    +0.000 A 
ATOM     23  C   UNL     1      -6.127   2.259  25.635  0.00  0.00    +0.000 A 
ATOM     24  C   UNL     1      -5.539   1.696  25.498  0.00  0.00    +0.005 A 
ENDBRANCH  17  19
ENDBRANCH  15  16
BRANCH  13  12
ATOM     12  C   UNL     1      -2.403  -1.335  24.502  0.00  0.00    +0.049 C 
BRANCH  12  11
ATOM      9  C   UNL     1      -0.395  -0.656  24.250  0.00  0.00    +0.177 A 
ATOM     10  C   UNL     1      -1.159  -0.771  23.959  0.00  0.00    +0.058 A 
ATOM     11  C   UNL     1      -1.608  -1.123  24.555  0.00  0.00    +0.101 A 
ATOM     28  N   UNL     1      -1.122  -1.226  25.214  0.00  0.00    -0.081 NA
ATOM     29  O   UNL     1      -0.372  -0.937  25.026  0.00  0.00    -0.354 OA
BRANCH   9   6
ATOM      3  C   UNL     1       1.497   0.352  23.013  0.00  0.00    +0.139 A 
ATOM      4  C   UNL     1       1.298  -0.438  22.889  0.00  0.00    +0.037 A 
ATOM      5  C   UNL     1       0.667  -0.775  23.301  0.00  0.00    +0.006 A 
ATOM      6  C   UNL     1       0.235  -0.320  23.838  0.00  0.00    +0.037 A 
ATOM      7  C   UNL     1       0.435   0.471  23.961  0.00  0.00    +0.006 A 
ATOM      8  C   UNL     1       1.065   0.807  23.549  0.00  0.00    +0.037 A 
BRANCH   3   2
ATOM      1  C   UNL     1       2.874   0.341  22.633  0.00  0.00    +0.252 C 
ATOM      2  O   UNL     1       2.127   0.688  22.601  0.00  0.00    -0.471 OA
ENDBRANCH   3   2
ENDBRANCH   9   6
ENDBRANCH  12  11
ENDBRANCH  13  12
TORSDOF 6
ENDMDL
MODEL 7
REMARK VINA RESULT:      -9.8      2.727      4.387
REMARK  Name = 
REMARK  6 active torsions:
REMARK  status: ('A' for Active; 'I' for Inactive)
REMARK    1  A    between atoms: O_2  and  C_3
REMARK    2  A    between atoms: C_6  and  C_9
REMARK    3  A    between atoms: C_11  and  C_12
REMARK    4  A    between atoms: C_12  and  C_13
REMARK    5  A    between atoms: C_15  and  N_16
REMARK    6  A    between atoms: C_17  and  C_19
REMARK                            x       y       z     vdW  Elec       q    Type
REMARK                         _______ _______ _______ _____ _____    ______ ____
ROOT
ATOM     13  C   UNL     1      -1.728   3.481  25.328  0.00  0.00    +0.009 C 
ATOM     14  C   UNL     1      -2.228   2.826  25.295  0.00  0.00    +0.022 C 
ATOM     15  C   UNL     1      -2.882   3.324  25.367  0.00  0.00    +0.096 C 
ATOM     25  C   UNL     1      -2.382   3.978  25.400  0.00  0.00    +0.019 C 
ATOM     26  C   UNL     1      -2.901   4.614  25.478  0.00  0.00    +0.002 C 
ATOM     27  C   UNL     1      -2.048   4.730  25.449  0.00  0.00    +0.002 C 
ENDROOT
BRANCH  15  16
ATOM     16  N   UNL     1      -3.699   3.212  25.395  0.00  0.00    -0.203 NA
ATOM     17  C   UNL     1      -4.018   2.459  25.278  0.00  0.00    +0.265 C 
ATOM     18  O   UNL     1      -3.518   1.819  25.134  0.00  0.00    -0.268 OA
BRANCH  17  19
ATOM     19  C   UNL     1      -4.835   2.348  25.306  0.00  0.00    +0.055 A 
ATOM     20  C   UNL     1      -5.230   2.037  24.653  0.00  0.00    +0.005 A 
ATOM     21  C   UNL     1      -6.047   1.926  24.680  0.00  0.00    +0.000 A 
ATOM     22  C   UNL     1      -6.468   2.125  25.361  0.00  0.00    +0.000 A 
ATOM     23  C   UNL     1      -6.072   2.435  26.015  0.00  0.00    +0.000 A 
ATOM     24  C   UNL     1      -5.255   2.547  25.988  0.00  0.00    +0.005 A 
ENDBRANCH  17  19
ENDBRANCH  15  16
BRANCH  13  12
ATOM     12  C   UNL     1      -0.911   3.593  25.300  0.00  0.00    +0.049 C 
BRANCH  12  11
ATOM      9  C   UNL     1       0.261   1.920  24.679  0.00  0.00    +0.177 A 
ATOM     10  C   UNL     1      -0.281   2.520  24.517  0.00  0.00    +0.058 A 
ATOM     11  C   UNL     1      -0.408   2.944  25.212  0.00  0.00    +0.101 A 
ATOM     28  N   UNL     1       0.056   2.607  25.806  0.00  0.00    -0.081 NA
ATOM     29  O   UNL     1       0.470   1.974  25.476  0.00  0.00    -0.354 OA
BRANCH   9   6
ATOM      3  C   UNL     1       1.118   0.252  23.063  0.00  0.00    +0.139 A 
ATOM      4  C   UNL     1       1.567   0.920  23.244  0.00  0.00    +0.037 A 
ATOM      5  C   UNL     1       1.282   1.476  23.783  0.00  0.00    +0.006 A 
ATOM      6  C   UNL     1       0.546   1.364  24.141  0.00  0.00    +0.037 A 
ATOM      7  C   UNL     1       0.098   0.696  23.960  0.00  0.00    +0.006 A 
ATOM      8  C   UNL     1       0.383   0.141  23.421  0.00  0.00    +0.037 A 
BRANCH   3   2
ATOM      1  C   UNL     1       2.176  -0.248  22.244  0.00  0.00    +0.252 C 
ATOM      2  O   UNL     1       1.403  -0.304  22.525  0.00  0.00    -0.471 OA
ENDBRANCH   3   2
ENDBRANCH   9   6
ENDBRANCH  12  11
ENDBRANCH  13  12
TORSDOF 6
ENDMDL
