MODEL 1
REMARK VINA RESULT:      -8.8      0.000      0.000
REMARK  Name = 
REMARK  5 active torsions:
REMARK  status: ('A' for Active; 'I' for Inactive)
REMARK    1  A    between atoms: N_2  and  C_4
REMARK    2  A    between atoms: C_7  and  C_10
REMARK    3  A    between atoms: N_15  and  C_16
REMARK    4  A    between atoms: C_20  and  N_24
REMARK    5  A    between atoms: N_27  and  C_28
REMARK                            x       y       z     vdW  Elec       q    Type
REMARK                         _______ _______ _______ _____ _____    ______ ____
ROOT
ATOM     16  C   UNL     1      -0.349   0.806  23.814  0.00  0.00    +0.154 C 
ATOM     17  C   UNL     1      -0.813   0.147  23.635  0.00  0.00    +0.166 C 
ATOM     18  O   UNL     1      -1.595   0.399  23.565  0.00  0.00    -0.350 OA
ATOM     19  C   UNL     1      -1.616   1.211  23.700  0.00  0.00    +0.166 C 
ATOM     20  C   UNL     1      -2.111   1.870  23.741  0.00  0.00    +0.156 C 
ATOM     21  C   UNL     1      -1.647   2.528  23.919  0.00  0.00    +0.166 C 
ATOM     22  O   UNL     1      -0.865   2.277  23.989  0.00  0.00    -0.350 OA
ATOM     23  C   UNL     1      -0.845   1.463  23.854  0.00  0.00    +0.166 C 
ENDROOT
BRANCH  16  15
ATOM     10  C   UNL     1       2.281   0.132  22.920  0.00  0.00    +0.086 A 
ATOM     11  C   UNL     1       1.963  -0.205  22.238  0.00  0.00    +0.040 A 
ATOM     12  C   UNL     1       1.146  -0.205  22.120  0.00  0.00    +0.103 A 
ATOM     13  N   UNL     1       0.647   0.132  22.684  0.00  0.00    -0.211 NA
ATOM     14  C   UNL     1       0.966   0.469  23.367  0.00  0.00    +0.237 A 
ATOM     15  N   UNL     1       0.467   0.806  23.932  0.00  0.00    -0.200 NA
ATOM     34  N   UNL     1       1.782   0.469  23.485  0.00  0.00    -0.212 NA
BRANCH  10   7
ATOM      4  C   UNL     1       4.731   0.133  23.273  0.00  0.00    +0.048 A 
ATOM      5  C   UNL     1       4.284  -0.530  23.478  0.00  0.00    +0.015 A 
ATOM      6  C   UNL     1       3.468  -0.530  23.361  0.00  0.00    +0.003 A 
ATOM      7  C   UNL     1       3.097   0.132  23.038  0.00  0.00    +0.018 A 
ATOM      8  C   UNL     1       3.543   0.795  22.832  0.00  0.00    +0.003 A 
ATOM      9  C   UNL     1       4.360   0.795  22.950  0.00  0.00    +0.015 A 
BRANCH   4   2
ATOM      1  C   UNL     1       5.864   0.455  24.080  0.00  0.00    +0.112 C 
ATOM      2  N   UNL     1       5.547   0.133  23.390  0.00  0.00    -0.304 N 
ATOM      3  C   UNL     1       6.047  -0.189  22.818  0.00  0.00    +0.112 C 
ENDBRANCH   4   2
ENDBRANCH  10   7
ENDBRANCH  16  15
BRANCH  20  24
ATOM     24  N   UNL     1      -2.928   1.870  23.623  0.00  0.00    -0.184 NA
ATOM     25  C   UNL     1      -3.433   2.096  24.235  0.00  0.00    +0.339 C 
ATOM     26  O   UNL     1      -3.122   2.321  24.964  0.00  0.00    -0.249 OA
ATOM     27  N   UNL     1      -4.249   2.096  24.117  0.00  0.00    -0.189 NA
BRANCH  27  28
ATOM     28  C   UNL     1      -4.755   2.321  24.729  0.00  0.00    +0.097 C 
ATOM     29  C   UNL     1      -4.847   3.119  24.915  0.00  0.00    +0.022 C 
ATOM     30  C   UNL     1      -5.352   3.345  25.526  0.00  0.00    +0.002 C 
ATOM     31  C   UNL     1      -5.766   2.771  25.953  0.00  0.00    +0.000 C 
ATOM     32  C   UNL     1      -5.674   1.973  25.767  0.00  0.00    +0.002 C 
ATOM     33  C   UNL     1      -5.168   1.748  25.155  0.00  0.00    +0.022 C 
ENDBRANCH  27  28
ENDBRANCH  20  24
TORSDOF 5
ENDMDL
MODEL 2
REMARK VINA RESULT:      -8.8      1.249      7.587
REMARK  Name = 
REMARK  5 active torsions:
REMARK  status: ('A' for Active; 'I' for Inactive)
REMARK    1  A    between atoms: N_2  and  C_4
REMARK    2  A    between atoms: C_7  and  C_10
REMARK    3  A    between atoms: N_15  and  C_16
REMARK    4  A    between atoms: C_20  and  N_24
REMARK    5  A    between atoms: N_27  and  C_28
REMARK                            x       y       z     vdW  Elec       q    Type
REMARK                         _______ _______ _______ _____ _____    ______ ____
ROOT
ATOM     16  C   UNL     1      -0.545   0.513  24.099  0.00  0.00    +0.154 C 
ATOM     17  C   UNL     1      -0.539  -0.275  23.856  0.00  0.00    +0.166 C 
ATOM     18  O   UNL     1       0.181  -0.421  23.483  0.00  0.00    -0.350 OA
ATOM     19  C   UNL     1       0.621   0.276  23.494  0.00  0.00    +0.166 C 
ATOM     20  C   UNL     1       1.338   0.618  23.271  0.00  0.00    +0.156 C 
ATOM     21  C   UNL     1       1.333   1.406  23.514  0.00  0.00    +0.166 C 
ATOM     22  O   UNL     1       0.612   1.552  23.887  0.00  0.00    -0.350 OA
ATOM     23  C   UNL     1       0.172   0.854  23.875  0.00  0.00    +0.166 C 
ENDROOT
BRANCH  16  15
ATOM     10  C   UNL     1      -3.211   1.542  24.126  0.00  0.00    +0.086 A 
ATOM     11  C   UNL     1      -3.315   1.295  23.346  0.00  0.00    +0.040 A 
ATOM     12  C   UNL     1      -2.699   0.914  22.949  0.00  0.00    +0.103 A 
ATOM     13  N   UNL     1      -1.981   0.780  23.332  0.00  0.00    -0.211 NA
ATOM     14  C   UNL     1      -1.878   1.028  24.113  0.00  0.00    +0.237 A 
ATOM     15  N   UNL     1      -1.160   0.894  24.496  0.00  0.00    -0.200 NA
ATOM     34  N   UNL     1      -2.493   1.408  24.509  0.00  0.00    -0.212 NA
BRANCH  10   7
ATOM      4  C   UNL     1      -5.057   2.684  25.316  0.00  0.00    +0.048 A 
ATOM      5  C   UNL     1      -4.458   3.127  24.961  0.00  0.00    +0.015 A 
ATOM      6  C   UNL     1      -3.843   2.746  24.564  0.00  0.00    +0.003 A 
ATOM      7  C   UNL     1      -3.826   1.923  24.522  0.00  0.00    +0.018 A 
ATOM      8  C   UNL     1      -4.424   1.479  24.878  0.00  0.00    +0.003 A 
ATOM      9  C   UNL     1      -5.040   1.860  25.275  0.00  0.00    +0.015 A 
BRANCH   4   2
ATOM      1  C   UNL     1      -6.210   2.625  26.157  0.00  0.00    +0.112 C 
ATOM      2  N   UNL     1      -5.672   3.064  25.713  0.00  0.00    -0.304 N 
ATOM      3  C   UNL     1      -5.749   3.884  25.665  0.00  0.00    +0.112 C 
ENDBRANCH   4   2
ENDBRANCH  10   7
ENDBRANCH  16  15
BRANCH  20  24
ATOM     24  N   UNL     1       1.953   0.237  22.874  0.00  0.00    -0.184 NA
ATOM     25  C   UNL     1       2.723   0.276  23.169  0.00  0.00    +0.339 C 
ATOM     26  O   UNL     1       2.877   0.697  23.862  0.00  0.00    -0.249 OA
ATOM     27  N   UNL     1       3.337  -0.104  22.773  0.00  0.00    -0.189 NA
BRANCH  27  28
ATOM     28  C   UNL     1       4.107  -0.064  23.069  0.00  0.00    +0.097 C 
ATOM     29  C   UNL     1       4.573   0.599  22.919  0.00  0.00    +0.022 C 
ATOM     30  C   UNL     1       5.341   0.638  23.214  0.00  0.00    +0.002 C 
ATOM     31  C   UNL     1       5.645   0.014  23.660  0.00  0.00    +0.000 C 
ATOM     32  C   UNL     1       5.178  -0.650  23.811  0.00  0.00    +0.002 C 
ATOM     33  C   UNL     1       4.409  -0.689  23.515  0.00  0.00    +0.022 C 
ENDBRANCH  27  28
ENDBRANCH  20  24
TORSDOF 5
ENDMDL
