REMARK  Name = 
REMARK  5 active torsions:
REMARK  status: ('A' for Active; 'I' for Inactive)
REMARK    1  A    between atoms: O_2  and  C_3
REMARK    2  A    between atoms: C_6  and  C_9
REMARK    3  A    between atoms: C_15  and  N_16
REMARK    4  A    between atoms: C_17  and  C_19
REMARK    5  A    between atoms: C_23  and  O_24
REMARK                            x       y       z     vdW  Elec       q    Type
REMARK                         _______ _______ _______ _____ _____    ______ ____
ROOT
ATOM      9  C   UNL     1       0.000  -2.475   0.000  0.00  0.00    +0.048 C 
ATOM     10  C   UNL     1      -0.667  -2.960   0.000  0.00  0.00    +0.042 C 
ATOM     11  C   UNL     1      -0.412  -3.744   0.000  0.00  0.00    +0.184 C 
ATOM     12  O   UNL     1      -0.897  -4.412   0.000  0.00  0.00    -0.220 OA
ATOM     13  C   UNL     1       0.412  -3.744   0.000  0.00  0.00    +0.202 C 
ATOM     14  O   UNL     1       0.897  -4.412   0.000  0.00  0.00    -0.219 OA
ATOM     15  C   UNL     1       0.667  -2.960   0.000  0.00  0.00    +0.132 C 
ENDROOT
BRANCH   9   6
ATOM      3  C   UNL     1       0.000   0.000   0.000  0.00  0.00    +0.139 A 
ATOM      4  C   UNL     1       0.715  -0.412   0.000  0.00  0.00    +0.037 A 
ATOM      5  C   UNL     1       0.715  -1.238   0.000  0.00  0.00    -0.001 A 
ATOM      6  C   UNL     1       0.000  -1.650   0.000  0.00  0.00    -0.020 A 
ATOM      7  C   UNL     1      -0.715  -1.238   0.000  0.00  0.00    -0.001 A 
ATOM      8  C   UNL     1      -0.715  -0.412   0.000  0.00  0.00    +0.037 A 
BRANCH   3   2
ATOM      1  C   UNL     1      -0.715   1.238   0.000  0.00  0.00    +0.252 C 
ATOM      2  O   UNL     1       0.000   0.825   0.000  0.00  0.00    -0.471 OA
ENDBRANCH   3   2
ENDBRANCH   9   6
BRANCH  15  16
ATOM     16  N   UNL     1       1.452  -2.705   0.000  0.00  0.00    -0.200 NA
ATOM     17  C   UNL     1       2.065  -3.257   0.000  0.00  0.00    +0.265 C 
ATOM     18  O   UNL     1       1.894  -4.064   0.000  0.00  0.00    -0.268 OA
BRANCH  17  19
ATOM     19  C   UNL     1       2.850  -3.002   0.000  0.00  0.00    +0.058 A 
ATOM     20  C   UNL     1       3.021  -2.195   0.000  0.00  0.00    +0.005 A 
ATOM     21  C   UNL     1       3.806  -1.940   0.000  0.00  0.00    +0.003 A 
ATOM     22  C   UNL     1       4.419  -2.492   0.000  0.00  0.00    +0.037 A 
ATOM     23  C   UNL     1       4.247  -3.299   0.000  0.00  0.00    +0.139 A 
ATOM     26  C   UNL     1       3.463  -3.554   0.000  0.00  0.00    +0.041 A 
BRANCH  23  24
ATOM     24  O   UNL     1       4.861  -3.851   0.000  0.00  0.00    -0.471 OA
ATOM     25  C   UNL     1       5.645  -3.596   0.000  0.00  0.00    +0.252 C 
ENDBRANCH  23  24
ENDBRANCH  17  19
ENDBRANCH  15  16
TORSDOF 5
