REMARK  Name = 
REMARK  9 active torsions:
REMARK  status: ('A' for Active; 'I' for Inactive)
REMARK    1  A    between atoms: S_2  and  C_3
REMARK    2  A    between atoms: C_7  and  N_8
REMARK    3  A    between atoms: C_9  and  O_11
REMARK    4  A    between atoms: O_11  and  C_12
REMARK    5  A    between atoms: C_17  and  C_18
REMARK    6  A    between atoms: C_18  and  C_19
REMARK    7  A    between atoms: N_21  and  C_22
REMARK    8  A    between atoms: C_22  and  C_23
REMARK    9  A    between atoms: C_34  and  C_36
REMARK                            x       y       z     vdW  Elec       q    Type
REMARK                         _______ _______ _______ _____ _____    ______ ____
ROOT
ATOM     12  C   UNL     1       0.715  -1.238   0.000  0.00  0.00    +0.173 C 
ATOM     13  C   UNL     1       0.715  -0.412   0.000  0.00  0.00    +0.044 C 
ATOM     14  C   UNL     1       1.429   0.000   0.000  0.00  0.00    +0.004 C 
ATOM     15  C   UNL     1       2.143  -0.412   0.000  0.00  0.00    +0.003 C 
ATOM     16  C   UNL     1       2.143   0.412   0.000  0.00  0.00    +0.000 C 
ATOM     17  C   UNL     1       2.858   0.000   0.000  0.00  0.00    +0.040 C 
ATOM     29  C   UNL     1       3.572  -0.412   0.000  0.00  0.00    +0.152 C 
ATOM     30  O   UNL     1       4.287   0.000   0.000  0.00  0.00    -0.223 OA
ATOM     31  C   UNL     1       3.572  -1.238   0.000  0.00  0.00    +0.033 C 
ATOM     32  C   UNL     1       2.858  -1.650   0.000  0.00  0.00    +0.003 C 
ATOM     33  C   UNL     1       2.143  -1.238   0.000  0.00  0.00    +0.006 C 
ATOM     34  C   UNL     1       1.429  -1.650   0.000  0.00  0.00    +0.068 C 
ATOM     35  C   UNL     1       1.816  -2.378   0.000  0.00  0.00    +0.006 C 
ENDROOT
BRANCH  34  36
ATOM     36  C   UNL     1       1.042  -2.378   0.000  0.00  0.00    +0.185 C 
ATOM     37  O   UNL     1       0.217  -2.407   0.000  0.00  0.00    -0.220 OA
ENDBRANCH  34  36
BRANCH  12  11
ATOM     11  O   UNL     1       0.000  -1.650   0.000  0.00  0.00    -0.437 OA
BRANCH  11   9
ATOM      8  N   UNL     1      -0.715  -0.412   0.000  0.00  0.00    -0.142 NA
ATOM      9  C   UNL     1      -0.715  -1.238   0.000  0.00  0.00    +0.425 C 
ATOM     10  O   UNL     1      -1.429  -1.650   0.000  0.00  0.00    -0.224 OA
BRANCH   8   7
ATOM      3  C   UNL     1      -2.858   0.000   0.000  0.00  0.00    +0.027 A 
ATOM      4  C   UNL     1      -2.858   0.825   0.000  0.00  0.00    +0.006 A 
ATOM      5  C   UNL     1      -2.143   1.238   0.000  0.00  0.00    +0.002 A 
ATOM      6  C   UNL     1      -1.429   0.825   0.000  0.00  0.00    +0.017 A 
ATOM      7  C   UNL     1      -1.429   0.000   0.000  0.00  0.00    +0.077 A 
ATOM     38  C   UNL     1      -2.143  -0.412   0.000  0.00  0.00    +0.023 A 
BRANCH   3   2
ATOM      1  C   UNL     1      -4.287   0.000   0.000  0.00  0.00    +0.074 C 
ATOM      2  S   UNL     1      -3.572  -0.412   0.000  0.00  0.00    -0.113 S 
ENDBRANCH   3   2
ENDBRANCH   8   7
ENDBRANCH  11   9
ENDBRANCH  12  11
BRANCH  17  18
ATOM     18  C   UNL     1       2.858   0.825   0.000  0.00  0.00    +0.089 C 
BRANCH  18  19
ATOM     19  C   UNL     1       2.143   1.238   0.000  0.00  0.00    +0.242 C 
ATOM     20  O   UNL     1       1.429   0.825   0.000  0.00  0.00    -0.273 OA
ATOM     21  N   UNL     1       2.143   2.062   0.000  0.00  0.00    -0.201 NA
BRANCH  21  22
ATOM     22  C   UNL     1       1.429   2.475   0.000  0.00  0.00    +0.141 C 
BRANCH  22  23
ATOM     23  C   UNL     1       1.429   3.300   0.000  0.00  0.00    -0.001 A 
ATOM     24  C   UNL     1       0.715   3.712   0.000  0.00  0.00    -0.003 A 
ATOM     25  C   UNL     1       0.715   4.537   0.000  0.00  0.00    -0.000 A 
ATOM     26  C   UNL     1       1.429   4.950   0.000  0.00  0.00    -0.000 A 
ATOM     27  C   UNL     1       2.143   4.537   0.000  0.00  0.00    -0.000 A 
ATOM     28  C   UNL     1       2.143   3.712   0.000  0.00  0.00    -0.003 A 
ENDBRANCH  22  23
ENDBRANCH  21  22
ENDBRANCH  18  19
ENDBRANCH  17  18
TORSDOF 9
