MODEL 1
REMARK VINA RESULT:      -8.8      0.000      0.000
REMARK  Name = 
REMARK  8 active torsions:
REMARK  status: ('A' for Active; 'I' for Inactive)
REMARK    1  A    between atoms: O_2  and  C_3
REMARK    2  A    between atoms: C_6  and  C_9
REMARK    3  A    between atoms: N_11  and  C_12
REMARK    4  A    between atoms: C_16  and  O_20
REMARK    5  A    between atoms: O_20  and  C_21
REMARK    6  A    between atoms: N_23  and  C_24
REMARK    7  A    between atoms: C_27  and  O_28
REMARK    8  A    between atoms: O_28  and  C_29
REMARK                            x       y       z     vdW  Elec       q    Type
REMARK                         _______ _______ _______ _____ _____    ______ ____
ROOT
ATOM     12  C   UNL     1      -2.834   0.788  24.598  0.00  0.00    +0.155 C 
ATOM     13  C   UNL     1      -3.089   0.185  24.096  0.00  0.00    +0.166 C 
ATOM     14  O   UNL     1      -2.427  -0.251  23.866  0.00  0.00    -0.348 OA
ATOM     15  C   UNL     1      -1.765   0.082  24.226  0.00  0.00    +0.186 C 
ATOM     16  C   UNL     1      -0.946   0.019  24.308  0.00  0.00    +0.229 C 
ATOM     17  C   UNL     1      -0.692   0.622  24.810  0.00  0.00    +0.188 C 
ATOM     18  O   UNL     1      -1.353   1.057  25.040  0.00  0.00    -0.348 OA
ATOM     19  C   UNL     1      -2.016   0.724  24.679  0.00  0.00    +0.168 C 
ENDROOT
BRANCH  12  11
ATOM      9  C   UNL     1      -3.953   1.676  24.545  0.00  0.00    +0.265 C 
ATOM     10  O   UNL     1      -4.111   1.429  23.773  0.00  0.00    -0.268 OA
ATOM     11  N   UNL     1      -3.315   1.355  24.957  0.00  0.00    -0.198 NA
BRANCH   9   6
ATOM      3  C   UNL     1      -5.394   3.376  25.620  0.00  0.00    +0.139 A 
ATOM      4  C   UNL     1      -5.607   2.580  25.646  0.00  0.00    +0.037 A 
ATOM      5  C   UNL     1      -5.127   2.013  25.287  0.00  0.00    +0.008 A 
ATOM      6  C   UNL     1      -4.433   2.242  24.903  0.00  0.00    +0.055 A 
ATOM      7  C   UNL     1      -4.220   3.039  24.878  0.00  0.00    +0.008 A 
ATOM      8  C   UNL     1      -4.700   3.606  25.237  0.00  0.00    +0.037 A 
BRANCH   3   2
ATOM      1  C   UNL     1      -6.040   4.650  25.587  0.00  0.00    +0.252 C 
ATOM      2  O   UNL     1      -5.874   3.944  25.979  0.00  0.00    -0.471 OA
ENDBRANCH   3   2
ENDBRANCH   9   6
ENDBRANCH  12  11
BRANCH  16  20
ATOM     20  O   UNL     1      -0.466  -0.548  23.949  0.00  0.00    -0.432 OA
BRANCH  20  21
ATOM     21  C   UNL     1       0.328  -0.381  23.798  0.00  0.00    +0.425 C 
ATOM     22  O   UNL     1       0.894  -0.504  24.385  0.00  0.00    -0.224 OA
ATOM     23  N   UNL     1       0.556  -0.092  23.060  0.00  0.00    -0.142 NA
BRANCH  23  24
ATOM     24  C   UNL     1       1.350   0.075  22.910  0.00  0.00    +0.077 A 
ATOM     25  C   UNL     1       1.709   0.729  23.261  0.00  0.00    +0.020 A 
ATOM     26  C   UNL     1       2.501   0.896  23.111  0.00  0.00    +0.039 A 
ATOM     27  C   UNL     1       2.938   0.408  22.607  0.00  0.00    +0.145 A 
ATOM     35  C   UNL     1       2.579  -0.246  22.255  0.00  0.00    +0.039 A 
ATOM     36  C   UNL     1       1.785  -0.413  22.407  0.00  0.00    +0.020 A 
BRANCH  27  28
ATOM     28  O   UNL     1       3.730   0.574  22.456  0.00  0.00    -0.453 OA
BRANCH  28  29
ATOM     29  C   UNL     1       4.313   0.321  22.983  0.00  0.00    +0.145 A 
ATOM     30  C   UNL     1       4.395  -0.482  23.152  0.00  0.00    +0.037 A 
ATOM     31  C   UNL     1       4.977  -0.736  23.679  0.00  0.00    +0.003 A 
ATOM     32  C   UNL     1       5.476  -0.186  24.037  0.00  0.00    +0.000 A 
ATOM     33  C   UNL     1       5.394   0.618  23.869  0.00  0.00    +0.003 A 
ATOM     34  C   UNL     1       4.813   0.871  23.342  0.00  0.00    +0.037 A 
ENDBRANCH  28  29
ENDBRANCH  27  28
ENDBRANCH  23  24
ENDBRANCH  20  21
ENDBRANCH  16  20
TORSDOF 8
ENDMDL
MODEL 2
REMARK VINA RESULT:      -8.6      1.043      7.532
REMARK  Name = 
REMARK  8 active torsions:
REMARK  status: ('A' for Active; 'I' for Inactive)
REMARK    1  A    between atoms: O_2  and  C_3
REMARK    2  A    between atoms: C_6  and  C_9
REMARK    3  A    between atoms: N_11  and  C_12
REMARK    4  A    between atoms: C_16  and  O_20
REMARK    5  A    between atoms: O_20  and  C_21
REMARK    6  A    between atoms: N_23  and  C_24
REMARK    7  A    between atoms: C_27  and  O_28
REMARK    8  A    between atoms: O_28  and  C_29
REMARK                            x       y       z     vdW  Elec       q    Type
REMARK                         _______ _______ _______ _____ _____    ______ ____
ROOT
ATOM     12  C   UNL     1       0.752  -0.293  23.441  0.00  0.00    +0.155 C 
ATOM     13  C   UNL     1       0.308  -0.281  22.746  0.00  0.00    +0.166 C 
ATOM     14  O   UNL     1      -0.465  -0.496  22.934  0.00  0.00    -0.348 OA
ATOM     15  C   UNL     1      -0.500  -0.640  23.745  0.00  0.00    +0.186 C 
ATOM     16  C   UNL     1      -0.999  -0.862  24.363  0.00  0.00    +0.229 C 
ATOM     17  C   UNL     1      -0.555  -0.874  25.058  0.00  0.00    +0.188 C 
ATOM     18  O   UNL     1       0.218  -0.660  24.870  0.00  0.00    -0.348 OA
ATOM     19  C   UNL     1       0.253  -0.515  24.058  0.00  0.00    +0.168 C 
ENDROOT
BRANCH  12  11
ATOM      9  C   UNL     1       2.033  -0.107  22.834  0.00  0.00    +0.265 C 
ATOM     10  O   UNL     1       1.707  -0.278  22.095  0.00  0.00    -0.268 OA
ATOM     11  N   UNL     1       1.555  -0.115  23.506  0.00  0.00    -0.198 NA
BRANCH   9   6
ATOM      3  C   UNL     1       4.441   0.428  23.030  0.00  0.00    +0.139 A 
ATOM      4  C   UNL     1       4.174  -0.337  23.187  0.00  0.00    +0.037 A 
ATOM      5  C   UNL     1       3.372  -0.515  23.121  0.00  0.00    +0.008 A 
ATOM      6  C   UNL     1       2.835   0.071  22.899  0.00  0.00    +0.055 A 
ATOM      7  C   UNL     1       3.102   0.836  22.742  0.00  0.00    +0.008 A 
ATOM      8  C   UNL     1       3.905   1.015  22.807  0.00  0.00    +0.037 A 
BRANCH   3   2
ATOM      1  C   UNL     1       5.749   0.094  23.497  0.00  0.00    +0.252 C 
ATOM      2  O   UNL     1       5.244   0.607  23.095  0.00  0.00    -0.471 OA
ENDBRANCH   3   2
ENDBRANCH   9   6
ENDBRANCH  12  11
BRANCH  16  20
ATOM     20  O   UNL     1      -1.802  -1.040  24.298  0.00  0.00    -0.432 OA
BRANCH  20  21
ATOM     21  C   UNL     1      -2.368  -0.461  24.457  0.00  0.00    +0.425 C 
ATOM     22  O   UNL     1      -2.225   0.106  25.039  0.00  0.00    -0.224 OA
ATOM     23  N   UNL     1      -3.077  -0.450  24.037  0.00  0.00    -0.142 NA
BRANCH  23  24
ATOM     24  C   UNL     1      -3.643   0.129  24.196  0.00  0.00    +0.077 A 
ATOM     25  C   UNL     1      -3.676   0.812  23.736  0.00  0.00    +0.020 A 
ATOM     26  C   UNL     1      -4.241   1.390  23.896  0.00  0.00    +0.039 A 
ATOM     27  C   UNL     1      -4.775   1.286  24.516  0.00  0.00    +0.145 A 
ATOM     35  C   UNL     1      -4.743   0.602  24.977  0.00  0.00    +0.039 A 
ATOM     36  C   UNL     1      -4.176   0.024  24.817  0.00  0.00    +0.020 A 
BRANCH  27  28
ATOM     28  O   UNL     1      -5.341   1.863  24.677  0.00  0.00    -0.453 OA
BRANCH  28  29
ATOM     29  C   UNL     1      -5.116   2.572  25.034  0.00  0.00    +0.145 A 
ATOM     30  C   UNL     1      -5.316   2.720  25.820  0.00  0.00    +0.037 A 
ATOM     31  C   UNL     1      -5.092   3.429  26.177  0.00  0.00    +0.003 A 
ATOM     32  C   UNL     1      -4.667   3.991  25.747  0.00  0.00    +0.000 A 
ATOM     33  C   UNL     1      -4.467   3.843  24.961  0.00  0.00    +0.003 A 
ATOM     34  C   UNL     1      -4.691   3.134  24.604  0.00  0.00    +0.037 A 
ENDBRANCH  28  29
ENDBRANCH  27  28
ENDBRANCH  23  24
ENDBRANCH  20  21
ENDBRANCH  16  20
TORSDOF 8
ENDMDL
MODEL 3
REMARK VINA RESULT:      -7.0      2.000      7.332
REMARK  Name = 
REMARK  8 active torsions:
REMARK  status: ('A' for Active; 'I' for Inactive)
REMARK    1  A    between atoms: O_2  and  C_3
REMARK    2  A    between atoms: C_6  and  C_9
REMARK    3  A    between atoms: N_11  and  C_12
REMARK    4  A    between atoms: C_16  and  O_20
REMARK    5  A    between atoms: O_20  and  C_21
REMARK    6  A    between atoms: N_23  and  C_24
REMARK    7  A    between atoms: C_27  and  O_28
REMARK    8  A    between atoms: O_28  and  C_29
REMARK                            x       y       z     vdW  Elec       q    Type
REMARK                         _______ _______ _______ _____ _____    ______ ____
ROOT
ATOM     12  C   UNL     1       1.281   1.336  23.662  0.00  0.00    +0.155 C 
ATOM     13  C   UNL     1       0.749   1.162  23.058  0.00  0.00    +0.166 C 
ATOM     14  O   UNL     1      -0.001   1.403  23.302  0.00  0.00    -0.348 OA
ATOM     15  C   UNL     1       0.067   1.727  24.056  0.00  0.00    +0.186 C 
ATOM     16  C   UNL     1      -0.353   2.076  24.675  0.00  0.00    +0.229 C 
ATOM     17  C   UNL     1       0.180   2.251  25.279  0.00  0.00    +0.188 C 
ATOM     18  O   UNL     1       0.930   2.010  25.035  0.00  0.00    -0.348 OA
ATOM     19  C   UNL     1       0.860   1.686  24.279  0.00  0.00    +0.168 C 
ENDROOT
BRANCH  12  11
ATOM      9  C   UNL     1       2.408   0.652  23.109  0.00  0.00    +0.265 C 
ATOM     10  O   UNL     1       1.909   0.264  22.577  0.00  0.00    -0.268 OA
ATOM     11  N   UNL     1       2.093   1.188  23.652  0.00  0.00    -0.198 NA
BRANCH   9   6
ATOM      3  C   UNL     1       4.841   0.206  23.076  0.00  0.00    +0.139 A 
ATOM      4  C   UNL     1       4.550   0.926  22.798  0.00  0.00    +0.037 A 
ATOM      5  C   UNL     1       3.739   1.074  22.809  0.00  0.00    +0.008 A 
ATOM      6  C   UNL     1       3.218   0.503  23.098  0.00  0.00    +0.055 A 
ATOM      7  C   UNL     1       3.509  -0.217  23.377  0.00  0.00    +0.008 A 
ATOM      8  C   UNL     1       4.321  -0.366  23.366  0.00  0.00    +0.037 A 
BRANCH   3   2
ATOM      1  C   UNL     1       6.012  -0.321  23.705  0.00  0.00    +0.252 C 
ATOM      2  O   UNL     1       5.653   0.057  23.065  0.00  0.00    -0.471 OA
ENDBRANCH   3   2
ENDBRANCH   9   6
ENDBRANCH  12  11
BRANCH  16  20
ATOM     20  O   UNL     1      -1.165   2.225  24.685  0.00  0.00    -0.432 OA
BRANCH  20  21
ATOM     21  C   UNL     1      -1.699   1.597  24.732  0.00  0.00    +0.425 C 
ATOM     22  O   UNL     1      -1.522   0.940  25.198  0.00  0.00    -0.224 OA
ATOM     23  N   UNL     1      -2.408   1.627  24.314  0.00  0.00    -0.142 NA
BRANCH  23  24
ATOM     24  C   UNL     1      -2.942   1.000  24.361  0.00  0.00    +0.077 A 
ATOM     25  C   UNL     1      -3.124   0.561  23.687  0.00  0.00    +0.020 A 
ATOM     26  C   UNL     1      -3.657  -0.066  23.734  0.00  0.00    +0.039 A 
ATOM     27  C   UNL     1      -4.010  -0.255  24.456  0.00  0.00    +0.145 A 
ATOM     35  C   UNL     1      -3.829   0.185  25.131  0.00  0.00    +0.039 A 
ATOM     36  C   UNL     1      -3.295   0.812  25.083  0.00  0.00    +0.020 A 
BRANCH  27  28
ATOM     28  O   UNL     1      -4.543  -0.881  24.504  0.00  0.00    -0.453 OA
BRANCH  28  29
ATOM     29  C   UNL     1      -4.272  -1.659  24.447  0.00  0.00    +0.145 A 
ATOM     30  C   UNL     1      -3.832  -1.988  25.062  0.00  0.00    +0.037 A 
ATOM     31  C   UNL     1      -3.561  -2.766  25.005  0.00  0.00    +0.003 A 
ATOM     32  C   UNL     1      -3.731  -3.213  24.333  0.00  0.00    +0.000 A 
ATOM     33  C   UNL     1      -4.171  -2.883  23.717  0.00  0.00    +0.003 A 
ATOM     34  C   UNL     1      -4.441  -2.107  23.775  0.00  0.00    +0.037 A 
ENDBRANCH  28  29
ENDBRANCH  27  28
ENDBRANCH  23  24
ENDBRANCH  20  21
ENDBRANCH  16  20
TORSDOF 8
ENDMDL
MODEL 4
REMARK VINA RESULT:      -6.4     15.398     16.522
REMARK  Name = 
REMARK  8 active torsions:
REMARK  status: ('A' for Active; 'I' for Inactive)
REMARK    1  A    between atoms: O_2  and  C_3
REMARK    2  A    between atoms: C_6  and  C_9
REMARK    3  A    between atoms: N_11  and  C_12
REMARK    4  A    between atoms: C_16  and  O_20
REMARK    5  A    between atoms: O_20  and  C_21
REMARK    6  A    between atoms: N_23  and  C_24
REMARK    7  A    between atoms: C_27  and  O_28
REMARK    8  A    between atoms: O_28  and  C_29
REMARK                            x       y       z     vdW  Elec       q    Type
REMARK                         _______ _______ _______ _____ _____    ______ ____
ROOT
ATOM     12  C   UNL     1      -9.052  -9.692  14.516  0.00  0.00    +0.155 C 
ATOM     13  C   UNL     1      -9.553  -9.307  13.987  0.00  0.00    +0.166 C 
ATOM     14  O   UNL     1      -9.175  -9.277  13.254  0.00  0.00    -0.348 OA
ATOM     15  C   UNL     1      -8.441  -9.644  13.330  0.00  0.00    +0.186 C 
ATOM     16  C   UNL     1      -7.753  -9.852  12.926  0.00  0.00    +0.229 C 
ATOM     17  C   UNL     1      -7.252 -10.238  13.455  0.00  0.00    +0.188 C 
ATOM     18  O   UNL     1      -7.630 -10.268  14.187  0.00  0.00    -0.348 OA
ATOM     19  C   UNL     1      -8.365  -9.900  14.111  0.00  0.00    +0.168 C 
ENDROOT
BRANCH  12  11
ATOM      9  C   UNL     1      -9.624  -9.290  15.763  0.00  0.00    +0.265 C 
ATOM     10  O   UNL     1      -9.880  -8.585  15.417  0.00  0.00    -0.268 OA
ATOM     11  N   UNL     1      -9.210  -9.843  15.312  0.00  0.00    -0.198 NA
BRANCH   9   6
ATOM      3  C   UNL     1     -10.100  -9.741  18.148  0.00  0.00    +0.139 A 
ATOM      4  C   UNL     1      -9.322  -9.630  17.897  0.00  0.00    +0.037 A 
ATOM      5  C   UNL     1      -9.164  -9.480  17.102  0.00  0.00    +0.008 A 
ATOM      6  C   UNL     1      -9.783  -9.440  16.558  0.00  0.00    +0.055 A 
ATOM      7  C   UNL     1     -10.561  -9.551  16.809  0.00  0.00    +0.008 A 
ATOM      8  C   UNL     1     -10.719  -9.702  17.605  0.00  0.00    +0.037 A 
BRANCH   3   2
ATOM      1  C   UNL     1      -9.894 -10.526  19.325  0.00  0.00    +0.252 C 
ATOM      2  O   UNL     1     -10.259  -9.892  18.944  0.00  0.00    -0.471 OA
ENDBRANCH   3   2
ENDBRANCH   9   6
ENDBRANCH  12  11
BRANCH  16  20
ATOM     20  O   UNL     1      -7.595  -9.701  12.130  0.00  0.00    -0.432 OA
BRANCH  20  21
ATOM     21  C   UNL     1      -6.825  -9.771  11.842  0.00  0.00    +0.425 C 
ATOM     22  O   UNL     1      -6.299 -10.300  12.194  0.00  0.00    -0.224 OA
ATOM     23  N   UNL     1      -6.580  -9.311  11.203  0.00  0.00    -0.142 NA
BRANCH  23  24
ATOM     24  C   UNL     1      -5.810  -9.380  10.915  0.00  0.00    +0.077 A 
ATOM     25  C   UNL     1      -5.567 -10.078  10.549  0.00  0.00    +0.020 A 
ATOM     26  C   UNL     1      -4.798 -10.147  10.261  0.00  0.00    +0.039 A 
ATOM     27  C   UNL     1      -4.270  -9.518  10.339  0.00  0.00    +0.145 A 
ATOM     35  C   UNL     1      -4.512  -8.819  10.706  0.00  0.00    +0.039 A 
ATOM     36  C   UNL     1      -5.282  -8.751  10.993  0.00  0.00    +0.020 A 
BRANCH  27  28
ATOM     28  O   UNL     1      -3.500  -9.586  10.052  0.00  0.00    -0.453 OA
BRANCH  28  29
ATOM     29  C   UNL     1      -2.880  -9.753  10.570  0.00  0.00    +0.145 A 
ATOM     30  C   UNL     1      -2.282  -9.198  10.691  0.00  0.00    +0.037 A 
ATOM     31  C   UNL     1      -1.662  -9.365  11.209  0.00  0.00    +0.003 A 
ATOM     32  C   UNL     1      -1.640 -10.088  11.605  0.00  0.00    +0.000 A 
ATOM     33  C   UNL     1      -2.238 -10.644  11.485  0.00  0.00    +0.003 A 
ATOM     34  C   UNL     1      -2.857 -10.476  10.967  0.00  0.00    +0.037 A 
ENDBRANCH  28  29
ENDBRANCH  27  28
ENDBRANCH  23  24
ENDBRANCH  20  21
ENDBRANCH  16  20
TORSDOF 8
ENDMDL
MODEL 5
REMARK VINA RESULT:      -6.3     16.274     18.168
REMARK  Name = 
REMARK  8 active torsions:
REMARK  status: ('A' for Active; 'I' for Inactive)
REMARK    1  A    between atoms: O_2  and  C_3
REMARK    2  A    between atoms: C_6  and  C_9
REMARK    3  A    between atoms: N_11  and  C_12
REMARK    4  A    between atoms: C_16  and  O_20
REMARK    5  A    between atoms: O_20  and  C_21
REMARK    6  A    between atoms: N_23  and  C_24
REMARK    7  A    between atoms: C_27  and  O_28
REMARK    8  A    between atoms: O_28  and  C_29
REMARK                            x       y       z     vdW  Elec       q    Type
REMARK                         _______ _______ _______ _____ _____    ______ ____
ROOT
ATOM     12  C   UNL     1      -7.533 -10.130  13.544  0.00  0.00    +0.155 C 
ATOM     13  C   UNL     1      -8.141 -10.629  13.297  0.00  0.00    +0.166 C 
ATOM     14  O   UNL     1      -8.194 -10.579  12.475  0.00  0.00    -0.348 OA
ATOM     15  C   UNL     1      -7.619 -10.049  12.215  0.00  0.00    +0.186 C 
ATOM     16  C   UNL     1      -7.295  -9.689  11.546  0.00  0.00    +0.229 C 
ATOM     17  C   UNL     1      -6.687  -9.190  11.793  0.00  0.00    +0.188 C 
ATOM     18  O   UNL     1      -6.634  -9.240  12.615  0.00  0.00    -0.348 OA
ATOM     19  C   UNL     1      -7.210  -9.771  12.875  0.00  0.00    +0.168 C 
ENDROOT
BRANCH  12  11
ATOM      9  C   UNL     1      -7.802 -10.184  14.947  0.00  0.00    +0.265 C 
ATOM     10  O   UNL     1      -8.557 -10.479  14.790  0.00  0.00    -0.268 OA
ATOM     11  N   UNL     1      -7.290 -10.010  14.324  0.00  0.00    -0.198 NA
BRANCH   9   6
ATOM      3  C   UNL     1      -7.075  -9.826  17.285  0.00  0.00    +0.139 A 
ATOM      4  C   UNL     1      -6.631 -10.308  16.784  0.00  0.00    +0.037 A 
ATOM      5  C   UNL     1      -6.873 -10.428  16.005  0.00  0.00    +0.008 A 
ATOM      6  C   UNL     1      -7.560 -10.065  15.726  0.00  0.00    +0.055 A 
ATOM      7  C   UNL     1      -8.004  -9.583  16.226  0.00  0.00    +0.008 A 
ATOM      8  C   UNL     1      -7.761  -9.463  17.006  0.00  0.00    +0.037 A 
BRANCH   3   2
ATOM      1  C   UNL     1      -6.960 -10.293  18.630  0.00  0.00    +0.252 C 
ATOM      2  O   UNL     1      -6.833  -9.706  18.064  0.00  0.00    -0.471 OA
ENDBRANCH   3   2
ENDBRANCH   9   6
ENDBRANCH  12  11
BRANCH  16  20
ATOM     20  O   UNL     1      -7.538  -9.809  10.766  0.00  0.00    -0.432 OA
BRANCH  20  21
ATOM     21  C   UNL     1      -7.898  -9.196  10.348  0.00  0.00    +0.425 C 
ATOM     22  O   UNL     1      -7.663  -8.416  10.475  0.00  0.00    -0.224 OA
ATOM     23  N   UNL     1      -8.493  -9.363   9.802  0.00  0.00    -0.142 NA
BRANCH  23  24
ATOM     24  C   UNL     1      -8.853  -8.750   9.383  0.00  0.00    +0.077 A 
ATOM     25  C   UNL     1      -9.539  -8.398   9.675  0.00  0.00    +0.020 A 
ATOM     26  C   UNL     1      -9.899  -7.786   9.257  0.00  0.00    +0.039 A 
ATOM     27  C   UNL     1      -9.573  -7.525   8.544  0.00  0.00    +0.145 A 
ATOM     35  C   UNL     1      -8.887  -7.877   8.252  0.00  0.00    +0.039 A 
ATOM     36  C   UNL     1      -8.527  -8.490   8.671  0.00  0.00    +0.020 A 
BRANCH  27  28
ATOM     28  O   UNL     1      -9.932  -6.913   8.126  0.00  0.00    -0.453 OA
BRANCH  28  29
ATOM     29  C   UNL     1      -9.818  -6.130   8.360  0.00  0.00    +0.145 A 
ATOM     30  C   UNL     1     -10.416  -5.728   8.762  0.00  0.00    +0.037 A 
ATOM     31  C   UNL     1     -10.301  -4.945   8.997  0.00  0.00    +0.003 A 
ATOM     32  C   UNL     1      -9.589  -4.565   8.829  0.00  0.00    +0.000 A 
ATOM     33  C   UNL     1      -8.991  -4.966   8.427  0.00  0.00    +0.003 A 
ATOM     34  C   UNL     1      -9.106  -5.748   8.193  0.00  0.00    +0.037 A 
ENDBRANCH  28  29
ENDBRANCH  27  28
ENDBRANCH  23  24
ENDBRANCH  20  21
ENDBRANCH  16  20
TORSDOF 8
ENDMDL
