REMARK  Name = 
REMARK  8 active torsions:
REMARK  status: ('A' for Active; 'I' for Inactive)
REMARK    1  A    between atoms: O_2  and  C_3
REMARK    2  A    between atoms: C_6  and  N_7
REMARK    3  A    between atoms: N_10  and  C_11
REMARK    4  A    between atoms: C_11  and  C_12
REMARK    5  A    between atoms: C_14  and  C_15
REMARK    6  A    between atoms: C_15  and  C_16
REMARK    7  A    between atoms: C_19  and  C_20
REMARK    8  A    between atoms: C_20  and  N_21
REMARK                            x       y       z     vdW  Elec       q    Type
REMARK                         _______ _______ _______ _____ _____    ______ ____
ROOT
ATOM     12  C   UNL     1       4.180  -0.062   0.000  0.00  0.00    +0.167 C 
ATOM     13  O   UNL     1       3.466  -0.474   0.000  0.00  0.00    -0.354 OA
ATOM     14  C   UNL     1       2.751  -0.062   0.000  0.00  0.00    +0.121 C 
ATOM     28  C   UNL     1       2.751   0.763   0.000  0.00  0.00    +0.033 C 
ATOM     29  C   UNL     1       3.466   1.176   0.000  0.00  0.00    +0.038 C 
ATOM     30  C   UNL     1       4.180   0.763   0.000  0.00  0.00    +0.181 C 
ATOM     31  O   UNL     1       4.895   1.176   0.000  0.00  0.00    -0.220 OA
ENDROOT
BRANCH  12  11
ATOM     11  C   UNL     1       4.895  -0.474   0.000  0.00  0.00    +0.149 C 
BRANCH  11  10
ATOM      7  N   UNL     1       7.038  -0.062   0.000  0.00  0.00    -0.161 NA
ATOM      8  C   UNL     1       6.324  -0.474   0.000  0.00  0.00    +0.344 C 
ATOM      9  O   UNL     1       6.324  -1.299   0.000  0.00  0.00    -0.249 OA
ATOM     10  N   UNL     1       5.609  -0.062   0.000  0.00  0.00    -0.184 NA
BRANCH   7   6
ATOM      3  C   UNL     1       9.181  -1.299   0.000  0.00  0.00    +0.139 A 
ATOM      4  C   UNL     1       8.467  -1.712   0.000  0.00  0.00    +0.038 A 
ATOM      5  C   UNL     1       7.753  -1.299   0.000  0.00  0.00    +0.020 A 
ATOM      6  C   UNL     1       7.753  -0.474   0.000  0.00  0.00    +0.075 A 
ATOM     32  C   UNL     1       8.467  -0.062   0.000  0.00  0.00    +0.020 A 
ATOM     33  C   UNL     1       9.181  -0.474   0.000  0.00  0.00    +0.038 A 
BRANCH   3   2
ATOM      1  C   UNL     1      10.610  -1.299   0.000  0.00  0.00    +0.252 C 
ATOM      2  O   UNL     1       9.896  -1.712   0.000  0.00  0.00    -0.471 OA
ENDBRANCH   3   2
ENDBRANCH   7   6
ENDBRANCH  11  10
ENDBRANCH  12  11
BRANCH  14  15
ATOM     15  C   UNL     1       2.037  -0.474   0.000  0.00  0.00    +0.079 C 
BRANCH  15  16
ATOM     16  C   UNL     1       2.037  -1.299   0.000  0.00  0.00    +0.103 A 
ATOM     17  N   UNL     1       2.704  -1.784   0.000  0.00  0.00    -0.082 NA
ATOM     18  O   UNL     1       2.449  -2.569   0.000  0.00  0.00    -0.357 OA
ATOM     19  C   UNL     1       1.624  -2.569   0.000  0.00  0.00    +0.170 A 
ATOM     27  C   UNL     1       1.369  -1.784   0.000  0.00  0.00    +0.055 A 
BRANCH  19  20
ATOM     20  C   UNL     1       1.139  -3.236   0.000  0.00  0.00    +0.141 C 
BRANCH  20  21
ATOM     21  N   UNL     1       0.319  -3.150   0.000  0.00  0.00    -0.262 NA
ATOM     22  C   UNL     1      -0.166  -3.817   0.000  0.00  0.00    +0.105 C 
ATOM     23  C   UNL     1      -0.987  -3.731   0.000  0.00  0.00    +0.159 C 
ATOM     24  O   UNL     1      -1.322  -2.977   0.000  0.00  0.00    -0.351 OA
ATOM     25  C   UNL     1      -0.837  -2.310   0.000  0.00  0.00    +0.159 C 
ATOM     26  C   UNL     1      -0.017  -2.396   0.000  0.00  0.00    +0.105 C 
ENDBRANCH  20  21
ENDBRANCH  19  20
ENDBRANCH  15  16
ENDBRANCH  14  15
TORSDOF 8
