MODEL 1
REMARK VINA RESULT:      -9.3      0.000      0.000
REMARK  Name = 
REMARK  8 active torsions:
REMARK  status: ('A' for Active; 'I' for Inactive)
REMARK    1  A    between atoms: O_2  and  C_3
REMARK    2  A    between atoms: C_6  and  O_7
REMARK    3  A    between atoms: C_9  and  S_11
REMARK    4  A    between atoms: S_11  and  N_14
REMARK    5  A    between atoms: N_14  and  C_15
REMARK    6  A    between atoms: C_15  and  C_16
REMARK    7  A    between atoms: C_23  and  C_24
REMARK    8  A    between atoms: C_26  and  C_30
REMARK                            x       y       z     vdW  Elec       q    Type
REMARK                         _______ _______ _______ _____ _____    ______ ____
ROOT
ATOM     16  C   UNL     1      -1.370   0.695  24.057  0.00  0.00    +0.077 C 
ATOM     17  C   UNL     1      -0.859   0.149  24.274  0.00  0.00    +0.018 C 
ATOM     18  C   UNL     1      -0.136   0.020  23.931  0.00  0.00    +0.010 C 
ATOM     19  C   UNL     1       0.303  -0.655  24.326  0.00  0.00    +0.018 C 
ATOM     20  C   UNL     1      -0.195  -0.242  24.234  0.00  0.00    +0.072 C 
ATOM     21  N   UNL     1      -0.632   0.555  23.714  0.00  0.00    -0.272 NA
ATOM     22  C   UNL     1      -0.195   0.957  23.021  0.00  0.00    +0.078 C 
ATOM     23  C   UNL     1       0.278   0.410  23.264  0.00  0.00    +0.056 C 
ENDROOT
BRANCH  23  24
ATOM     24  C   UNL     1       1.024   0.226  22.962  0.00  0.00    +0.058 A 
ATOM     25  C   UNL     1       1.748   0.410  23.311  0.00  0.00    +0.035 A 
ATOM     26  C   UNL     1       2.347   0.122  22.823  0.00  0.00    +0.102 A 
ATOM     27  N   UNL     1       1.993  -0.239  22.172  0.00  0.00    -0.170 NA
ATOM     28  N   UNL     1       1.175  -0.175  22.258  0.00  0.00    -0.253 N 
ATOM     29  C   UNL     1       0.608  -0.462  21.731  0.00  0.00    +0.153 C 
BRANCH  26  30
ATOM     30  C   UNL     1       3.158   0.185  22.962  0.00  0.00    +0.019 A 
ATOM     31  C   UNL     1       3.556  -0.417  23.361  0.00  0.00    +0.002 A 
ATOM     32  C   UNL     1       4.367  -0.354  23.500  0.00  0.00    +0.000 A 
ATOM     33  C   UNL     1       4.779   0.312  23.239  0.00  0.00    +0.000 A 
ATOM     34  C   UNL     1       5.590   0.375  23.377  0.00  0.00    +0.000 A 
ATOM     35  C   UNL     1       5.989  -0.228  23.777  0.00  0.00    +0.000 A 
ATOM     36  C   UNL     1       5.576  -0.893  24.037  0.00  0.00    +0.000 A 
ATOM     37  C   UNL     1       4.765  -0.956  23.899  0.00  0.00    +0.000 A 
ATOM     38  C   UNL     1       4.382   0.914  22.839  0.00  0.00    +0.000 A 
ATOM     39  C   UNL     1       3.570   0.851  22.700  0.00  0.00    +0.002 A 
ENDBRANCH  26  30
ENDBRANCH  23  24
BRANCH  16  15
ATOM     15  C   UNL     1      -2.087   1.097  24.120  0.00  0.00    +0.131 C 
BRANCH  15  14
ATOM     14  N   UNL     1      -2.177   1.695  24.682  0.00  0.00    -0.076 NA
BRANCH  14  11
ATOM     11  S   UNL     1      -2.920   2.025  24.819  0.00  0.00    +0.080 S 
ATOM     12  O   UNL     1      -2.987   1.588  25.516  0.00  0.00    -0.151 OA
ATOM     13  O   UNL     1      -2.855   2.461  24.123  0.00  0.00    -0.151 OA
BRANCH  11   9
ATOM      3  C   UNL     1      -5.087   2.290  24.840  0.00  0.00    +0.140 A 
ATOM      4  C   UNL     1      -5.152   3.013  25.231  0.00  0.00    +0.040 A 
ATOM      5  C   UNL     1      -4.473   3.407  25.485  0.00  0.00    +0.041 A 
ATOM      6  C   UNL     1      -3.728   3.077  25.348  0.00  0.00    +0.157 A 
ATOM      9  C   UNL     1      -3.664   2.354  24.956  0.00  0.00    +0.160 A 
ATOM     10  C   UNL     1      -4.343   1.961  24.703  0.00  0.00    +0.060 A 
BRANCH   3   2
ATOM      1  C   UNL     1      -6.423   1.844  25.084  0.00  0.00    +0.252 C 
ATOM      2  O   UNL     1      -5.767   1.897  24.587  0.00  0.00    -0.471 OA
ENDBRANCH   3   2
BRANCH   6   7
ATOM      7  O   UNL     1      -3.050   3.471  25.601  0.00  0.00    -0.470 OA
ATOM      8  C   UNL     1      -3.116   4.168  26.038  0.00  0.00    +0.253 C 
ENDBRANCH   6   7
ENDBRANCH  11   9
ENDBRANCH  14  11
ENDBRANCH  15  14
ENDBRANCH  16  15
TORSDOF 8
ENDMDL
MODEL 2
REMARK VINA RESULT:      -8.3      0.931      1.539
REMARK  Name = 
REMARK  8 active torsions:
REMARK  status: ('A' for Active; 'I' for Inactive)
REMARK    1  A    between atoms: O_2  and  C_3
REMARK    2  A    between atoms: C_6  and  O_7
REMARK    3  A    between atoms: C_9  and  S_11
REMARK    4  A    between atoms: S_11  and  N_14
REMARK    5  A    between atoms: N_14  and  C_15
REMARK    6  A    between atoms: C_15  and  C_16
REMARK    7  A    between atoms: C_23  and  C_24
REMARK    8  A    between atoms: C_26  and  C_30
REMARK                            x       y       z     vdW  Elec       q    Type
REMARK                         _______ _______ _______ _____ _____    ______ ____
ROOT
ATOM     16  C   UNL     1      -1.060   1.147  24.282  0.00  0.00    +0.077 C 
ATOM     17  C   UNL     1      -0.397   1.550  24.223  0.00  0.00    +0.018 C 
ATOM     18  C   UNL     1       0.283   1.288  23.870  0.00  0.00    +0.010 C 
ATOM     19  C   UNL     1       0.936   1.901  23.906  0.00  0.00    +0.018 C 
ATOM     20  C   UNL     1       0.337   1.662  24.013  0.00  0.00    +0.072 C 
ATOM     21  N   UNL     1      -0.363   0.888  23.924  0.00  0.00    -0.272 NA
ATOM     22  C   UNL     1      -0.145   0.106  23.508  0.00  0.00    +0.078 C 
ATOM     23  C   UNL     1       0.486   0.533  23.471  0.00  0.00    +0.056 C 
ENDROOT
BRANCH  23  24
ATOM     24  C   UNL     1       1.208   0.328  23.127  0.00  0.00    +0.058 A 
ATOM     25  C   UNL     1       1.955   0.478  23.442  0.00  0.00    +0.035 A 
ATOM     26  C   UNL     1       2.517   0.180  22.918  0.00  0.00    +0.102 A 
ATOM     27  N   UNL     1       2.118  -0.155  22.280  0.00  0.00    -0.170 NA
ATOM     28  N   UNL     1       1.309  -0.064  22.409  0.00  0.00    -0.253 N 
ATOM     29  C   UNL     1       0.705  -0.319  21.907  0.00  0.00    +0.153 C 
BRANCH  26  30
ATOM     30  C   UNL     1       3.336   0.211  23.016  0.00  0.00    +0.019 A 
ATOM     31  C   UNL     1       3.720  -0.366  23.464  0.00  0.00    +0.002 A 
ATOM     32  C   UNL     1       4.539  -0.335  23.562  0.00  0.00    +0.000 A 
ATOM     33  C   UNL     1       4.973   0.273  23.212  0.00  0.00    +0.000 A 
ATOM     34  C   UNL     1       5.792   0.304  23.309  0.00  0.00    +0.000 A 
ATOM     35  C   UNL     1       6.176  -0.273  23.758  0.00  0.00    +0.000 A 
ATOM     36  C   UNL     1       5.741  -0.880  24.108  0.00  0.00    +0.000 A 
ATOM     37  C   UNL     1       4.923  -0.911  24.010  0.00  0.00    +0.000 A 
ATOM     38  C   UNL     1       4.590   0.850  22.763  0.00  0.00    +0.000 A 
ATOM     39  C   UNL     1       3.770   0.819  22.665  0.00  0.00    +0.002 A 
ENDBRANCH  26  30
ENDBRANCH  23  24
BRANCH  16  15
ATOM     15  C   UNL     1      -1.845   1.053  24.518  0.00  0.00    +0.131 C 
BRANCH  15  14
ATOM     14  N   UNL     1      -2.458   1.265  24.007  0.00  0.00    -0.076 NA
BRANCH  14  11
ATOM     11  S   UNL     1      -3.231   1.318  24.290  0.00  0.00    +0.080 S 
ATOM     12  O   UNL     1      -3.500   1.478  23.526  0.00  0.00    -0.151 OA
ATOM     13  O   UNL     1      -2.963   1.159  25.053  0.00  0.00    -0.151 OA
BRANCH  11   9
ATOM      3  C   UNL     1      -5.084   2.155  25.084  0.00  0.00    +0.140 A 
ATOM      4  C   UNL     1      -5.551   1.477  25.136  0.00  0.00    +0.040 A 
ATOM      5  C   UNL     1      -5.245   0.746  24.906  0.00  0.00    +0.041 A 
ATOM      6  C   UNL     1      -4.471   0.693  24.624  0.00  0.00    +0.157 A 
ATOM      9  C   UNL     1      -4.004   1.371  24.572  0.00  0.00    +0.160 A 
ATOM     10  C   UNL     1      -4.311   2.101  24.802  0.00  0.00    +0.060 A 
BRANCH   3   2
ATOM      1  C   UNL     1      -5.922   2.930  25.943  0.00  0.00    +0.252 C 
ATOM      2  O   UNL     1      -5.391   2.885  25.314  0.00  0.00    -0.471 OA
ENDBRANCH   3   2
BRANCH   6   7
ATOM      7  O   UNL     1      -4.165  -0.037  24.394  0.00  0.00    -0.470 OA
ATOM      8  C   UNL     1      -4.651  -0.704  24.385  0.00  0.00    +0.253 C 
ENDBRANCH   6   7
ENDBRANCH  11   9
ENDBRANCH  14  11
ENDBRANCH  15  14
ENDBRANCH  16  15
TORSDOF 8
ENDMDL
MODEL 3
REMARK VINA RESULT:      -7.9      2.604      7.624
REMARK  Name = 
REMARK  8 active torsions:
REMARK  status: ('A' for Active; 'I' for Inactive)
REMARK    1  A    between atoms: O_2  and  C_3
REMARK    2  A    between atoms: C_6  and  O_7
REMARK    3  A    between atoms: C_9  and  S_11
REMARK    4  A    between atoms: S_11  and  N_14
REMARK    5  A    between atoms: N_14  and  C_15
REMARK    6  A    between atoms: C_15  and  C_16
REMARK    7  A    between atoms: C_23  and  C_24
REMARK    8  A    between atoms: C_26  and  C_30
REMARK                            x       y       z     vdW  Elec       q    Type
REMARK                         _______ _______ _______ _____ _____    ______ ____
ROOT
ATOM     16  C   UNL     1       0.534   0.218  23.468  0.00  0.00    +0.077 C 
ATOM     17  C   UNL     1      -0.008   0.775  23.515  0.00  0.00    +0.018 C 
ATOM     18  C   UNL     1      -0.719   0.709  23.897  0.00  0.00    +0.010 C 
ATOM     19  C   UNL     1      -1.202   1.461  23.835  0.00  0.00    +0.018 C 
ATOM     20  C   UNL     1      -0.684   1.076  23.731  0.00  0.00    +0.072 C 
ATOM     21  N   UNL     1      -0.192   0.160  23.856  0.00  0.00    -0.272 NA
ATOM     22  C   UNL     1      -0.580  -0.520  24.325  0.00  0.00    +0.078 C 
ATOM     23  C   UNL     1      -1.086   0.051  24.347  0.00  0.00    +0.056 C 
ENDROOT
BRANCH  23  24
ATOM     24  C   UNL     1      -1.824   0.050  24.717  0.00  0.00    +0.058 A 
ATOM     25  C   UNL     1      -2.469   0.521  24.513  0.00  0.00    +0.035 A 
ATOM     26  C   UNL     1      -3.089   0.340  25.025  0.00  0.00    +0.102 A 
ATOM     27  N   UNL     1      -2.827  -0.244  25.545  0.00  0.00    -0.170 NA
ATOM     28  N   UNL     1      -2.045  -0.423  25.354  0.00  0.00    -0.253 N 
ATOM     29  C   UNL     1      -1.568  -0.978  25.735  0.00  0.00    +0.153 C 
BRANCH  26  30
ATOM     30  C   UNL     1      -3.840   0.682  25.019  0.00  0.00    +0.019 A 
ATOM     31  C   UNL     1      -3.935   1.471  25.241  0.00  0.00    +0.002 A 
ATOM     32  C   UNL     1      -4.687   1.813  25.235  0.00  0.00    +0.000 A 
ATOM     33  C   UNL     1      -5.342   1.366  25.005  0.00  0.00    +0.000 A 
ATOM     34  C   UNL     1      -6.092   1.708  24.998  0.00  0.00    +0.000 A 
ATOM     35  C   UNL     1      -6.189   2.497  25.221  0.00  0.00    +0.000 A 
ATOM     36  C   UNL     1      -5.534   2.943  25.450  0.00  0.00    +0.000 A 
ATOM     37  C   UNL     1      -4.783   2.601  25.457  0.00  0.00    +0.000 A 
ATOM     38  C   UNL     1      -5.246   0.577  24.782  0.00  0.00    +0.000 A 
ATOM     39  C   UNL     1      -4.495   0.235  24.789  0.00  0.00    +0.002 A 
ENDBRANCH  26  30
ENDBRANCH  23  24
BRANCH  16  15
ATOM     15  C   UNL     1       1.263  -0.079  23.224  0.00  0.00    +0.131 C 
BRANCH  15  14
ATOM     14  N   UNL     1       1.809   0.417  22.853  0.00  0.00    -0.076 NA
BRANCH  14  11
ATOM     11  S   UNL     1       2.618   0.291  22.955  0.00  0.00    +0.080 S 
ATOM     12  O   UNL     1       2.636   0.876  23.537  0.00  0.00    -0.151 OA
ATOM     13  O   UNL     1       2.600  -0.294  22.375  0.00  0.00    -0.151 OA
BRANCH  11   9
ATOM      3  C   UNL     1       4.503  -0.651  23.523  0.00  0.00    +0.140 A 
ATOM      4  C   UNL     1       5.045  -0.085  23.263  0.00  0.00    +0.040 A 
ATOM      5  C   UNL     1       4.777   0.606  22.900  0.00  0.00    +0.041 A 
ATOM      6  C   UNL     1       3.967   0.731  22.797  0.00  0.00    +0.157 A 
ATOM      9  C   UNL     1       3.426   0.165  23.058  0.00  0.00    +0.160 A 
ATOM     10  C   UNL     1       3.695  -0.525  23.421  0.00  0.00    +0.060 A 
BRANCH   3   2
ATOM      1  C   UNL     1       5.499  -1.347  24.275  0.00  0.00    +0.252 C 
ATOM      2  O   UNL     1       4.772  -1.341  23.886  0.00  0.00    -0.471 OA
ENDBRANCH   3   2
BRANCH   6   7
ATOM      7  O   UNL     1       3.700   1.421  22.435  0.00  0.00    -0.470 OA
ATOM      8  C   UNL     1       4.236   2.012  22.224  0.00  0.00    +0.253 C 
ENDBRANCH   6   7
ENDBRANCH  11   9
ENDBRANCH  14  11
ENDBRANCH  15  14
ENDBRANCH  16  15
TORSDOF 8
ENDMDL
MODEL 4
REMARK VINA RESULT:      -7.7      2.582      7.745
REMARK  Name = 
REMARK  8 active torsions:
REMARK  status: ('A' for Active; 'I' for Inactive)
REMARK    1  A    between atoms: O_2  and  C_3
REMARK    2  A    between atoms: C_6  and  O_7
REMARK    3  A    between atoms: C_9  and  S_11
REMARK    4  A    between atoms: S_11  and  N_14
REMARK    5  A    between atoms: N_14  and  C_15
REMARK    6  A    between atoms: C_15  and  C_16
REMARK    7  A    between atoms: C_23  and  C_24
REMARK    8  A    between atoms: C_26  and  C_30
REMARK                            x       y       z     vdW  Elec       q    Type
REMARK                         _______ _______ _______ _____ _____    ______ ____
ROOT
ATOM     16  C   UNL     1       0.571   1.926  24.402  0.00  0.00    +0.077 C 
ATOM     17  C   UNL     1       0.146   1.878  25.052  0.00  0.00    +0.018 C 
ATOM     18  C   UNL     1      -0.556   2.260  25.184  0.00  0.00    +0.010 C 
ATOM     19  C   UNL     1      -0.889   2.074  25.995  0.00  0.00    +0.018 C 
ATOM     20  C   UNL     1      -0.456   2.038  25.507  0.00  0.00    +0.072 C 
ATOM     21  N   UNL     1      -0.145   2.311  24.545  0.00  0.00    -0.272 NA
ATOM     22  C   UNL     1      -0.645   2.879  24.035  0.00  0.00    +0.078 C 
ATOM     23  C   UNL     1      -1.032   2.805  24.688  0.00  0.00    +0.056 C 
ENDROOT
BRANCH  23  24
ATOM     24  C   UNL     1      -1.749   3.164  24.887  0.00  0.00    +0.058 A 
ATOM     25  C   UNL     1      -2.475   2.782  24.972  0.00  0.00    +0.035 A 
ATOM     26  C   UNL     1      -3.039   3.349  25.172  0.00  0.00    +0.102 A 
ATOM     27  N   UNL     1      -2.662   4.081  25.210  0.00  0.00    -0.170 NA
ATOM     28  N   UNL     1      -1.865   3.966  25.034  0.00  0.00    -0.253 N 
ATOM     29  C   UNL     1      -1.284   4.552  25.009  0.00  0.00    +0.153 C 
BRANCH  26  30
ATOM     30  C   UNL     1      -3.840   3.208  25.310  0.00  0.00    +0.019 A 
ATOM     31  C   UNL     1      -4.195   2.523  25.016  0.00  0.00    +0.002 A 
ATOM     32  C   UNL     1      -4.997   2.383  25.154  0.00  0.00    +0.000 A 
ATOM     33  C   UNL     1      -5.443   2.927  25.586  0.00  0.00    +0.000 A 
ATOM     34  C   UNL     1      -6.244   2.786  25.723  0.00  0.00    +0.000 A 
ATOM     35  C   UNL     1      -6.599   2.101  25.430  0.00  0.00    +0.000 A 
ATOM     36  C   UNL     1      -6.153   1.558  24.998  0.00  0.00    +0.000 A 
ATOM     37  C   UNL     1      -5.352   1.699  24.860  0.00  0.00    +0.000 A 
ATOM     38  C   UNL     1      -5.088   3.611  25.880  0.00  0.00    +0.000 A 
ATOM     39  C   UNL     1      -4.286   3.752  25.742  0.00  0.00    +0.002 A 
ENDBRANCH  26  30
ENDBRANCH  23  24
BRANCH  16  15
ATOM     15  C   UNL     1       1.225   1.739  23.936  0.00  0.00    +0.131 C 
BRANCH  15  14
ATOM     14  N   UNL     1       1.401   0.950  23.768  0.00  0.00    -0.076 NA
BRANCH  14  11
ATOM     11  S   UNL     1       2.095   0.758  23.366  0.00  0.00    +0.080 S 
ATOM     12  O   UNL     1       2.232   1.559  23.220  0.00  0.00    -0.151 OA
ATOM     13  O   UNL     1       1.958  -0.042  23.512  0.00  0.00    -0.151 OA
BRANCH  11   9
ATOM      3  C   UNL     1       4.216   0.557  22.893  0.00  0.00    +0.140 A 
ATOM      4  C   UNL     1       4.177   0.184  22.158  0.00  0.00    +0.040 A 
ATOM      5  C   UNL     1       3.444   0.003  21.826  0.00  0.00    +0.041 A 
ATOM      6  C   UNL     1       2.749   0.194  22.229  0.00  0.00    +0.157 A 
ATOM      9  C   UNL     1       2.789   0.567  22.964  0.00  0.00    +0.160 A 
ATOM     10  C   UNL     1       3.522   0.748  23.295  0.00  0.00    +0.060 A 
BRANCH   3   2
ATOM      1  C   UNL     1       5.458   0.132  23.457  0.00  0.00    +0.252 C 
ATOM      2  O   UNL     1       4.950   0.737  23.225  0.00  0.00    -0.471 OA
ENDBRANCH   3   2
BRANCH   6   7
ATOM      7  O   UNL     1       2.017   0.013  21.897  0.00  0.00    -0.470 OA
ATOM      8  C   UNL     1       1.977  -0.433  21.204  0.00  0.00    +0.253 C 
ENDBRANCH   6   7
ENDBRANCH  11   9
ENDBRANCH  14  11
ENDBRANCH  15  14
ENDBRANCH  16  15
TORSDOF 8
ENDMDL
