MODEL 1
REMARK VINA RESULT:     -11.2      0.000      0.000
REMARK  Name = 
REMARK  6 active torsions:
REMARK  status: ('A' for Active; 'I' for Inactive)
REMARK    1  A    between atoms: O_2  and  C_3
REMARK    2  A    between atoms: C_6  and  C_9
REMARK    3  A    between atoms: C_12  and  C_14
REMARK    4  A    between atoms: N_19  and  C_20
REMARK    5  A    between atoms: C_20  and  C_21
REMARK    6  A    between atoms: C_24  and  N_25
REMARK                            x       y       z     vdW  Elec       q    Type
REMARK                         _______ _______ _______ _____ _____    ______ ____
ROOT
ATOM     14  C   UNL     1      -4.800   2.431  25.288  0.00  0.00    +0.140 C 
ATOM     15  C   UNL     1      -5.602   2.616  25.226  0.00  0.00    +0.060 C 
ATOM     16  C   UNL     1      -5.995   1.955  24.929  0.00  0.00    +0.170 C 
ATOM     17  O   UNL     1      -6.804   1.898  24.779  0.00  0.00    -0.222 OA
ATOM     18  C   UNL     1      -5.435   1.360  24.807  0.00  0.00    +0.106 C 
ATOM     19  N   UNL     1      -4.697   1.655  25.029  0.00  0.00    -0.260 NA
ENDROOT
BRANCH  14  12
ATOM      9  C   UNL     1      -3.106   3.689  25.613  0.00  0.00    +0.203 A 
ATOM     10  N   UNL     1      -3.477   3.727  26.350  0.00  0.00    -0.056 NA
ATOM     11  O   UNL     1      -4.157   3.261  26.318  0.00  0.00    -0.336 OA
ATOM     12  C   UNL     1      -4.206   2.934  25.562  0.00  0.00    +0.251 A 
ATOM     13  N   UNL     1      -3.557   3.199  25.127  0.00  0.00    -0.190 NA
BRANCH   9   6
ATOM      3  C   UNL     1      -1.011   4.842  24.978  0.00  0.00    +0.139 A 
ATOM      4  C   UNL     1      -1.021   4.022  25.062  0.00  0.00    +0.037 A 
ATOM      5  C   UNL     1      -1.720   3.637  25.274  0.00  0.00    +0.006 A 
ATOM      6  C   UNL     1      -2.408   4.073  25.402  0.00  0.00    +0.039 A 
ATOM      7  C   UNL     1      -2.398   4.894  25.318  0.00  0.00    +0.006 A 
ATOM      8  C   UNL     1      -1.700   5.279  25.107  0.00  0.00    +0.037 A 
BRANCH   3   2
ATOM      1  C   UNL     1       0.071   5.027  24.064  0.00  0.00    +0.252 C 
ATOM      2  O   UNL     1      -0.312   5.227  24.767  0.00  0.00    -0.471 OA
ENDBRANCH   3   2
ENDBRANCH   9   6
ENDBRANCH  14  12
BRANCH  19  20
ATOM     20  C   UNL     1      -3.982   1.245  24.997  0.00  0.00    +0.100 C 
BRANCH  20  21
ATOM     21  C   UNL     1      -3.978   0.435  24.845  0.00  0.00    -0.006 A 
ATOM     22  C   UNL     1      -3.926   0.161  24.069  0.00  0.00    -0.002 A 
ATOM     23  C   UNL     1      -3.921  -0.651  23.916  0.00  0.00    +0.016 A 
ATOM     24  C   UNL     1      -3.968  -1.187  24.541  0.00  0.00    +0.073 A 
ATOM     29  C   UNL     1      -4.020  -0.913  25.317  0.00  0.00    +0.016 A 
ATOM     30  C   UNL     1      -4.025  -0.103  25.470  0.00  0.00    -0.002 A 
BRANCH  24  25
ATOM     25  N   UNL     1      -3.964  -1.999  24.389  0.00  0.00    -0.179 NA
ATOM     26  C   UNL     1      -3.266  -2.430  24.479  0.00  0.00    +0.246 C 
ATOM     27  C   UNL     1      -3.262  -3.242  24.326  0.00  0.00    +0.097 C 
ATOM     28  O   UNL     1      -2.575  -2.053  24.721  0.00  0.00    -0.273 OA
ENDBRANCH  24  25
ENDBRANCH  20  21
ENDBRANCH  19  20
TORSDOF 6
ENDMDL
MODEL 2
REMARK VINA RESULT:     -10.7      1.097      5.247
REMARK  Name = 
REMARK  6 active torsions:
REMARK  status: ('A' for Active; 'I' for Inactive)
REMARK    1  A    between atoms: O_2  and  C_3
REMARK    2  A    between atoms: C_6  and  C_9
REMARK    3  A    between atoms: C_12  and  C_14
REMARK    4  A    between atoms: N_19  and  C_20
REMARK    5  A    between atoms: C_20  and  C_21
REMARK    6  A    between atoms: C_24  and  N_25
REMARK                            x       y       z     vdW  Elec       q    Type
REMARK                         _______ _______ _______ _____ _____    ______ ____
ROOT
ATOM     14  C   UNL     1      -5.068   1.744  25.308  0.00  0.00    +0.140 C 
ATOM     15  C   UNL     1      -5.682   1.943  25.822  0.00  0.00    +0.060 C 
ATOM     16  C   UNL     1      -5.591   2.735  26.033  0.00  0.00    +0.170 C 
ATOM     17  O   UNL     1      -6.084   3.163  26.538  0.00  0.00    -0.222 OA
ATOM     18  C   UNL     1      -4.921   3.026  25.649  0.00  0.00    +0.106 C 
ATOM     19  N   UNL     1      -4.598   2.413  25.201  0.00  0.00    -0.260 NA
ENDROOT
BRANCH  14  12
ATOM      9  C   UNL     1      -4.457  -0.209  24.700  0.00  0.00    +0.203 A 
ATOM     10  N   UNL     1      -5.062  -0.056  24.160  0.00  0.00    -0.056 NA
ATOM     11  O   UNL     1      -5.365   0.694  24.322  0.00  0.00    -0.336 OA
ATOM     12  C   UNL     1      -4.947   1.005  24.962  0.00  0.00    +0.251 A 
ATOM     13  N   UNL     1      -4.386   0.447  25.195  0.00  0.00    -0.190 NA
BRANCH   9   6
ATOM      3  C   UNL     1      -3.095  -2.272  24.812  0.00  0.00    +0.139 A 
ATOM      4  C   UNL     1      -3.574  -2.129  24.157  0.00  0.00    +0.037 A 
ATOM      5  C   UNL     1      -4.029  -1.442  24.119  0.00  0.00    +0.006 A 
ATOM      6  C   UNL     1      -4.003  -0.897  24.737  0.00  0.00    +0.039 A 
ATOM      7  C   UNL     1      -3.523  -1.038  25.393  0.00  0.00    +0.006 A 
ATOM      8  C   UNL     1      -3.069  -1.726  25.431  0.00  0.00    +0.037 A 
BRANCH   3   2
ATOM      1  C   UNL     1      -1.876  -2.966  24.539  0.00  0.00    +0.252 C 
ATOM      2  O   UNL     1      -2.640  -2.960  24.849  0.00  0.00    -0.471 OA
ENDBRANCH   3   2
ENDBRANCH   9   6
ENDBRANCH  14  12
BRANCH  19  20
ATOM     20  C   UNL     1      -3.923   2.461  24.729  0.00  0.00    +0.100 C 
BRANCH  20  21
ATOM     21  C   UNL     1      -3.379   3.069  24.847  0.00  0.00    -0.006 A 
ATOM     22  C   UNL     1      -2.791   2.992  25.420  0.00  0.00    -0.002 A 
ATOM     23  C   UNL     1      -2.247   3.601  25.539  0.00  0.00    +0.016 A 
ATOM     24  C   UNL     1      -2.292   4.288  25.083  0.00  0.00    +0.073 A 
ATOM     29  C   UNL     1      -2.879   4.365  24.509  0.00  0.00    +0.016 A 
ATOM     30  C   UNL     1      -3.423   3.756  24.391  0.00  0.00    -0.002 A 
BRANCH  24  25
ATOM     25  N   UNL     1      -1.747   4.897  25.201  0.00  0.00    -0.179 NA
ATOM     26  C   UNL     1      -0.994   4.846  24.868  0.00  0.00    +0.246 C 
ATOM     27  C   UNL     1      -0.450   5.455  24.986  0.00  0.00    +0.097 C 
ATOM     28  O   UNL     1      -0.785   4.189  24.417  0.00  0.00    -0.273 OA
ENDBRANCH  24  25
ENDBRANCH  20  21
ENDBRANCH  19  20
TORSDOF 6
ENDMDL
MODEL 3
REMARK VINA RESULT:     -10.1      2.392      6.291
REMARK  Name = 
REMARK  6 active torsions:
REMARK  status: ('A' for Active; 'I' for Inactive)
REMARK    1  A    between atoms: O_2  and  C_3
REMARK    2  A    between atoms: C_6  and  C_9
REMARK    3  A    between atoms: C_12  and  C_14
REMARK    4  A    between atoms: N_19  and  C_20
REMARK    5  A    between atoms: C_20  and  C_21
REMARK    6  A    between atoms: C_24  and  N_25
REMARK                            x       y       z     vdW  Elec       q    Type
REMARK                         _______ _______ _______ _____ _____    ______ ____
ROOT
ATOM     14  C   UNL     1      -0.288   0.423  24.599  0.00  0.00    +0.140 C 
ATOM     15  C   UNL     1       0.339   0.415  24.062  0.00  0.00    +0.060 C 
ATOM     16  C   UNL     1       0.624   1.185  23.991  0.00  0.00    +0.170 C 
ATOM     17  O   UNL     1       1.249   1.429  23.511  0.00  0.00    -0.222 OA
ATOM     18  C   UNL     1       0.173   1.670  24.484  0.00  0.00    +0.106 C 
ATOM     19  N   UNL     1      -0.390   1.199  24.860  0.00  0.00    -0.260 NA
ENDROOT
BRANCH  14  12
ATOM      9  C   UNL     1      -1.679  -1.172  24.881  0.00  0.00    +0.203 A 
ATOM     10  N   UNL     1      -1.160  -1.300  25.510  0.00  0.00    -0.056 NA
ATOM     11  O   UNL     1      -0.575  -0.718  25.481  0.00  0.00    -0.336 OA
ATOM     12  C   UNL     1      -0.733  -0.230  24.834  0.00  0.00    +0.251 A 
ATOM     13  N   UNL     1      -1.415  -0.511  24.463  0.00  0.00    -0.190 NA
BRANCH   9   6
ATOM      3  C   UNL     1      -3.675  -2.532  24.342  0.00  0.00    +0.139 A 
ATOM      4  C   UNL     1      -2.924  -2.871  24.311  0.00  0.00    +0.037 A 
ATOM      5  C   UNL     1      -2.258  -2.418  24.491  0.00  0.00    +0.006 A 
ATOM      6  C   UNL     1      -2.344  -1.625  24.701  0.00  0.00    +0.039 A 
ATOM      7  C   UNL     1      -3.095  -1.285  24.732  0.00  0.00    +0.006 A 
ATOM      8  C   UNL     1      -3.761  -1.738  24.552  0.00  0.00    +0.037 A 
BRANCH   3   2
ATOM      1  C   UNL     1      -4.762  -2.841  23.467  0.00  0.00    +0.252 C 
ATOM      2  O   UNL     1      -4.340  -2.985  24.162  0.00  0.00    -0.471 OA
ENDBRANCH   3   2
ENDBRANCH   9   6
ENDBRANCH  14  12
BRANCH  19  20
ATOM     20  C   UNL     1      -0.956   1.458  25.401  0.00  0.00    +0.100 C 
BRANCH  20  21
ATOM     21  C   UNL     1      -1.187   2.250  25.409  0.00  0.00    -0.006 A 
ATOM     22  C   UNL     1      -1.774   2.514  24.893  0.00  0.00    -0.002 A 
ATOM     23  C   UNL     1      -2.005   3.306  24.901  0.00  0.00    +0.016 A 
ATOM     24  C   UNL     1      -1.649   3.834  25.426  0.00  0.00    +0.073 A 
ATOM     29  C   UNL     1      -1.062   3.570  25.941  0.00  0.00    +0.016 A 
ATOM     30  C   UNL     1      -0.831   2.778  25.933  0.00  0.00    -0.002 A 
BRANCH  24  25
ATOM     25  N   UNL     1      -1.880   4.626  25.434  0.00  0.00    -0.179 NA
ATOM     26  C   UNL     1      -1.413   5.195  25.060  0.00  0.00    +0.246 C 
ATOM     27  C   UNL     1      -1.645   5.987  25.068  0.00  0.00    +0.097 C 
ATOM     28  O   UNL     1      -0.717   4.973  24.680  0.00  0.00    -0.273 OA
ENDBRANCH  24  25
ENDBRANCH  20  21
ENDBRANCH  19  20
TORSDOF 6
ENDMDL
MODEL 4
REMARK VINA RESULT:      -9.9      2.387      3.451
REMARK  Name = 
REMARK  6 active torsions:
REMARK  status: ('A' for Active; 'I' for Inactive)
REMARK    1  A    between atoms: O_2  and  C_3
REMARK    2  A    between atoms: C_6  and  C_9
REMARK    3  A    between atoms: C_12  and  C_14
REMARK    4  A    between atoms: N_19  and  C_20
REMARK    5  A    between atoms: C_20  and  C_21
REMARK    6  A    between atoms: C_24  and  N_25
REMARK                            x       y       z     vdW  Elec       q    Type
REMARK                         _______ _______ _______ _____ _____    ______ ____
ROOT
ATOM     14  C   UNL     1      -0.186   0.691  24.539  0.00  0.00    +0.140 C 
ATOM     15  C   UNL     1       0.311   0.612  23.884  0.00  0.00    +0.060 C 
ATOM     16  C   UNL     1       0.253  -0.164  23.612  0.00  0.00    +0.170 C 
ATOM     17  O   UNL     1       0.657  -0.483  22.967  0.00  0.00    -0.222 OA
ATOM     18  C   UNL     1      -0.279  -0.566  24.099  0.00  0.00    +0.106 C 
ATOM     19  N   UNL     1      -0.550  -0.037  24.671  0.00  0.00    -0.260 NA
ENDROOT
BRANCH  14  12
ATOM      9  C   UNL     1      -0.685   2.600  25.354  0.00  0.00    +0.203 A 
ATOM     10  N   UNL     1      -0.256   2.268  25.976  0.00  0.00    -0.056 NA
ATOM     11  O   UNL     1      -0.016   1.513  25.746  0.00  0.00    -0.336 OA
ATOM     12  C   UNL     1      -0.298   1.377  24.982  0.00  0.00    +0.251 A 
ATOM     13  N   UNL     1      -0.711   2.049  24.740  0.00  0.00    -0.190 NA
BRANCH   9   6
ATOM      3  C   UNL     1      -1.714   4.851  25.334  0.00  0.00    +0.139 A 
ATOM      4  C   UNL     1      -2.106   4.221  25.693  0.00  0.00    +0.037 A 
ATOM      5  C   UNL     1      -1.763   3.470  25.699  0.00  0.00    +0.006 A 
ATOM      6  C   UNL     1      -1.028   3.350  25.347  0.00  0.00    +0.039 A 
ATOM      7  C   UNL     1      -0.634   3.980  24.987  0.00  0.00    +0.006 A 
ATOM      8  C   UNL     1      -0.977   4.730  24.980  0.00  0.00    +0.037 A 
BRANCH   3   2
ATOM      1  C   UNL     1      -1.700   6.214  24.904  0.00  0.00    +0.252 C 
ATOM      2  O   UNL     1      -2.057   5.601  25.327  0.00  0.00    -0.471 OA
ENDBRANCH   3   2
ENDBRANCH   9   6
ENDBRANCH  14  12
BRANCH  19  20
ATOM     20  C   UNL     1      -1.091  -0.207  25.271  0.00  0.00    +0.100 C 
BRANCH  20  21
ATOM     21  C   UNL     1      -1.718  -0.723  25.127  0.00  0.00    -0.006 A 
ATOM     22  C   UNL     1      -1.577  -1.531  25.046  0.00  0.00    -0.002 A 
ATOM     23  C   UNL     1      -2.204  -2.048  24.902  0.00  0.00    +0.016 A 
ATOM     24  C   UNL     1      -2.973  -1.755  24.839  0.00  0.00    +0.073 A 
ATOM     29  C   UNL     1      -3.114  -0.946  24.920  0.00  0.00    +0.016 A 
ATOM     30  C   UNL     1      -2.487  -0.430  25.064  0.00  0.00    -0.002 A 
BRANCH  24  25
ATOM     25  N   UNL     1      -3.600  -2.271  24.695  0.00  0.00    -0.179 NA
ATOM     26  C   UNL     1      -4.030  -2.212  23.993  0.00  0.00    +0.246 C 
ATOM     27  C   UNL     1      -4.658  -2.728  23.850  0.00  0.00    +0.097 C 
ATOM     28  O   UNL     1      -3.833  -1.637  23.436  0.00  0.00    -0.273 OA
ENDBRANCH  24  25
ENDBRANCH  20  21
ENDBRANCH  19  20
TORSDOF 6
ENDMDL
MODEL 5
REMARK VINA RESULT:      -9.6      2.255      3.632
REMARK  Name = 
REMARK  6 active torsions:
REMARK  status: ('A' for Active; 'I' for Inactive)
REMARK    1  A    between atoms: O_2  and  C_3
REMARK    2  A    between atoms: C_6  and  C_9
REMARK    3  A    between atoms: C_12  and  C_14
REMARK    4  A    between atoms: N_19  and  C_20
REMARK    5  A    between atoms: C_20  and  C_21
REMARK    6  A    between atoms: C_24  and  N_25
REMARK                            x       y       z     vdW  Elec       q    Type
REMARK                         _______ _______ _______ _____ _____    ______ ____
ROOT
ATOM     14  C   UNL     1      -0.432   1.482  24.624  0.00  0.00    +0.140 C 
ATOM     15  C   UNL     1       0.155   1.605  24.057  0.00  0.00    +0.060 C 
ATOM     16  C   UNL     1       0.446   0.868  23.827  0.00  0.00    +0.170 C 
ATOM     17  O   UNL     1       1.039   0.733  23.270  0.00  0.00    -0.222 OA
ATOM     18  C   UNL     1       0.039   0.289  24.252  0.00  0.00    +0.106 C 
ATOM     19  N   UNL     1      -0.504   0.669  24.745  0.00  0.00    -0.260 NA
ENDROOT
BRANCH  14  12
ATOM      9  C   UNL     1      -1.872   2.878  25.355  0.00  0.00    +0.203 A 
ATOM     10  N   UNL     1      -1.216   3.069  25.819  0.00  0.00    -0.056 NA
ATOM     11  O   UNL     1      -0.596   2.568  25.601  0.00  0.00    -0.336 OA
ATOM     12  C   UNL     1      -0.869   2.070  25.004  0.00  0.00    +0.251 A 
ATOM     13  N   UNL     1      -1.658   2.261  24.852  0.00  0.00    -0.190 NA
BRANCH   9   6
ATOM      3  C   UNL     1      -4.091   3.969  25.459  0.00  0.00    +0.139 A 
ATOM      4  C   UNL     1      -3.540   4.096  26.059  0.00  0.00    +0.037 A 
ATOM      5  C   UNL     1      -2.800   3.733  26.025  0.00  0.00    +0.006 A 
ATOM      6  C   UNL     1      -2.611   3.242  25.390  0.00  0.00    +0.039 A 
ATOM      7  C   UNL     1      -3.162   3.114  24.789  0.00  0.00    +0.006 A 
ATOM      8  C   UNL     1      -3.902   3.477  24.823  0.00  0.00    +0.037 A 
BRANCH   3   2
ATOM      1  C   UNL     1      -5.514   3.873  25.539  0.00  0.00    +0.252 C 
ATOM      2  O   UNL     1      -4.831   4.333  25.494  0.00  0.00    -0.471 OA
ENDBRANCH   3   2
ENDBRANCH   9   6
ENDBRANCH  14  12
BRANCH  19  20
ATOM     20  C   UNL     1      -1.026   0.301  25.266  0.00  0.00    +0.100 C 
BRANCH  20  21
ATOM     21  C   UNL     1      -1.393  -0.406  25.051  0.00  0.00    -0.006 A 
ATOM     22  C   UNL     1      -1.068  -1.127  25.283  0.00  0.00    -0.002 A 
ATOM     23  C   UNL     1      -1.436  -1.834  25.068  0.00  0.00    +0.016 A 
ATOM     24  C   UNL     1      -2.129  -1.819  24.622  0.00  0.00    +0.073 A 
ATOM     29  C   UNL     1      -2.454  -1.097  24.390  0.00  0.00    +0.016 A 
ATOM     30  C   UNL     1      -2.087  -0.391  24.604  0.00  0.00    -0.002 A 
BRANCH  24  25
ATOM     25  N   UNL     1      -2.497  -2.526  24.407  0.00  0.00    -0.179 NA
ATOM     26  C   UNL     1      -3.219  -2.734  24.747  0.00  0.00    +0.246 C 
ATOM     27  C   UNL     1      -3.586  -3.442  24.532  0.00  0.00    +0.097 C 
ATOM     28  O   UNL     1      -3.573  -2.238  25.301  0.00  0.00    -0.273 OA
ENDBRANCH  24  25
ENDBRANCH  20  21
ENDBRANCH  19  20
TORSDOF 6
ENDMDL
MODEL 6
REMARK VINA RESULT:      -9.5      1.847      5.629
REMARK  Name = 
REMARK  6 active torsions:
REMARK  status: ('A' for Active; 'I' for Inactive)
REMARK    1  A    between atoms: O_2  and  C_3
REMARK    2  A    between atoms: C_6  and  C_9
REMARK    3  A    between atoms: C_12  and  C_14
REMARK    4  A    between atoms: N_19  and  C_20
REMARK    5  A    between atoms: C_20  and  C_21
REMARK    6  A    between atoms: C_24  and  N_25
REMARK                            x       y       z     vdW  Elec       q    Type
REMARK                         _______ _______ _______ _____ _____    ______ ____
ROOT
ATOM     14  C   UNL     1      -1.017   1.588  24.819  0.00  0.00    +0.140 C 
ATOM     15  C   UNL     1      -0.443   1.863  24.293  0.00  0.00    +0.060 C 
ATOM     16  C   UNL     1      -0.529   2.680  24.227  0.00  0.00    +0.170 C 
ATOM     17  O   UNL     1      -0.069   3.180  23.758  0.00  0.00    -0.222 OA
ATOM     18  C   UNL     1      -1.156   2.911  24.712  0.00  0.00    +0.106 C 
ATOM     19  N   UNL     1      -1.457   2.236  25.077  0.00  0.00    -0.260 NA
ENDROOT
BRANCH  14  12
ATOM      9  C   UNL     1      -1.607  -0.442  25.115  0.00  0.00    +0.203 A 
ATOM     10  N   UNL     1      -1.003  -0.369  25.673  0.00  0.00    -0.056 NA
ATOM     11  O   UNL     1      -0.708   0.401  25.629  0.00  0.00    -0.336 OA
ATOM     12  C   UNL     1      -1.130   0.803  25.045  0.00  0.00    +0.251 A 
ATOM     13  N   UNL     1      -1.686   0.282  24.727  0.00  0.00    -0.190 NA
BRANCH   9   6
ATOM      3  C   UNL     1      -2.947  -2.478  24.682  0.00  0.00    +0.139 A 
ATOM      4  C   UNL     1      -2.170  -2.429  24.409  0.00  0.00    +0.037 A 
ATOM      5  C   UNL     1      -1.723  -1.750  24.553  0.00  0.00    +0.006 A 
ATOM      6  C   UNL     1      -2.054  -1.121  24.970  0.00  0.00    +0.039 A 
ATOM      7  C   UNL     1      -2.831  -1.168  25.244  0.00  0.00    +0.006 A 
ATOM      8  C   UNL     1      -3.277  -1.847  25.099  0.00  0.00    +0.037 A 
BRANCH   3   2
ATOM      1  C   UNL     1      -4.045  -3.121  24.033  0.00  0.00    +0.252 C 
ATOM      2  O   UNL     1      -3.393  -3.156  24.537  0.00  0.00    -0.471 OA
ENDBRANCH   3   2
ENDBRANCH   9   6
ENDBRANCH  14  12
BRANCH  19  20
ATOM     20  C   UNL     1      -2.088   2.213  25.608  0.00  0.00    +0.100 C 
BRANCH  20  21
ATOM     21  C   UNL     1      -2.736   2.711  25.501  0.00  0.00    -0.006 A 
ATOM     22  C   UNL     1      -2.786   3.420  25.920  0.00  0.00    -0.002 A 
ATOM     23  C   UNL     1      -3.435   3.918  25.812  0.00  0.00    +0.016 A 
ATOM     24  C   UNL     1      -4.034   3.707  25.285  0.00  0.00    +0.073 A 
ATOM     29  C   UNL     1      -3.984   2.999  24.867  0.00  0.00    +0.016 A 
ATOM     30  C   UNL     1      -3.336   2.500  24.974  0.00  0.00    -0.002 A 
BRANCH  24  25
ATOM     25  N   UNL     1      -4.683   4.206  25.178  0.00  0.00    -0.179 NA
ATOM     26  C   UNL     1      -5.396   4.042  25.559  0.00  0.00    +0.246 C 
ATOM     27  C   UNL     1      -6.045   4.541  25.452  0.00  0.00    +0.097 C 
ATOM     28  O   UNL     1      -5.461   3.381  26.047  0.00  0.00    -0.273 OA
ENDBRANCH  24  25
ENDBRANCH  20  21
ENDBRANCH  19  20
TORSDOF 6
ENDMDL
