MODEL 1
REMARK VINA RESULT:     -11.4      0.000      0.000
REMARK  Name = 
REMARK  6 active torsions:
REMARK  status: ('A' for Active; 'I' for Inactive)
REMARK    1  A    between atoms: O_2  and  C_3
REMARK    2  A    between atoms: C_6  and  C_9
REMARK    3  A    between atoms: C_12  and  C_14
REMARK    4  A    between atoms: N_19  and  C_20
REMARK    5  A    between atoms: C_20  and  C_21
REMARK    6  A    between atoms: C_24  and  S_27
REMARK                            x       y       z     vdW  Elec       q    Type
REMARK                         _______ _______ _______ _____ _____    ______ ____
ROOT
ATOM     14  C   UNL     1      -4.805   2.370  25.283  0.00  0.00    +0.140 C 
ATOM     15  C   UNL     1      -5.611   2.527  25.202  0.00  0.00    +0.060 C 
ATOM     16  C   UNL     1      -5.977   1.845  24.917  0.00  0.00    +0.170 C 
ATOM     17  O   UNL     1      -6.781   1.758  24.755  0.00  0.00    -0.222 OA
ATOM     18  C   UNL     1      -5.397   1.266  24.821  0.00  0.00    +0.106 C 
ATOM     19  N   UNL     1      -4.673   1.590  25.048  0.00  0.00    -0.260 NA
ENDROOT
BRANCH  14  12
ATOM      9  C   UNL     1      -3.142   3.667  25.611  0.00  0.00    +0.203 A 
ATOM     10  N   UNL     1      -3.559   3.761  26.317  0.00  0.00    -0.056 NA
ATOM     11  O   UNL     1      -4.233   3.286  26.280  0.00  0.00    -0.336 OA
ATOM     12  C   UNL     1      -4.232   2.899  25.551  0.00  0.00    +0.251 A 
ATOM     13  N   UNL     1      -3.558   3.135  25.138  0.00  0.00    -0.190 NA
BRANCH   9   6
ATOM      3  C   UNL     1      -1.015   4.787  25.019  0.00  0.00    +0.139 A 
ATOM      4  C   UNL     1      -1.711   5.226  25.078  0.00  0.00    +0.037 A 
ATOM      5  C   UNL     1      -2.420   4.853  25.275  0.00  0.00    +0.006 A 
ATOM      6  C   UNL     1      -2.433   4.040  25.414  0.00  0.00    +0.039 A 
ATOM      7  C   UNL     1      -1.738   3.600  25.355  0.00  0.00    +0.006 A 
ATOM      8  C   UNL     1      -1.029   3.973  25.157  0.00  0.00    +0.037 A 
BRANCH   3   2
ATOM      1  C   UNL     1       0.005   5.078  24.061  0.00  0.00    +0.252 C 
ATOM      2  O   UNL     1      -0.307   5.160  24.821  0.00  0.00    -0.471 OA
ENDBRANCH   3   2
ENDBRANCH   9   6
ENDBRANCH  14  12
BRANCH  19  20
ATOM     20  C   UNL     1      -3.945   1.203  25.040  0.00  0.00    +0.100 C 
BRANCH  20  21
ATOM     21  C   UNL     1      -3.906   0.400  24.857  0.00  0.00    -0.006 A 
ATOM     22  C   UNL     1      -3.812   0.159  24.074  0.00  0.00    -0.002 A 
ATOM     23  C   UNL     1      -3.774  -0.645  23.890  0.00  0.00    +0.018 A 
ATOM     24  C   UNL     1      -3.830  -1.208  24.491  0.00  0.00    +0.106 A 
ATOM     25  C   UNL     1      -3.924  -0.967  25.274  0.00  0.00    +0.018 A 
ATOM     26  C   UNL     1      -3.962  -0.164  25.457  0.00  0.00    -0.002 A 
BRANCH  24  27
ATOM     27  S   UNL     1      -3.792  -2.012  24.307  0.00  0.00    +0.010 S 
ATOM     28  C   UNL     1      -3.754  -2.814  24.124  0.00  0.00    +0.182 C 
ATOM     29  O   UNL     1      -4.496  -1.948  23.883  0.00  0.00    -0.169 OA
ATOM     30  O   UNL     1      -3.087  -2.075  24.732  0.00  0.00    -0.169 OA
ENDBRANCH  24  27
ENDBRANCH  20  21
ENDBRANCH  19  20
TORSDOF 6
ENDMDL
MODEL 2
REMARK VINA RESULT:     -10.9      1.665      5.197
REMARK  Name = 
REMARK  6 active torsions:
REMARK  status: ('A' for Active; 'I' for Inactive)
REMARK    1  A    between atoms: O_2  and  C_3
REMARK    2  A    between atoms: C_6  and  C_9
REMARK    3  A    between atoms: C_12  and  C_14
REMARK    4  A    between atoms: N_19  and  C_20
REMARK    5  A    between atoms: C_20  and  C_21
REMARK    6  A    between atoms: C_24  and  S_27
REMARK                            x       y       z     vdW  Elec       q    Type
REMARK                         _______ _______ _______ _____ _____    ______ ____
ROOT
ATOM     14  C   UNL     1      -4.912   1.994  25.263  0.00  0.00    +0.140 C 
ATOM     15  C   UNL     1      -5.534   2.332  25.688  0.00  0.00    +0.060 C 
ATOM     16  C   UNL     1      -5.327   3.110  25.866  0.00  0.00    +0.170 C 
ATOM     17  O   UNL     1      -5.789   3.651  26.285  0.00  0.00    -0.222 OA
ATOM     18  C   UNL     1      -4.578   3.254  25.552  0.00  0.00    +0.106 C 
ATOM     19  N   UNL     1      -4.322   2.563  25.179  0.00  0.00    -0.260 NA
ENDROOT
BRANCH  14  12
ATOM      9  C   UNL     1      -4.510  -0.040  24.756  0.00  0.00    +0.203 A 
ATOM     10  N   UNL     1      -5.184   0.106  24.303  0.00  0.00    -0.056 NA
ATOM     11  O   UNL     1      -5.417   0.887  24.438  0.00  0.00    -0.336 OA
ATOM     12  C   UNL     1      -4.887   1.222  24.974  0.00  0.00    +0.251 A 
ATOM     13  N   UNL     1      -4.326   0.649  25.170  0.00  0.00    -0.190 NA
BRANCH   9   6
ATOM      3  C   UNL     1      -3.259  -2.174  24.852  0.00  0.00    +0.139 A 
ATOM      4  C   UNL     1      -3.284  -1.680  25.512  0.00  0.00    +0.037 A 
ATOM      5  C   UNL     1      -3.701  -0.968  25.480  0.00  0.00    +0.006 A 
ATOM      6  C   UNL     1      -4.093  -0.751  24.788  0.00  0.00    +0.039 A 
ATOM      7  C   UNL     1      -4.068  -1.245  24.127  0.00  0.00    +0.006 A 
ATOM      8  C   UNL     1      -3.651  -1.956  24.159  0.00  0.00    +0.037 A 
BRANCH   3   2
ATOM      1  C   UNL     1      -2.103  -2.946  24.521  0.00  0.00    +0.252 C 
ATOM      2  O   UNL     1      -2.842  -2.885  24.884  0.00  0.00    -0.471 OA
ENDBRANCH   3   2
ENDBRANCH   9   6
ENDBRANCH  14  12
BRANCH  19  20
ATOM     20  C   UNL     1      -3.601   2.461  24.791  0.00  0.00    +0.100 C 
BRANCH  20  21
ATOM     21  C   UNL     1      -3.018   3.041  24.843  0.00  0.00    -0.006 A 
ATOM     22  C   UNL     1      -3.009   3.666  24.305  0.00  0.00    -0.002 A 
ATOM     23  C   UNL     1      -2.425   4.248  24.357  0.00  0.00    +0.018 A 
ATOM     24  C   UNL     1      -1.851   4.203  24.948  0.00  0.00    +0.106 A 
ATOM     25  C   UNL     1      -1.860   3.578  25.486  0.00  0.00    +0.018 A 
ATOM     26  C   UNL     1      -2.443   2.997  25.434  0.00  0.00    -0.002 A 
BRANCH  24  27
ATOM     27  S   UNL     1      -1.267   4.784  25.000  0.00  0.00    +0.010 S 
ATOM     28  C   UNL     1      -0.684   5.365  25.052  0.00  0.00    +0.182 C 
ATOM     29  O   UNL     1      -1.799   5.284  25.385  0.00  0.00    -0.169 OA
ATOM     30  O   UNL     1      -0.735   4.284  24.615  0.00  0.00    -0.169 OA
ENDBRANCH  24  27
ENDBRANCH  20  21
ENDBRANCH  19  20
TORSDOF 6
ENDMDL
MODEL 3
REMARK VINA RESULT:     -10.5      2.337      3.331
REMARK  Name = 
REMARK  6 active torsions:
REMARK  status: ('A' for Active; 'I' for Inactive)
REMARK    1  A    between atoms: O_2  and  C_3
REMARK    2  A    between atoms: C_6  and  C_9
REMARK    3  A    between atoms: C_12  and  C_14
REMARK    4  A    between atoms: N_19  and  C_20
REMARK    5  A    between atoms: C_20  and  C_21
REMARK    6  A    between atoms: C_24  and  S_27
REMARK                            x       y       z     vdW  Elec       q    Type
REMARK                         _______ _______ _______ _____ _____    ______ ____
ROOT
ATOM     14  C   UNL     1      -0.309   0.635  24.569  0.00  0.00    +0.140 C 
ATOM     15  C   UNL     1       0.261   0.550  23.979  0.00  0.00    +0.060 C 
ATOM     16  C   UNL     1       0.195  -0.211  23.667  0.00  0.00    +0.170 C 
ATOM     17  O   UNL     1       0.658  -0.530  23.064  0.00  0.00    -0.222 OA
ATOM     18  C   UNL     1      -0.417  -0.597  24.065  0.00  0.00    +0.106 C 
ATOM     19  N   UNL     1      -0.729  -0.074  24.622  0.00  0.00    -0.260 NA
ENDROOT
BRANCH  14  12
ATOM      9  C   UNL     1      -0.805   2.537  25.402  0.00  0.00    +0.203 A 
ATOM     10  N   UNL     1      -0.466   2.161  26.054  0.00  0.00    -0.056 NA
ATOM     11  O   UNL     1      -0.239   1.402  25.821  0.00  0.00    -0.336 OA
ATOM     12  C   UNL     1      -0.438   1.310  25.026  0.00  0.00    +0.251 A 
ATOM     13  N   UNL     1      -0.787   2.011  24.767  0.00  0.00    -0.190 NA
BRANCH   9   6
ATOM      3  C   UNL     1      -1.714   4.839  25.361  0.00  0.00    +0.139 A 
ATOM      4  C   UNL     1      -2.151   4.228  25.701  0.00  0.00    +0.037 A 
ATOM      5  C   UNL     1      -1.848   3.461  25.715  0.00  0.00    +0.006 A 
ATOM      6  C   UNL     1      -1.108   3.304  25.388  0.00  0.00    +0.039 A 
ATOM      7  C   UNL     1      -0.669   3.914  25.047  0.00  0.00    +0.006 A 
ATOM      8  C   UNL     1      -0.972   4.682  25.033  0.00  0.00    +0.037 A 
BRANCH   3   2
ATOM      1  C   UNL     1      -1.687   6.170  24.843  0.00  0.00    +0.252 C 
ATOM      2  O   UNL     1      -2.017   5.606  25.347  0.00  0.00    -0.471 OA
ENDBRANCH   3   2
ENDBRANCH   9   6
ENDBRANCH  14  12
BRANCH  19  20
ATOM     20  C   UNL     1      -1.350  -0.232  25.141  0.00  0.00    +0.100 C 
BRANCH  20  21
ATOM     21  C   UNL     1      -1.952  -0.750  24.918  0.00  0.00    -0.006 A 
ATOM     22  C   UNL     1      -2.658  -0.454  24.612  0.00  0.00    -0.002 A 
ATOM     23  C   UNL     1      -3.261  -0.973  24.389  0.00  0.00    +0.018 A 
ATOM     24  C   UNL     1      -3.156  -1.787  24.473  0.00  0.00    +0.106 A 
ATOM     25  C   UNL     1      -2.450  -2.082  24.779  0.00  0.00    +0.018 A 
ATOM     26  C   UNL     1      -1.848  -1.564  25.002  0.00  0.00    -0.002 A 
BRANCH  24  27
ATOM     27  S   UNL     1      -3.758  -2.305  24.250  0.00  0.00    +0.010 S 
ATOM     28  C   UNL     1      -4.360  -2.823  24.027  0.00  0.00    +0.182 C 
ATOM     29  O   UNL     1      -3.540  -2.819  24.856  0.00  0.00    -0.169 OA
ATOM     30  O   UNL     1      -3.977  -1.790  23.643  0.00  0.00    -0.169 OA
ENDBRANCH  24  27
ENDBRANCH  20  21
ENDBRANCH  19  20
TORSDOF 6
ENDMDL
MODEL 4
REMARK VINA RESULT:     -10.3      2.776      6.262
REMARK  Name = 
REMARK  6 active torsions:
REMARK  status: ('A' for Active; 'I' for Inactive)
REMARK    1  A    between atoms: O_2  and  C_3
REMARK    2  A    between atoms: C_6  and  C_9
REMARK    3  A    between atoms: C_12  and  C_14
REMARK    4  A    between atoms: N_19  and  C_20
REMARK    5  A    between atoms: C_20  and  C_21
REMARK    6  A    between atoms: C_24  and  S_27
REMARK                            x       y       z     vdW  Elec       q    Type
REMARK                         _______ _______ _______ _____ _____    ______ ____
ROOT
ATOM     14  C   UNL     1      -0.229   0.423  24.529  0.00  0.00    +0.140 C 
ATOM     15  C   UNL     1       0.399   0.346  23.999  0.00  0.00    +0.060 C 
ATOM     16  C   UNL     1       0.729   1.093  23.883  0.00  0.00    +0.170 C 
ATOM     17  O   UNL     1       1.370   1.270  23.395  0.00  0.00    -0.222 OA
ATOM     18  C   UNL     1       0.306   1.633  24.343  0.00  0.00    +0.106 C 
ATOM     19  N   UNL     1      -0.286   1.218  24.742  0.00  0.00    -0.260 NA
ENDROOT
BRANCH  14  12
ATOM      9  C   UNL     1      -1.694  -1.090  24.876  0.00  0.00    +0.203 A 
ATOM     10  N   UNL     1      -1.225  -1.164  25.552  0.00  0.00    -0.056 NA
ATOM     11  O   UNL     1      -0.619  -0.605  25.504  0.00  0.00    -0.336 OA
ATOM     12  C   UNL     1      -0.713  -0.187  24.799  0.00  0.00    +0.251 A 
ATOM     13  N   UNL     1      -1.377  -0.487  24.411  0.00  0.00    -0.190 NA
BRANCH   9   6
ATOM      3  C   UNL     1      -3.695  -2.443  24.340  0.00  0.00    +0.139 A 
ATOM      4  C   UNL     1      -3.771  -1.636  24.494  0.00  0.00    +0.037 A 
ATOM      5  C   UNL     1      -3.104  -1.185  24.673  0.00  0.00    +0.006 A 
ATOM      6  C   UNL     1      -2.361  -1.541  24.698  0.00  0.00    +0.039 A 
ATOM      7  C   UNL     1      -2.284  -2.348  24.544  0.00  0.00    +0.006 A 
ATOM      8  C   UNL     1      -2.951  -2.799  24.365  0.00  0.00    +0.037 A 
BRANCH   3   2
ATOM      1  C   UNL     1      -4.776  -2.759  23.460  0.00  0.00    +0.252 C 
ATOM      2  O   UNL     1      -4.363  -2.894  24.162  0.00  0.00    -0.471 OA
ENDBRANCH   3   2
ENDBRANCH   9   6
ENDBRANCH  14  12
BRANCH  19  20
ATOM     20  C   UNL     1      -0.838   1.543  25.262  0.00  0.00    +0.100 C 
BRANCH  20  21
ATOM     21  C   UNL     1      -1.001   2.351  25.240  0.00  0.00    -0.006 A 
ATOM     22  C   UNL     1      -0.595   2.867  25.739  0.00  0.00    -0.002 A 
ATOM     23  C   UNL     1      -0.757   3.676  25.717  0.00  0.00    +0.018 A 
ATOM     24  C   UNL     1      -1.326   3.968  25.195  0.00  0.00    +0.106 A 
ATOM     25  C   UNL     1      -1.732   3.451  24.697  0.00  0.00    +0.018 A 
ATOM     26  C   UNL     1      -1.570   2.643  24.719  0.00  0.00    -0.002 A 
BRANCH  24  27
ATOM     27  S   UNL     1      -1.489   4.777  25.173  0.00  0.00    +0.010 S 
ATOM     28  C   UNL     1      -1.652   5.585  25.152  0.00  0.00    +0.182 C 
ATOM     29  O   UNL     1      -0.785   4.907  24.765  0.00  0.00    -0.169 OA
ATOM     30  O   UNL     1      -2.194   4.646  25.582  0.00  0.00    -0.169 OA
ENDBRANCH  24  27
ENDBRANCH  20  21
ENDBRANCH  19  20
TORSDOF 6
ENDMDL
MODEL 5
REMARK VINA RESULT:      -9.5      2.148      4.049
REMARK  Name = 
REMARK  6 active torsions:
REMARK  status: ('A' for Active; 'I' for Inactive)
REMARK    1  A    between atoms: O_2  and  C_3
REMARK    2  A    between atoms: C_6  and  C_9
REMARK    3  A    between atoms: C_12  and  C_14
REMARK    4  A    between atoms: N_19  and  C_20
REMARK    5  A    between atoms: C_20  and  C_21
REMARK    6  A    between atoms: C_24  and  S_27
REMARK                            x       y       z     vdW  Elec       q    Type
REMARK                         _______ _______ _______ _____ _____    ______ ____
ROOT
ATOM     14  C   UNL     1      -1.069   2.668  25.392  0.00  0.00    +0.140 C 
ATOM     15  C   UNL     1      -0.558   3.004  25.946  0.00  0.00    +0.060 C 
ATOM     16  C   UNL     1       0.108   2.522  26.004  0.00  0.00    +0.170 C 
ATOM     17  O   UNL     1       0.759   2.651  26.494  0.00  0.00    -0.222 OA
ATOM     18  C   UNL     1       0.010   1.887  25.485  0.00  0.00    +0.106 C 
ATOM     19  N   UNL     1      -0.718   1.977  25.107  0.00  0.00    -0.260 NA
ENDROOT
BRANCH  14  12
ATOM      9  C   UNL     1      -3.120   3.133  25.024  0.00  0.00    +0.203 A 
ATOM     10  N   UNL     1      -2.742   3.731  24.598  0.00  0.00    -0.056 NA
ATOM     11  O   UNL     1      -1.927   3.629  24.685  0.00  0.00    -0.336 OA
ATOM     12  C   UNL     1      -1.802   2.969  25.163  0.00  0.00    +0.251 A 
ATOM     13  N   UNL     1      -2.539   2.662  25.372  0.00  0.00    -0.190 NA
BRANCH   9   6
ATOM      3  C   UNL     1      -5.566   2.810  25.218  0.00  0.00    +0.139 A 
ATOM      4  C   UNL     1      -5.176   3.328  25.728  0.00  0.00    +0.037 A 
ATOM      5  C   UNL     1      -4.361   3.435  25.663  0.00  0.00    +0.006 A 
ATOM      6  C   UNL     1      -3.935   3.025  25.088  0.00  0.00    +0.039 A 
ATOM      7  C   UNL     1      -4.324   2.507  24.578  0.00  0.00    +0.006 A 
ATOM      8  C   UNL     1      -5.140   2.399  24.642  0.00  0.00    +0.037 A 
BRANCH   3   2
ATOM      1  C   UNL     1      -6.692   1.941  25.354  0.00  0.00    +0.252 C 
ATOM      2  O   UNL     1      -6.381   2.702  25.283  0.00  0.00    -0.471 OA
ENDBRANCH   3   2
ENDBRANCH   9   6
ENDBRANCH  14  12
BRANCH  19  20
ATOM     20  C   UNL     1      -1.038   1.467  24.544  0.00  0.00    +0.100 C 
BRANCH  20  21
ATOM     21  C   UNL     1      -0.968   0.651  24.639  0.00  0.00    -0.006 A 
ATOM     22  C   UNL     1      -1.439   0.257  25.189  0.00  0.00    -0.002 A 
ATOM     23  C   UNL     1      -1.368  -0.560  25.284  0.00  0.00    +0.018 A 
ATOM     24  C   UNL     1      -0.826  -0.982  24.828  0.00  0.00    +0.106 A 
ATOM     25  C   UNL     1      -0.354  -0.588  24.278  0.00  0.00    +0.018 A 
ATOM     26  C   UNL     1      -0.425   0.228  24.183  0.00  0.00    -0.002 A 
BRANCH  24  27
ATOM     27  S   UNL     1      -0.755  -1.799  24.924  0.00  0.00    +0.010 S 
ATOM     28  C   UNL     1      -0.684  -2.615  25.018  0.00  0.00    +0.182 C 
ATOM     29  O   UNL     1      -1.297  -1.917  24.313  0.00  0.00    -0.169 OA
ATOM     30  O   UNL     1      -0.212  -1.681  25.534  0.00  0.00    -0.169 OA
ENDBRANCH  24  27
ENDBRANCH  20  21
ENDBRANCH  19  20
TORSDOF 6
ENDMDL
MODEL 6
REMARK VINA RESULT:      -9.5      3.387      5.139
REMARK  Name = 
REMARK  6 active torsions:
REMARK  status: ('A' for Active; 'I' for Inactive)
REMARK    1  A    between atoms: O_2  and  C_3
REMARK    2  A    between atoms: C_6  and  C_9
REMARK    3  A    between atoms: C_12  and  C_14
REMARK    4  A    between atoms: N_19  and  C_20
REMARK    5  A    between atoms: C_20  and  C_21
REMARK    6  A    between atoms: C_24  and  S_27
REMARK                            x       y       z     vdW  Elec       q    Type
REMARK                         _______ _______ _______ _____ _____    ______ ____
ROOT
ATOM     14  C   UNL     1      -1.707  -0.536  24.704  0.00  0.00    +0.140 C 
ATOM     15  C   UNL     1      -1.640  -1.142  25.261  0.00  0.00    +0.060 C 
ATOM     16  C   UNL     1      -0.843  -1.343  25.324  0.00  0.00    +0.170 C 
ATOM     17  O   UNL     1      -0.527  -1.923  25.818  0.00  0.00    -0.222 OA
ATOM     18  C   UNL     1      -0.416  -0.862  24.807  0.00  0.00    +0.106 C 
ATOM     19  N   UNL     1      -0.950  -0.363  24.424  0.00  0.00    -0.260 NA
ENDROOT
BRANCH  14  12
ATOM      9  C   UNL     1      -3.463   0.649  24.437  0.00  0.00    +0.203 A 
ATOM     10  N   UNL     1      -3.507   0.148  23.782  0.00  0.00    -0.056 NA
ATOM     11  O   UNL     1      -2.854  -0.356  23.802  0.00  0.00    -0.336 OA
ATOM     12  C   UNL     1      -2.407  -0.168  24.470  0.00  0.00    +0.251 A 
ATOM     13  N   UNL     1      -2.783   0.453  24.862  0.00  0.00    -0.190 NA
BRANCH   9   6
ATOM      3  C   UNL     1      -5.085   2.423  25.023  0.00  0.00    +0.139 A 
ATOM      4  C   UNL     1      -4.403   2.611  24.599  0.00  0.00    +0.037 A 
ATOM      5  C   UNL     1      -3.862   2.019  24.403  0.00  0.00    +0.006 A 
ATOM      6  C   UNL     1      -4.003   1.240  24.632  0.00  0.00    +0.039 A 
ATOM      7  C   UNL     1      -4.685   1.051  25.057  0.00  0.00    +0.006 A 
ATOM      8  C   UNL     1      -5.226   1.643  25.253  0.00  0.00    +0.037 A 
BRANCH   3   2
ATOM      1  C   UNL     1      -5.376   3.677  25.643  0.00  0.00    +0.252 C 
ATOM      2  O   UNL     1      -5.626   3.015  25.219  0.00  0.00    -0.471 OA
ENDBRANCH   3   2
ENDBRANCH   9   6
ENDBRANCH  14  12
BRANCH  19  20
ATOM     20  C   UNL     1      -0.761   0.208  23.859  0.00  0.00    +0.100 C 
BRANCH  20  21
ATOM     21  C   UNL     1       0.019   0.296  23.607  0.00  0.00    -0.006 A 
ATOM     22  C   UNL     1       0.485   0.904  23.912  0.00  0.00    -0.002 A 
ATOM     23  C   UNL     1       1.266   0.992  23.660  0.00  0.00    +0.018 A 
ATOM     24  C   UNL     1       1.580   0.472  23.101  0.00  0.00    +0.106 A 
ATOM     25  C   UNL     1       1.113  -0.136  22.795  0.00  0.00    +0.018 A 
ATOM     26  C   UNL     1       0.333  -0.224  23.048  0.00  0.00    -0.002 A 
BRANCH  24  27
ATOM     27  S   UNL     1       2.360   0.560  22.848  0.00  0.00    +0.010 S 
ATOM     28  C   UNL     1       3.140   0.648  22.596  0.00  0.00    +0.182 C 
ATOM     29  O   UNL     1       2.262  -0.070  22.325  0.00  0.00    -0.169 OA
ATOM     30  O   UNL     1       2.459   1.191  23.372  0.00  0.00    -0.169 OA
ENDBRANCH  24  27
ENDBRANCH  20  21
ENDBRANCH  19  20
TORSDOF 6
ENDMDL
MODEL 7
REMARK VINA RESULT:      -9.2      2.344      5.606
REMARK  Name = 
REMARK  6 active torsions:
REMARK  status: ('A' for Active; 'I' for Inactive)
REMARK    1  A    between atoms: O_2  and  C_3
REMARK    2  A    between atoms: C_6  and  C_9
REMARK    3  A    between atoms: C_12  and  C_14
REMARK    4  A    between atoms: N_19  and  C_20
REMARK    5  A    between atoms: C_20  and  C_21
REMARK    6  A    between atoms: C_24  and  S_27
REMARK                            x       y       z     vdW  Elec       q    Type
REMARK                         _______ _______ _______ _____ _____    ______ ____
ROOT
ATOM     14  C   UNL     1      -0.770   1.414  25.288  0.00  0.00    +0.140 C 
ATOM     15  C   UNL     1      -0.223   1.576  25.884  0.00  0.00    +0.060 C 
ATOM     16  C   UNL     1      -0.293   2.373  26.085  0.00  0.00    +0.170 C 
ATOM     17  O   UNL     1       0.149   2.771  26.657  0.00  0.00    -0.222 OA
ATOM     18  C   UNL     1      -0.885   2.704  25.613  0.00  0.00    +0.106 C 
ATOM     19  N   UNL     1      -1.179   2.110  25.121  0.00  0.00    -0.260 NA
ENDROOT
BRANCH  14  12
ATOM      9  C   UNL     1      -1.385  -0.518  24.620  0.00  0.00    +0.203 A 
ATOM     10  N   UNL     1      -0.753  -0.366  24.110  0.00  0.00    -0.056 NA
ATOM     11  O   UNL     1      -0.446   0.376  24.299  0.00  0.00    -0.336 OA
ATOM     12  C   UNL     1      -0.888   0.683  24.925  0.00  0.00    +0.251 A 
ATOM     13  N   UNL     1      -1.468   0.130  25.123  0.00  0.00    -0.190 NA
BRANCH   9   6
ATOM      3  C   UNL     1      -2.783  -2.560  24.635  0.00  0.00    +0.139 A 
ATOM      4  C   UNL     1      -3.139  -1.816  24.641  0.00  0.00    +0.037 A 
ATOM      5  C   UNL     1      -2.673  -1.135  24.636  0.00  0.00    +0.006 A 
ATOM      6  C   UNL     1      -1.851  -1.199  24.625  0.00  0.00    +0.039 A 
ATOM      7  C   UNL     1      -1.494  -1.943  24.619  0.00  0.00    +0.006 A 
ATOM      8  C   UNL     1      -1.960  -2.623  24.624  0.00  0.00    +0.037 A 
BRANCH   3   2
ATOM      1  C   UNL     1      -3.970  -3.250  24.238  0.00  0.00    +0.252 C 
ATOM      2  O   UNL     1      -3.249  -3.241  24.640  0.00  0.00    -0.471 OA
ENDBRANCH   3   2
ENDBRANCH   9   6
ENDBRANCH  14  12
BRANCH  19  20
ATOM     20  C   UNL     1      -1.777   2.199  24.560  0.00  0.00    +0.100 C 
BRANCH  20  21
ATOM     21  C   UNL     1      -2.466   2.610  24.752  0.00  0.00    -0.006 A 
ATOM     22  C   UNL     1      -2.489   3.431  24.683  0.00  0.00    -0.002 A 
ATOM     23  C   UNL     1      -3.178   3.843  24.876  0.00  0.00    +0.018 A 
ATOM     24  C   UNL     1      -3.844   3.432  25.137  0.00  0.00    +0.106 A 
ATOM     25  C   UNL     1      -3.821   2.611  25.205  0.00  0.00    +0.018 A 
ATOM     26  C   UNL     1      -3.133   2.199  25.013  0.00  0.00    -0.002 A 
BRANCH  24  27
ATOM     27  S   UNL     1      -4.533   3.844  25.329  0.00  0.00    +0.010 S 
ATOM     28  C   UNL     1      -5.221   4.255  25.521  0.00  0.00    +0.182 C 
ATOM     29  O   UNL     1      -4.754   3.844  24.535  0.00  0.00    -0.169 OA
ATOM     30  O   UNL     1      -4.311   3.844  26.124  0.00  0.00    -0.169 OA
ENDBRANCH  24  27
ENDBRANCH  20  21
ENDBRANCH  19  20
TORSDOF 6
ENDMDL
