MODEL 1
REMARK VINA RESULT:     -11.9      0.000      0.000
REMARK  Name = 
REMARK  7 active torsions:
REMARK  status: ('A' for Active; 'I' for Inactive)
REMARK    1  A    between atoms: C_2  and  C_4
REMARK    2  A    between atoms: C_4  and  C_5
REMARK    3  A    between atoms: C_4  and  N_13
REMARK    4  A    between atoms: C_5  and  C_6
REMARK    5  A    between atoms: C_14  and  C_16
REMARK    6  A    between atoms: C_18  and  N_19
REMARK    7  A    between atoms: C_20  and  C_22
REMARK                            x       y       z     vdW  Elec       q    Type
REMARK                         _______ _______ _______ _____ _____    ______ ____
ROOT
ATOM     16  C   UNL     1      -1.657   1.690  24.492  0.00  0.00    +0.033 C 
ATOM     17  C   UNL     1      -2.080   0.998  24.341  0.00  0.00    -0.002 C 
ATOM     18  C   UNL     1      -1.693   0.268  24.354  0.00  0.00    +0.150 C 
ATOM     28  C   UNL     1      -0.885   0.232  24.518  0.00  0.00    +0.206 C 
ATOM     29  O   UNL     1      -0.499  -0.496  24.531  0.00  0.00    -0.218 OA
ATOM     30  C   UNL     1      -0.463   0.925  24.669  0.00  0.00    +0.189 C 
ATOM     31  O   UNL     1       0.345   0.889  24.833  0.00  0.00    -0.220 OA
ATOM     32  C   UNL     1      -0.849   1.654  24.656  0.00  0.00    +0.066 C 
ENDROOT
BRANCH  16  14
ATOM     13  N   UNL     1      -2.594   2.604  25.066  0.00  0.00    -0.194 NA
ATOM     14  C   UNL     1      -2.044   2.419  24.479  0.00  0.00    +0.261 C 
ATOM     15  O   UNL     1      -1.880   2.962  23.880  0.00  0.00    -0.269 OA
BRANCH  13   4
ATOM      4  C   UNL     1      -2.981   3.333  25.053  0.00  0.00    +0.179 C 
BRANCH   4   2
ATOM      1  N   UNL     1      -2.553   4.696  25.060  0.00  0.00    -0.086 NA
ATOM      2  C   UNL     1      -2.659   3.979  25.453  0.00  0.00    +0.281 C 
ATOM      3  O   UNL     1      -2.442   3.906  26.245  0.00  0.00    -0.270 OA
ENDBRANCH   4   2
BRANCH   4   5
ATOM      5  C   UNL     1      -3.691   3.416  24.640  0.00  0.00    +0.057 C 
BRANCH   5   6
ATOM      6  C   UNL     1      -4.378   3.062  24.929  0.00  0.00    -0.020 A 
ATOM      7  C   UNL     1      -4.790   2.520  24.461  0.00  0.00    -0.001 A 
ATOM      8  C   UNL     1      -5.477   2.167  24.750  0.00  0.00    +0.042 A 
ATOM      9  C   UNL     1      -5.753   2.354  25.504  0.00  0.00    +0.196 A 
ATOM     10  O   UNL     1      -6.440   2.000  25.792  0.00  0.00    -0.287 OA
ATOM     11  C   UNL     1      -5.341   2.895  25.971  0.00  0.00    +0.042 A 
ATOM     12  C   UNL     1      -4.653   3.250  25.684  0.00  0.00    -0.001 A 
ENDBRANCH   5   6
ENDBRANCH   4   5
ENDBRANCH  13   4
ENDBRANCH  16  14
BRANCH  18  19
ATOM     19  N   UNL     1      -2.116  -0.424  24.203  0.00  0.00    -0.196 NA
ATOM     20  C   UNL     1      -2.723  -0.656  24.711  0.00  0.00    +0.267 C 
ATOM     21  O   UNL     1      -2.907  -0.196  25.370  0.00  0.00    -0.268 OA
BRANCH  20  22
ATOM     22  C   UNL     1      -3.144  -1.349  24.559  0.00  0.00    +0.074 A 
ATOM     23  C   UNL     1      -2.917  -2.057  24.918  0.00  0.00    +0.103 A 
ATOM     24  N   UNL     1      -3.338  -2.749  24.766  0.00  0.00    -0.242 NA
ATOM     25  C   UNL     1      -3.987  -2.735  24.256  0.00  0.00    +0.099 A 
ATOM     26  C   UNL     1      -4.214  -2.028  23.898  0.00  0.00    +0.021 A 
ATOM     27  C   UNL     1      -3.792  -1.335  24.050  0.00  0.00    +0.008 A 
ENDBRANCH  20  22
ENDBRANCH  18  19
TORSDOF 7
ENDMDL
MODEL 2
REMARK VINA RESULT:     -11.6      1.161      3.453
REMARK  Name = 
REMARK  7 active torsions:
REMARK  status: ('A' for Active; 'I' for Inactive)
REMARK    1  A    between atoms: C_2  and  C_4
REMARK    2  A    between atoms: C_4  and  C_5
REMARK    3  A    between atoms: C_4  and  N_13
REMARK    4  A    between atoms: C_5  and  C_6
REMARK    5  A    between atoms: C_14  and  C_16
REMARK    6  A    between atoms: C_18  and  N_19
REMARK    7  A    between atoms: C_20  and  C_22
REMARK                            x       y       z     vdW  Elec       q    Type
REMARK                         _______ _______ _______ _____ _____    ______ ____
ROOT
ATOM     16  C   UNL     1      -4.210   2.549  24.878  0.00  0.00    +0.033 C 
ATOM     17  C   UNL     1      -3.993   1.755  24.918  0.00  0.00    -0.002 C 
ATOM     18  C   UNL     1      -4.571   1.173  25.012  0.00  0.00    +0.150 C 
ATOM     28  C   UNL     1      -5.366   1.387  25.066  0.00  0.00    +0.206 C 
ATOM     29  O   UNL     1      -5.945   0.807  25.159  0.00  0.00    -0.218 OA
ATOM     30  C   UNL     1      -5.583   2.183  25.025  0.00  0.00    +0.189 C 
ATOM     31  O   UNL     1      -6.378   2.397  25.078  0.00  0.00    -0.220 OA
ATOM     32  C   UNL     1      -5.005   2.763  24.931  0.00  0.00    +0.066 C 
ENDROOT
BRANCH  16  14
ATOM     13  N   UNL     1      -2.956   3.119  25.258  0.00  0.00    -0.194 NA
ATOM     14  C   UNL     1      -3.632   3.130  24.784  0.00  0.00    +0.261 C 
ATOM     15  O   UNL     1      -3.728   3.721  24.216  0.00  0.00    -0.269 OA
BRANCH  13   4
ATOM      4  C   UNL     1      -2.377   3.700  25.165  0.00  0.00    +0.179 C 
BRANCH   4   2
ATOM      1  N   UNL     1      -2.185   5.108  25.317  0.00  0.00    -0.086 NA
ATOM      2  C   UNL     1      -2.389   4.375  25.638  0.00  0.00    +0.281 C 
ATOM      3  O   UNL     1      -2.606   4.319  26.431  0.00  0.00    -0.270 OA
ENDBRANCH   4   2
BRANCH   4   5
ATOM      5  C   UNL     1      -1.785   3.604  24.597  0.00  0.00    +0.057 C 
BRANCH   5   6
ATOM      6  C   UNL     1      -1.143   3.110  24.752  0.00  0.00    -0.020 A 
ATOM      7  C   UNL     1      -0.920   2.539  24.199  0.00  0.00    -0.001 A 
ATOM      8  C   UNL     1      -0.278   2.045  24.353  0.00  0.00    +0.042 A 
ATOM      9  C   UNL     1       0.141   2.121  25.060  0.00  0.00    +0.196 A 
ATOM     10  O   UNL     1       0.783   1.625  25.213  0.00  0.00    -0.287 OA
ATOM     11  C   UNL     1      -0.082   2.691  25.612  0.00  0.00    +0.042 A 
ATOM     12  C   UNL     1      -0.724   3.186  25.459  0.00  0.00    -0.001 A 
ENDBRANCH   5   6
ENDBRANCH   4   5
ENDBRANCH  13   4
ENDBRANCH  16  14
BRANCH  18  19
ATOM     19  N   UNL     1      -4.354   0.379  25.053  0.00  0.00    -0.196 NA
ATOM     20  C   UNL     1      -3.960   0.026  24.420  0.00  0.00    +0.267 C 
ATOM     21  O   UNL     1      -3.783   0.467  23.747  0.00  0.00    -0.268 OA
BRANCH  20  22
ATOM     22  C   UNL     1      -3.743  -0.769  24.462  0.00  0.00    +0.074 A 
ATOM     23  C   UNL     1      -3.118  -1.001  24.949  0.00  0.00    +0.103 A 
ATOM     24  N   UNL     1      -2.901  -1.795  24.991  0.00  0.00    -0.242 NA
ATOM     25  C   UNL     1      -3.308  -2.359  24.547  0.00  0.00    +0.099 A 
ATOM     26  C   UNL     1      -3.932  -2.127  24.059  0.00  0.00    +0.021 A 
ATOM     27  C   UNL     1      -4.149  -1.332  24.017  0.00  0.00    +0.008 A 
ENDBRANCH  20  22
ENDBRANCH  18  19
TORSDOF 7
ENDMDL
MODEL 3
REMARK VINA RESULT:     -11.6      1.330      5.343
REMARK  Name = 
REMARK  7 active torsions:
REMARK  status: ('A' for Active; 'I' for Inactive)
REMARK    1  A    between atoms: C_2  and  C_4
REMARK    2  A    between atoms: C_4  and  C_5
REMARK    3  A    between atoms: C_4  and  N_13
REMARK    4  A    between atoms: C_5  and  C_6
REMARK    5  A    between atoms: C_14  and  C_16
REMARK    6  A    between atoms: C_18  and  N_19
REMARK    7  A    between atoms: C_20  and  C_22
REMARK                            x       y       z     vdW  Elec       q    Type
REMARK                         _______ _______ _______ _____ _____    ______ ____
ROOT
ATOM     16  C   UNL     1      -4.396   1.296  25.004  0.00  0.00    +0.033 C 
ATOM     17  C   UNL     1      -3.767   1.816  24.884  0.00  0.00    -0.002 C 
ATOM     18  C   UNL     1      -3.908   2.627  24.827  0.00  0.00    +0.150 C 
ATOM     28  C   UNL     1      -4.678   2.918  24.889  0.00  0.00    +0.206 C 
ATOM     29  O   UNL     1      -4.819   3.728  24.831  0.00  0.00    -0.218 OA
ATOM     30  C   UNL     1      -5.307   2.397  25.008  0.00  0.00    +0.189 C 
ATOM     31  O   UNL     1      -6.077   2.688  25.070  0.00  0.00    -0.220 OA
ATOM     32  C   UNL     1      -5.166   1.587  25.066  0.00  0.00    +0.066 C 
ENDROOT
BRANCH  16  14
ATOM     13  N   UNL     1      -3.695   0.129  24.570  0.00  0.00    -0.194 NA
ATOM     14  C   UNL     1      -4.255   0.485  25.061  0.00  0.00    +0.261 C 
ATOM     15  O   UNL     1      -4.672   0.031  25.610  0.00  0.00    -0.269 OA
BRANCH  13   4
ATOM      4  C   UNL     1      -3.553  -0.683  24.627  0.00  0.00    +0.179 C 
BRANCH   4   2
ATOM      1  N   UNL     1      -4.293  -1.882  24.394  0.00  0.00    -0.086 NA
ATOM      2  C   UNL     1      -3.923  -1.204  24.105  0.00  0.00    +0.281 C 
ATOM      3  O   UNL     1      -3.921  -1.047  23.296  0.00  0.00    -0.270 OA
ENDBRANCH   4   2
BRANCH   4   5
ATOM      5  C   UNL     1      -3.042  -0.971  25.207  0.00  0.00    +0.057 C 
BRANCH   5   6
ATOM      6  C   UNL     1      -2.232  -1.016  25.055  0.00  0.00    -0.020 A 
ATOM      7  C   UNL     1      -1.733  -0.403  25.294  0.00  0.00    -0.001 A 
ATOM      8  C   UNL     1      -0.924  -0.448  25.142  0.00  0.00    +0.042 A 
ATOM      9  C   UNL     1      -0.613  -1.105  24.753  0.00  0.00    +0.196 A 
ATOM     10  O   UNL     1       0.198  -1.149  24.602  0.00  0.00    -0.287 OA
ATOM     11  C   UNL     1      -1.111  -1.717  24.514  0.00  0.00    +0.042 A 
ATOM     12  C   UNL     1      -1.921  -1.673  24.665  0.00  0.00    -0.001 A 
ENDBRANCH   5   6
ENDBRANCH   4   5
ENDBRANCH  13   4
ENDBRANCH  16  14
BRANCH  18  19
ATOM     19  N   UNL     1      -3.279   3.147  24.707  0.00  0.00    -0.196 NA
ATOM     20  C   UNL     1      -2.706   3.245  25.293  0.00  0.00    +0.267 C 
ATOM     21  O   UNL     1      -2.763   2.823  25.999  0.00  0.00    -0.268 OA
BRANCH  20  22
ATOM     22  C   UNL     1      -2.077   3.765  25.173  0.00  0.00    +0.074 A 
ATOM     23  C   UNL     1      -2.149   4.557  25.394  0.00  0.00    +0.103 A 
ATOM     24  N   UNL     1      -1.521   5.077  25.273  0.00  0.00    -0.242 NA
ATOM     25  C   UNL     1      -0.820   4.807  24.932  0.00  0.00    +0.099 A 
ATOM     26  C   UNL     1      -0.749   4.015  24.710  0.00  0.00    +0.021 A 
ATOM     27  C   UNL     1      -1.378   3.495  24.831  0.00  0.00    +0.008 A 
ENDBRANCH  20  22
ENDBRANCH  18  19
TORSDOF 7
ENDMDL
MODEL 4
REMARK VINA RESULT:     -11.4      1.279      4.504
REMARK  Name = 
REMARK  7 active torsions:
REMARK  status: ('A' for Active; 'I' for Inactive)
REMARK    1  A    between atoms: C_2  and  C_4
REMARK    2  A    between atoms: C_4  and  C_5
REMARK    3  A    between atoms: C_4  and  N_13
REMARK    4  A    between atoms: C_5  and  C_6
REMARK    5  A    between atoms: C_14  and  C_16
REMARK    6  A    between atoms: C_18  and  N_19
REMARK    7  A    between atoms: C_20  and  C_22
REMARK                            x       y       z     vdW  Elec       q    Type
REMARK                         _______ _______ _______ _____ _____    ______ ____
ROOT
ATOM     16  C   UNL     1      -1.359   1.264  25.122  0.00  0.00    +0.033 C 
ATOM     17  C   UNL     1      -2.059   1.656  25.315  0.00  0.00    -0.002 C 
ATOM     18  C   UNL     1      -2.147   2.456  25.132  0.00  0.00    +0.150 C 
ATOM     28  C   UNL     1      -1.536   2.863  24.756  0.00  0.00    +0.206 C 
ATOM     29  O   UNL     1      -1.623   3.663  24.572  0.00  0.00    -0.218 OA
ATOM     30  C   UNL     1      -0.836   2.470  24.563  0.00  0.00    +0.189 C 
ATOM     31  O   UNL     1      -0.224   2.877  24.187  0.00  0.00    -0.220 OA
ATOM     32  C   UNL     1      -0.748   1.671  24.746  0.00  0.00    +0.066 C 
ENDROOT
BRANCH  16  14
ATOM     13  N   UNL     1      -1.557  -0.111  24.787  0.00  0.00    -0.194 NA
ATOM     14  C   UNL     1      -1.272   0.465  25.306  0.00  0.00    +0.261 C 
ATOM     15  O   UNL     1      -0.900   0.240  26.007  0.00  0.00    -0.269 OA
BRANCH  13   4
ATOM      4  C   UNL     1      -1.470  -0.911  24.970  0.00  0.00    +0.179 C 
BRANCH   4   2
ATOM      1  N   UNL     1      -0.364  -1.745  25.322  0.00  0.00    -0.086 NA
ATOM      2  C   UNL     1      -0.780  -1.310  24.757  0.00  0.00    +0.281 C 
ATOM      3  O   UNL     1      -0.507  -1.275  23.980  0.00  0.00    -0.270 OA
ENDBRANCH   4   2
BRANCH   4   5
ATOM      5  C   UNL     1      -2.073  -1.311  25.366  0.00  0.00    +0.057 C 
BRANCH   5   6
ATOM      6  C   UNL     1      -2.710  -1.619  24.942  0.00  0.00    -0.020 A 
ATOM      7  C   UNL     1      -3.358  -1.140  24.765  0.00  0.00    -0.001 A 
ATOM      8  C   UNL     1      -3.995  -1.448  24.341  0.00  0.00    +0.042 A 
ATOM      9  C   UNL     1      -3.984  -2.235  24.094  0.00  0.00    +0.196 A 
ATOM     10  O   UNL     1      -4.622  -2.542  23.670  0.00  0.00    -0.287 OA
ATOM     11  C   UNL     1      -3.337  -2.713  24.270  0.00  0.00    +0.042 A 
ATOM     12  C   UNL     1      -2.699  -2.406  24.695  0.00  0.00    -0.001 A 
ENDBRANCH   5   6
ENDBRANCH   4   5
ENDBRANCH  13   4
ENDBRANCH  16  14
BRANCH  18  19
ATOM     19  N   UNL     1      -2.846   2.849  25.325  0.00  0.00    -0.196 NA
ATOM     20  C   UNL     1      -3.554   2.637  24.957  0.00  0.00    +0.267 C 
ATOM     21  O   UNL     1      -3.562   2.034  24.395  0.00  0.00    -0.268 OA
BRANCH  20  22
ATOM     22  C   UNL     1      -4.253   3.030  25.151  0.00  0.00    +0.074 A 
ATOM     23  C   UNL     1      -4.326   3.838  25.001  0.00  0.00    +0.103 A 
ATOM     24  N   UNL     1      -5.025   4.231  25.195  0.00  0.00    -0.242 NA
ATOM     25  C   UNL     1      -5.650   3.818  25.539  0.00  0.00    +0.099 A 
ATOM     26  C   UNL     1      -5.576   3.010  25.689  0.00  0.00    +0.021 A 
ATOM     27  C   UNL     1      -4.877   2.617  25.495  0.00  0.00    +0.008 A 
ENDBRANCH  20  22
ENDBRANCH  18  19
TORSDOF 7
ENDMDL
MODEL 5
REMARK VINA RESULT:     -10.8      1.458      3.282
REMARK  Name = 
REMARK  7 active torsions:
REMARK  status: ('A' for Active; 'I' for Inactive)
REMARK    1  A    between atoms: C_2  and  C_4
REMARK    2  A    between atoms: C_4  and  C_5
REMARK    3  A    between atoms: C_4  and  N_13
REMARK    4  A    between atoms: C_5  and  C_6
REMARK    5  A    between atoms: C_14  and  C_16
REMARK    6  A    between atoms: C_18  and  N_19
REMARK    7  A    between atoms: C_20  and  C_22
REMARK                            x       y       z     vdW  Elec       q    Type
REMARK                         _______ _______ _______ _____ _____    ______ ____
ROOT
ATOM     16  C   UNL     1      -3.824   0.075  24.886  0.00  0.00    +0.033 C 
ATOM     17  C   UNL     1      -3.088   0.105  24.515  0.00  0.00    -0.002 C 
ATOM     18  C   UNL     1      -2.539  -0.499  24.640  0.00  0.00    +0.150 C 
ATOM     28  C   UNL     1      -2.727  -1.132  25.135  0.00  0.00    +0.206 C 
ATOM     29  O   UNL     1      -2.179  -1.736  25.260  0.00  0.00    -0.218 OA
ATOM     30  C   UNL     1      -3.464  -1.162  25.506  0.00  0.00    +0.189 C 
ATOM     31  O   UNL     1      -3.653  -1.794  26.000  0.00  0.00    -0.220 OA
ATOM     32  C   UNL     1      -4.012  -0.558  25.380  0.00  0.00    +0.066 C 
ENDROOT
BRANCH  16  14
ATOM     13  N   UNL     1      -4.336   1.368  25.212  0.00  0.00    -0.194 NA
ATOM     14  C   UNL     1      -4.372   0.678  24.760  0.00  0.00    +0.261 C 
ATOM     15  O   UNL     1      -4.957   0.593  24.184  0.00  0.00    -0.269 OA
BRANCH  13   4
ATOM      4  C   UNL     1      -4.884   1.973  25.087  0.00  0.00    +0.179 C 
BRANCH   4   2
ATOM      1  N   UNL     1      -6.303   2.004  24.922  0.00  0.00    -0.086 NA
ATOM      2  C   UNL     1      -5.642   1.915  25.408  0.00  0.00    +0.281 C 
ATOM      3  O   UNL     1      -5.738   1.769  26.214  0.00  0.00    -0.270 OA
ENDBRANCH   4   2
BRANCH   4   5
ATOM      5  C   UNL     1      -4.674   2.634  24.641  0.00  0.00    +0.057 C 
BRANCH   5   6
ATOM      6  C   UNL     1      -4.076   3.136  24.908  0.00  0.00    -0.020 A 
ATOM      7  C   UNL     1      -3.452   3.337  24.405  0.00  0.00    -0.001 A 
ATOM      8  C   UNL     1      -2.854   3.839  24.672  0.00  0.00    +0.042 A 
ATOM      9  C   UNL     1      -2.880   4.141  25.439  0.00  0.00    +0.196 A 
ATOM     10  O   UNL     1      -2.281   4.644  25.704  0.00  0.00    -0.287 OA
ATOM     11  C   UNL     1      -3.503   3.941  25.940  0.00  0.00    +0.042 A 
ATOM     12  C   UNL     1      -4.102   3.438  25.675  0.00  0.00    -0.001 A 
ENDBRANCH   5   6
ENDBRANCH   4   5
ENDBRANCH  13   4
ENDBRANCH  16  14
BRANCH  18  19
ATOM     19  N   UNL     1      -1.802  -0.469  24.270  0.00  0.00    -0.196 NA
ATOM     20  C   UNL     1      -1.257   0.113  24.482  0.00  0.00    +0.267 C 
ATOM     21  O   UNL     1      -1.449   0.665  25.063  0.00  0.00    -0.268 OA
BRANCH  20  22
ATOM     22  C   UNL     1      -0.521   0.142  24.111  0.00  0.00    +0.074 A 
ATOM     23  C   UNL     1      -0.134  -0.558  23.908  0.00  0.00    +0.103 A 
ATOM     24  N   UNL     1       0.602  -0.530  23.537  0.00  0.00    -0.242 NA
ATOM     25  C   UNL     1       0.952   0.198  23.369  0.00  0.00    +0.099 A 
ATOM     26  C   UNL     1       0.565   0.898  23.571  0.00  0.00    +0.021 A 
ATOM     27  C   UNL     1      -0.171   0.869  23.943  0.00  0.00    +0.008 A 
ENDBRANCH  20  22
ENDBRANCH  18  19
TORSDOF 7
ENDMDL
