MODEL 1
REMARK VINA RESULT:      -7.9      0.000      0.000
REMARK  Name = 
REMARK  7 active torsions:
REMARK  status: ('A' for Active; 'I' for Inactive)
REMARK    1  A    between atoms: O_2  and  C_3
REMARK    2  A    between atoms: C_5  and  O_6
REMARK    3  A    between atoms: C_9  and  N_10
REMARK    4  A    between atoms: C_11  and  O_13
REMARK    5  A    between atoms: O_13  and  C_14
REMARK    6  A    between atoms: C_18  and  N_22
REMARK    7  A    between atoms: C_23  and  C_25
REMARK                            x       y       z     vdW  Elec       q    Type
REMARK                         _______ _______ _______ _____ _____    ______ ____
ROOT
ATOM     14  C   UNL     1      -0.844   0.609  24.132  0.00  0.00    +0.229 C 
ATOM     15  C   UNL     1      -0.499   1.196  24.596  0.00  0.00    +0.188 C 
ATOM     16  O   UNL     1       0.306   1.219  24.421  0.00  0.00    -0.348 OA
ATOM     17  C   UNL     1       0.459   0.646  23.849  0.00  0.00    +0.168 C 
ATOM     18  C   UNL     1       1.051   0.305  23.386  0.00  0.00    +0.155 C 
ATOM     19  C   UNL     1       0.706  -0.283  22.921  0.00  0.00    +0.166 C 
ATOM     20  O   UNL     1      -0.099  -0.305  23.096  0.00  0.00    -0.348 OA
ATOM     21  C   UNL     1      -0.252   0.269  23.670  0.00  0.00    +0.186 C 
ENDROOT
BRANCH  18  22
ATOM     22  N   UNL     1       1.849   0.515  23.388  0.00  0.00    -0.198 NA
ATOM     23  C   UNL     1       2.353   0.228  22.801  0.00  0.00    +0.271 C 
ATOM     24  O   UNL     1       2.060  -0.270  22.212  0.00  0.00    -0.268 OA
BRANCH  23  25
ATOM     25  C   UNL     1       3.151   0.438  22.803  0.00  0.00    +0.084 A 
ATOM     26  C   UNL     1       3.455   1.187  22.639  0.00  0.00    +0.012 A 
ATOM     27  C   UNL     1       4.277   1.148  22.704  0.00  0.00    +0.008 A 
ATOM     28  C   UNL     1       4.480   0.376  22.908  0.00  0.00    +0.036 A 
ATOM     29  S   UNL     1       3.784  -0.063  22.969  0.00  0.00    -0.082 S 
ENDBRANCH  23  25
ENDBRANCH  18  22
BRANCH  14  13
ATOM     13  O   UNL     1      -1.642   0.398  24.130  0.00  0.00    -0.432 OA
BRANCH  13  11
ATOM     10  N   UNL     1      -2.860   1.115  23.919  0.00  0.00    -0.142 NA
ATOM     11  C   UNL     1      -2.211   0.934  24.394  0.00  0.00    +0.425 C 
ATOM     12  O   UNL     1      -2.130   1.289  25.135  0.00  0.00    -0.224 OA
BRANCH  10   9
ATOM      3  C   UNL     1      -3.928   2.988  24.263  0.00  0.00    +0.143 A 
ATOM      4  C   UNL     1      -4.567   2.723  24.712  0.00  0.00    +0.074 A 
ATOM      5  C   UNL     1      -4.638   1.921  24.896  0.00  0.00    +0.143 A 
ATOM      8  C   UNL     1      -4.068   1.386  24.632  0.00  0.00    +0.054 A 
ATOM      9  C   UNL     1      -3.429   1.651  24.183  0.00  0.00    +0.083 A 
ATOM     30  C   UNL     1      -3.359   2.452  23.999  0.00  0.00    +0.054 A 
BRANCH   3   2
ATOM      1  C   UNL     1      -3.507   4.307  24.616  0.00  0.00    +0.252 C 
ATOM      2  O   UNL     1      -3.858   3.789  24.079  0.00  0.00    -0.471 OA
ENDBRANCH   3   2
BRANCH   5   6
ATOM      6  O   UNL     1      -5.277   1.656  25.345  0.00  0.00    -0.471 OA
ATOM      7  C   UNL     1      -6.046   1.737  25.056  0.00  0.00    +0.252 C 
ENDBRANCH   5   6
ENDBRANCH  10   9
ENDBRANCH  13  11
ENDBRANCH  14  13
TORSDOF 7
ENDMDL
MODEL 2
REMARK VINA RESULT:      -7.6      3.479      5.386
REMARK  Name = 
REMARK  7 active torsions:
REMARK  status: ('A' for Active; 'I' for Inactive)
REMARK    1  A    between atoms: O_2  and  C_3
REMARK    2  A    between atoms: C_5  and  O_6
REMARK    3  A    between atoms: C_9  and  N_10
REMARK    4  A    between atoms: C_11  and  O_13
REMARK    5  A    between atoms: O_13  and  C_14
REMARK    6  A    between atoms: C_18  and  N_22
REMARK    7  A    between atoms: C_23  and  C_25
REMARK                            x       y       z     vdW  Elec       q    Type
REMARK                         _______ _______ _______ _____ _____    ______ ____
ROOT
ATOM     14  C   UNL     1      -3.877   1.367  24.211  0.00  0.00    +0.229 C 
ATOM     15  C   UNL     1      -3.456   1.531  23.521  0.00  0.00    +0.188 C 
ATOM     16  O   UNL     1      -3.086   2.262  23.617  0.00  0.00    -0.348 OA
ATOM     17  C   UNL     1      -3.279   2.550  24.365  0.00  0.00    +0.168 C 
ATOM     18  C   UNL     1      -3.171   3.179  24.888  0.00  0.00    +0.155 C 
ATOM     19  C   UNL     1      -3.593   3.015  25.577  0.00  0.00    +0.166 C 
ATOM     20  O   UNL     1      -3.962   2.284  25.481  0.00  0.00    -0.348 OA
ATOM     21  C   UNL     1      -3.768   1.996  24.732  0.00  0.00    +0.186 C 
ENDROOT
BRANCH  18  22
ATOM     22  N   UNL     1      -2.719   3.855  24.745  0.00  0.00    -0.198 NA
ATOM     23  C   UNL     1      -2.091   4.045  25.245  0.00  0.00    +0.271 C 
ATOM     24  O   UNL     1      -1.914   3.559  25.888  0.00  0.00    -0.268 OA
BRANCH  23  25
ATOM     25  C   UNL     1      -1.639   4.721  25.102  0.00  0.00    +0.084 A 
ATOM     26  C   UNL     1      -1.905   5.500  25.151  0.00  0.00    +0.012 A 
ATOM     27  C   UNL     1      -1.272   5.997  24.965  0.00  0.00    +0.008 A 
ATOM     28  C   UNL     1      -0.617   5.524  24.801  0.00  0.00    +0.036 A 
ATOM     29  S   UNL     1      -0.844   4.735  24.886  0.00  0.00    -0.082 S 
ENDBRANCH  23  25
ENDBRANCH  18  22
BRANCH  14  13
ATOM     13  O   UNL     1      -4.329   0.691  24.353  0.00  0.00    -0.432 OA
BRANCH  13  11
ATOM     10  N   UNL     1      -3.817  -0.515  24.924  0.00  0.00    -0.142 NA
ATOM     11  C   UNL     1      -3.994  -0.057  24.261  0.00  0.00    +0.425 C 
ATOM     12  O   UNL     1      -3.834  -0.346  23.505  0.00  0.00    -0.224 OA
BRANCH  10   9
ATOM      3  C   UNL     1      -3.614  -2.647  24.504  0.00  0.00    +0.143 A 
ATOM      4  C   UNL     1      -2.810  -2.758  24.648  0.00  0.00    +0.074 A 
ATOM      5  C   UNL     1      -2.341  -2.122  24.884  0.00  0.00    +0.143 A 
ATOM      8  C   UNL     1      -2.677  -1.374  24.976  0.00  0.00    +0.054 A 
ATOM      9  C   UNL     1      -3.482  -1.263  24.832  0.00  0.00    +0.083 A 
ATOM     30  C   UNL     1      -3.950  -1.899  24.596  0.00  0.00    +0.054 A 
BRANCH   3   2
ATOM      1  C   UNL     1      -4.198  -3.437  23.465  0.00  0.00    +0.252 C 
ATOM      2  O   UNL     1      -4.082  -3.284  24.268  0.00  0.00    -0.471 OA
ENDBRANCH   3   2
BRANCH   5   6
ATOM      6  O   UNL     1      -1.536  -2.233  25.028  0.00  0.00    -0.471 OA
ATOM      7  C   UNL     1      -0.976  -1.835  24.570  0.00  0.00    +0.252 C 
ENDBRANCH   5   6
ENDBRANCH  10   9
ENDBRANCH  13  11
ENDBRANCH  14  13
TORSDOF 7
ENDMDL
MODEL 3
REMARK VINA RESULT:      -7.5      3.045      4.658
REMARK  Name = 
REMARK  7 active torsions:
REMARK  status: ('A' for Active; 'I' for Inactive)
REMARK    1  A    between atoms: O_2  and  C_3
REMARK    2  A    between atoms: C_5  and  O_6
REMARK    3  A    between atoms: C_9  and  N_10
REMARK    4  A    between atoms: C_11  and  O_13
REMARK    5  A    between atoms: O_13  and  C_14
REMARK    6  A    between atoms: C_18  and  N_22
REMARK    7  A    between atoms: C_23  and  C_25
REMARK                            x       y       z     vdW  Elec       q    Type
REMARK                         _______ _______ _______ _____ _____    ______ ____
ROOT
ATOM     14  C   UNL     1      -0.622   0.779  24.748  0.00  0.00    +0.229 C 
ATOM     15  C   UNL     1      -0.624   0.546  23.957  0.00  0.00    +0.188 C 
ATOM     16  O   UNL     1      -1.071  -0.145  23.897  0.00  0.00    -0.348 OA
ATOM     17  C   UNL     1      -1.344  -0.339  24.649  0.00  0.00    +0.168 C 
ATOM     18  C   UNL     1      -1.790  -0.885  25.078  0.00  0.00    +0.155 C 
ATOM     19  C   UNL     1      -1.788  -0.652  25.869  0.00  0.00    +0.166 C 
ATOM     20  O   UNL     1      -1.341   0.038  25.930  0.00  0.00    -0.348 OA
ATOM     21  C   UNL     1      -1.067   0.232  25.176  0.00  0.00    +0.186 C 
ENDROOT
BRANCH  18  22
ATOM     22  N   UNL     1      -2.171  -1.549  24.769  0.00  0.00    -0.198 NA
ATOM     23  C   UNL     1      -2.979  -1.656  24.893  0.00  0.00    +0.271 C 
ATOM     24  O   UNL     1      -3.408  -1.099  25.327  0.00  0.00    -0.268 OA
BRANCH  23  25
ATOM     25  C   UNL     1      -3.360  -2.319  24.584  0.00  0.00    +0.084 A 
ATOM     26  C   UNL     1      -3.212  -3.104  24.791  0.00  0.00    +0.012 A 
ATOM     27  C   UNL     1      -3.716  -3.584  24.349  0.00  0.00    +0.008 A 
ATOM     28  C   UNL     1      -4.176  -3.096  23.869  0.00  0.00    +0.036 A 
ATOM     29  S   UNL     1      -3.956  -2.315  24.014  0.00  0.00    -0.082 S 
ENDBRANCH  23  25
ENDBRANCH  18  22
BRANCH  14  13
ATOM     13  O   UNL     1      -0.241   1.442  25.058  0.00  0.00    -0.432 OA
BRANCH  13  11
ATOM     10  N   UNL     1      -0.779   2.627  25.648  0.00  0.00    -0.142 NA
ATOM     11  C   UNL     1      -0.582   2.189  24.978  0.00  0.00    +0.425 C 
ATOM     12  O   UNL     1      -0.727   2.498  24.226  0.00  0.00    -0.224 OA
BRANCH  10   9
ATOM      3  C   UNL     1      -1.029   4.739  25.158  0.00  0.00    +0.143 A 
ATOM      4  C   UNL     1      -1.804   4.867  25.408  0.00  0.00    +0.074 A 
ATOM      5  C   UNL     1      -2.238   4.248  25.739  0.00  0.00    +0.143 A 
ATOM      8  C   UNL     1      -1.896   3.501  25.819  0.00  0.00    +0.054 A 
ATOM      9  C   UNL     1      -1.121   3.374  25.568  0.00  0.00    +0.083 A 
ATOM     30  C   UNL     1      -0.687   3.993  25.238  0.00  0.00    +0.054 A 
BRANCH   3   2
ATOM      1  C   UNL     1      -0.969   6.069  24.638  0.00  0.00    +0.252 C 
ATOM      2  O   UNL     1      -0.596   5.358  24.827  0.00  0.00    -0.471 OA
ENDBRANCH   3   2
BRANCH   5   6
ATOM      6  O   UNL     1      -3.014   4.375  25.990  0.00  0.00    -0.471 OA
ATOM      7  C   UNL     1      -3.622   3.889  25.715  0.00  0.00    +0.252 C 
ENDBRANCH   5   6
ENDBRANCH  10   9
ENDBRANCH  13  11
ENDBRANCH  14  13
TORSDOF 7
ENDMDL
MODEL 4
REMARK VINA RESULT:      -7.4      3.552      5.372
REMARK  Name = 
REMARK  7 active torsions:
REMARK  status: ('A' for Active; 'I' for Inactive)
REMARK    1  A    between atoms: O_2  and  C_3
REMARK    2  A    between atoms: C_5  and  O_6
REMARK    3  A    between atoms: C_9  and  N_10
REMARK    4  A    between atoms: C_11  and  O_13
REMARK    5  A    between atoms: O_13  and  C_14
REMARK    6  A    between atoms: C_18  and  N_22
REMARK    7  A    between atoms: C_23  and  C_25
REMARK                            x       y       z     vdW  Elec       q    Type
REMARK                         _______ _______ _______ _____ _____    ______ ____
ROOT
ATOM     14  C   UNL     1      -3.825   1.786  24.161  0.00  0.00    +0.229 C 
ATOM     15  C   UNL     1      -3.556   1.527  23.426  0.00  0.00    +0.188 C 
ATOM     16  O   UNL     1      -3.634   0.706  23.402  0.00  0.00    -0.348 OA
ATOM     17  C   UNL     1      -3.951   0.458  24.122  0.00  0.00    +0.168 C 
ATOM     18  C   UNL     1      -4.195  -0.201  24.553  0.00  0.00    +0.155 C 
ATOM     19  C   UNL     1      -4.464   0.059  25.288  0.00  0.00    +0.166 C 
ATOM     20  O   UNL     1      -4.386   0.879  25.312  0.00  0.00    -0.348 OA
ATOM     21  C   UNL     1      -4.069   1.127  24.591  0.00  0.00    +0.186 C 
ENDROOT
BRANCH  18  22
ATOM     22  N   UNL     1      -4.174  -0.984  24.293  0.00  0.00    -0.198 NA
ATOM     23  C   UNL     1      -3.786  -1.557  24.742  0.00  0.00    +0.271 C 
ATOM     24  O   UNL     1      -3.419  -1.348  25.451  0.00  0.00    -0.268 OA
BRANCH  23  25
ATOM     25  C   UNL     1      -3.765  -2.341  24.483  0.00  0.00    +0.084 A 
ATOM     26  C   UNL     1      -4.268  -2.679  23.924  0.00  0.00    +0.012 A 
ATOM     27  C   UNL     1      -4.051  -3.471  23.832  0.00  0.00    +0.008 A 
ATOM     28  C   UNL     1      -3.415  -3.620  24.335  0.00  0.00    +0.036 A 
ATOM     29  S   UNL     1      -3.238  -2.921  24.737  0.00  0.00    -0.082 S 
ENDBRANCH  23  25
ENDBRANCH  18  22
BRANCH  14  13
ATOM     13  O   UNL     1      -3.846   2.570  24.421  0.00  0.00    -0.432 OA
BRANCH  13  11
ATOM     10  N   UNL     1      -2.826   3.175  25.218  0.00  0.00    -0.142 NA
ATOM     11  C   UNL     1      -3.147   3.005  24.478  0.00  0.00    +0.425 C 
ATOM     12  O   UNL     1      -2.770   3.270  23.793  0.00  0.00    -0.224 OA
BRANCH  10   9
ATOM      3  C   UNL     1      -0.709   3.658  25.446  0.00  0.00    +0.143 A 
ATOM      4  C   UNL     1      -0.730   4.480  25.389  0.00  0.00    +0.074 A 
ATOM      5  C   UNL     1      -1.450   4.868  25.275  0.00  0.00    +0.143 A 
ATOM      8  C   UNL     1      -2.148   4.432  25.218  0.00  0.00    +0.054 A 
ATOM      9  C   UNL     1      -2.127   3.610  25.275  0.00  0.00    +0.083 A 
ATOM     30  C   UNL     1      -1.408   3.223  25.389  0.00  0.00    +0.054 A 
BRANCH   3   2
ATOM      1  C   UNL     1       0.062   2.644  26.095  0.00  0.00    +0.252 C 
ATOM      2  O   UNL     1       0.010   3.271  25.561  0.00  0.00    -0.471 OA
ENDBRANCH   3   2
BRANCH   5   6
ATOM      6  O   UNL     1      -1.470   5.691  25.217  0.00  0.00    -0.471 OA
ATOM      7  C   UNL     1      -1.034   6.075  24.632  0.00  0.00    +0.252 C 
ENDBRANCH   5   6
ENDBRANCH  10   9
ENDBRANCH  13  11
ENDBRANCH  14  13
TORSDOF 7
ENDMDL
MODEL 5
REMARK VINA RESULT:      -7.3      1.306      2.108
REMARK  Name = 
REMARK  7 active torsions:
REMARK  status: ('A' for Active; 'I' for Inactive)
REMARK    1  A    between atoms: O_2  and  C_3
REMARK    2  A    between atoms: C_5  and  O_6
REMARK    3  A    between atoms: C_9  and  N_10
REMARK    4  A    between atoms: C_11  and  O_13
REMARK    5  A    between atoms: O_13  and  C_14
REMARK    6  A    between atoms: C_18  and  N_22
REMARK    7  A    between atoms: C_23  and  C_25
REMARK                            x       y       z     vdW  Elec       q    Type
REMARK                         _______ _______ _______ _____ _____    ______ ____
ROOT
ATOM     14  C   UNL     1      -0.436   1.070  23.633  0.00  0.00    +0.229 C 
ATOM     15  C   UNL     1      -0.070   1.528  24.212  0.00  0.00    +0.188 C 
ATOM     16  O   UNL     1       0.739   1.367  24.191  0.00  0.00    -0.348 OA
ATOM     17  C   UNL     1       0.873   0.809  23.599  0.00  0.00    +0.168 C 
ATOM     18  C   UNL     1       1.454   0.364  23.219  0.00  0.00    +0.155 C 
ATOM     19  C   UNL     1       1.088  -0.095  22.640  0.00  0.00    +0.166 C 
ATOM     20  O   UNL     1       0.280   0.067  22.661  0.00  0.00    -0.348 OA
ATOM     21  C   UNL     1       0.146   0.625  23.254  0.00  0.00    +0.186 C 
ENDROOT
BRANCH  18  22
ATOM     22  N   UNL     1       2.262   0.376  23.390  0.00  0.00    -0.198 NA
ATOM     23  C   UNL     1       2.812   0.243  22.790  0.00  0.00    +0.271 C 
ATOM     24  O   UNL     1       2.556   0.097  22.020  0.00  0.00    -0.268 OA
BRANCH  23  25
ATOM     25  C   UNL     1       3.619   0.254  22.961  0.00  0.00    +0.084 A 
ATOM     26  C   UNL     1       4.038  -0.330  23.365  0.00  0.00    +0.012 A 
ATOM     27  C   UNL     1       4.827  -0.093  23.411  0.00  0.00    +0.008 A 
ATOM     28  C   UNL     1       4.896   0.638  23.035  0.00  0.00    +0.036 A 
ATOM     29  S   UNL     1       4.149   0.852  22.756  0.00  0.00    -0.082 S 
ENDBRANCH  23  25
ENDBRANCH  18  22
BRANCH  14  13
ATOM     13  O   UNL     1      -1.243   1.058  23.463  0.00  0.00    -0.432 OA
BRANCH  13  11
ATOM     10  N   UNL     1      -2.463   0.396  23.805  0.00  0.00    -0.142 NA
ATOM     11  C   UNL     1      -1.782   0.802  24.033  0.00  0.00    +0.425 C 
ATOM     12  O   UNL     1      -1.639   0.953  24.832  0.00  0.00    -0.224 OA
BRANCH  10   9
ATOM      3  C   UNL     1      -3.480  -0.876  25.258  0.00  0.00    +0.143 A 
ATOM      4  C   UNL     1      -4.079  -0.370  25.516  0.00  0.00    +0.074 A 
ATOM      5  C   UNL     1      -4.139   0.391  25.203  0.00  0.00    +0.143 A 
ATOM      8  C   UNL     1      -3.600   0.646  24.633  0.00  0.00    +0.054 A 
ATOM      9  C   UNL     1      -3.001   0.141  24.375  0.00  0.00    +0.083 A 
ATOM     30  C   UNL     1      -2.941  -0.620  24.688  0.00  0.00    +0.054 A 
BRANCH   3   2
ATOM      1  C   UNL     1      -3.532  -2.293  25.085  0.00  0.00    +0.252 C 
ATOM      2  O   UNL     1      -3.420  -1.636  25.571  0.00  0.00    -0.471 OA
ENDBRANCH   3   2
BRANCH   5   6
ATOM      6  O   UNL     1      -4.738   0.897  25.460  0.00  0.00    -0.471 OA
ATOM      7  C   UNL     1      -5.328   1.139  24.936  0.00  0.00    +0.252 C 
ENDBRANCH   5   6
ENDBRANCH  10   9
ENDBRANCH  13  11
ENDBRANCH  14  13
TORSDOF 7
ENDMDL
MODEL 6
REMARK VINA RESULT:      -6.0     14.954     15.903
REMARK  Name = 
REMARK  7 active torsions:
REMARK  status: ('A' for Active; 'I' for Inactive)
REMARK    1  A    between atoms: O_2  and  C_3
REMARK    2  A    between atoms: C_5  and  O_6
REMARK    3  A    between atoms: C_9  and  N_10
REMARK    4  A    between atoms: C_11  and  O_13
REMARK    5  A    between atoms: O_13  and  C_14
REMARK    6  A    between atoms: C_18  and  N_22
REMARK    7  A    between atoms: C_23  and  C_25
REMARK                            x       y       z     vdW  Elec       q    Type
REMARK                         _______ _______ _______ _____ _____    ______ ____
ROOT
ATOM     14  C   UNL     1      -5.572 -10.246  14.179  0.00  0.00    +0.229 C 
ATOM     15  C   UNL     1      -6.279  -9.978  13.850  0.00  0.00    +0.188 C 
ATOM     16  O   UNL     1      -6.151  -9.843  13.047  0.00  0.00    -0.348 OA
ATOM     17  C   UNL     1      -5.365 -10.028  12.879  0.00  0.00    +0.168 C 
ATOM     18  C   UNL     1      -4.799 -10.059  12.279  0.00  0.00    +0.155 C 
ATOM     19  C   UNL     1      -4.092 -10.326  12.608  0.00  0.00    +0.166 C 
ATOM     20  O   UNL     1      -4.220 -10.461  13.412  0.00  0.00    -0.348 OA
ATOM     21  C   UNL     1      -5.007 -10.276  13.579  0.00  0.00    +0.186 C 
ENDROOT
BRANCH  18  22
ATOM     22  N   UNL     1      -4.920  -9.857  11.488  0.00  0.00    -0.198 NA
ATOM     23  C   UNL     1      -4.274  -9.729  10.992  0.00  0.00    +0.271 C 
ATOM     24  O   UNL     1      -3.507  -9.802  11.285  0.00  0.00    -0.268 OA
BRANCH  23  25
ATOM     25  C   UNL     1      -4.395  -9.527  10.201  0.00  0.00    +0.084 A 
ATOM     26  C   UNL     1      -4.104  -9.936   9.546  0.00  0.00    +0.012 A 
ATOM     27  C   UNL     1      -4.358  -9.542   8.866  0.00  0.00    +0.008 A 
ATOM     28  C   UNL     1      -4.805  -8.891   9.101  0.00  0.00    +0.036 A 
ATOM     29  S   UNL     1      -4.828  -8.881   9.926  0.00  0.00    -0.082 S 
ENDBRANCH  23  25
ENDBRANCH  18  22
BRANCH  14  13
ATOM     13  O   UNL     1      -5.450 -10.447  14.971  0.00  0.00    -0.432 OA
BRANCH  13  11
ATOM     10  N   UNL     1      -5.973  -9.922  16.192  0.00  0.00    -0.142 NA
ATOM     11  C   UNL     1      -6.068 -10.380  15.513  0.00  0.00    +0.425 C 
ATOM     12  O   UNL     1      -6.782 -10.770  15.375  0.00  0.00    -0.224 OA
BRANCH  10   9
ATOM      3  C   UNL     1      -7.238 -10.284  17.935  0.00  0.00    +0.143 A 
ATOM      4  C   UNL     1      -7.827  -9.718  17.820  0.00  0.00    +0.074 A 
ATOM      5  C   UNL     1      -7.798  -9.220  17.162  0.00  0.00    +0.143 A 
ATOM      8  C   UNL     1      -7.180  -9.288  16.620  0.00  0.00    +0.054 A 
ATOM      9  C   UNL     1      -6.591  -9.854  16.735  0.00  0.00    +0.083 A 
ATOM     30  C   UNL     1      -6.620 -10.352  17.392  0.00  0.00    +0.054 A 
BRANCH   3   2
ATOM      1  C   UNL     1      -6.942 -10.537  19.309  0.00  0.00    +0.252 C 
ATOM      2  O   UNL     1      -7.267 -10.781  18.591  0.00  0.00    -0.471 OA
ENDBRANCH   3   2
BRANCH   5   6
ATOM      6  O   UNL     1      -8.387  -8.654  17.047  0.00  0.00    -0.471 OA
ATOM      7  C   UNL     1      -9.171  -8.890  16.944  0.00  0.00    +0.252 C 
ENDBRANCH   5   6
ENDBRANCH  10   9
ENDBRANCH  13  11
ENDBRANCH  14  13
TORSDOF 7
ENDMDL
MODEL 7
REMARK VINA RESULT:      -5.8     15.511     17.100
REMARK  Name = 
REMARK  7 active torsions:
REMARK  status: ('A' for Active; 'I' for Inactive)
REMARK    1  A    between atoms: O_2  and  C_3
REMARK    2  A    between atoms: C_5  and  O_6
REMARK    3  A    between atoms: C_9  and  N_10
REMARK    4  A    between atoms: C_11  and  O_13
REMARK    5  A    between atoms: O_13  and  C_14
REMARK    6  A    between atoms: C_18  and  N_22
REMARK    7  A    between atoms: C_23  and  C_25
REMARK                            x       y       z     vdW  Elec       q    Type
REMARK                         _______ _______ _______ _____ _____    ______ ____
ROOT
ATOM     14  C   UNL     1      -5.635 -10.189  13.284  0.00  0.00    +0.229 C 
ATOM     15  C   UNL     1      -6.427 -10.225  13.058  0.00  0.00    +0.188 C 
ATOM     16  O   UNL     1      -6.888 -10.186  13.741  0.00  0.00    -0.348 OA
ATOM     17  C   UNL     1      -6.382 -10.127  14.388  0.00  0.00    +0.168 C 
ATOM     18  C   UNL     1      -6.352 -10.067  15.210  0.00  0.00    +0.155 C 
ATOM     19  C   UNL     1      -5.560 -10.031  15.436  0.00  0.00    +0.166 C 
ATOM     20  O   UNL     1      -5.099 -10.069  14.754  0.00  0.00    -0.348 OA
ATOM     21  C   UNL     1      -5.607 -10.129  14.106  0.00  0.00    +0.186 C 
ENDROOT
BRANCH  18  22
ATOM     22  N   UNL     1      -7.003 -10.046  15.718  0.00  0.00    -0.198 NA
ATOM     23  C   UNL     1      -6.962  -9.620  16.423  0.00  0.00    +0.271 C 
ATOM     24  O   UNL     1      -6.272  -9.215  16.622  0.00  0.00    -0.268 OA
BRANCH  23  25
ATOM     25  C   UNL     1      -7.613  -9.599  16.931  0.00  0.00    +0.084 A 
ATOM     26  C   UNL     1      -8.196  -9.016  16.947  0.00  0.00    +0.012 A 
ATOM     27  C   UNL     1      -8.738  -9.214  17.538  0.00  0.00    +0.008 A 
ATOM     28  C   UNL     1      -8.488  -9.919  17.886  0.00  0.00    +0.036 A 
ATOM     29  S   UNL     1      -7.793 -10.156  17.511  0.00  0.00    -0.082 S 
ENDBRANCH  23  25
ENDBRANCH  18  22
BRANCH  14  13
ATOM     13  O   UNL     1      -4.985 -10.210  12.776  0.00  0.00    -0.432 OA
BRANCH  13  11
ATOM     10  N   UNL     1      -4.581  -9.523  11.590  0.00  0.00    -0.142 NA
ATOM     11  C   UNL     1      -5.083 -10.053  11.972  0.00  0.00    +0.425 C 
ATOM     12  O   UNL     1      -5.686 -10.428  11.550  0.00  0.00    -0.224 OA
BRANCH  10   9
ATOM      3  C   UNL     1      -5.238  -8.572   9.739  0.00  0.00    +0.143 A 
ATOM      4  C   UNL     1      -4.876  -9.055   9.177  0.00  0.00    +0.074 A 
ATOM      5  C   UNL     1      -4.415  -9.695   9.420  0.00  0.00    +0.143 A 
ATOM      8  C   UNL     1      -4.317  -9.851  10.224  0.00  0.00    +0.054 A 
ATOM      9  C   UNL     1      -4.679  -9.367  10.786  0.00  0.00    +0.083 A 
ATOM     30  C   UNL     1      -5.140  -8.728  10.543  0.00  0.00    +0.054 A 
BRANCH   3   2
ATOM      1  C   UNL     1      -6.459  -8.059   9.201  0.00  0.00    +0.252 C 
ATOM      2  O   UNL     1      -5.699  -7.932   9.496  0.00  0.00    -0.471 OA
ENDBRANCH   3   2
BRANCH   5   6
ATOM      6  O   UNL     1      -4.052 -10.179   8.859  0.00  0.00    -0.471 OA
ATOM      7  C   UNL     1      -4.483 -10.780   8.492  0.00  0.00    +0.252 C 
ENDBRANCH   5   6
ENDBRANCH  10   9
ENDBRANCH  13  11
ENDBRANCH  14  13
TORSDOF 7
ENDMDL
MODEL 8
REMARK VINA RESULT:      -5.7     17.425     18.173
REMARK  Name = 
REMARK  7 active torsions:
REMARK  status: ('A' for Active; 'I' for Inactive)
REMARK    1  A    between atoms: O_2  and  C_3
REMARK    2  A    between atoms: C_5  and  O_6
REMARK    3  A    between atoms: C_9  and  N_10
REMARK    4  A    between atoms: C_11  and  O_13
REMARK    5  A    between atoms: O_13  and  C_14
REMARK    6  A    between atoms: C_18  and  N_22
REMARK    7  A    between atoms: C_23  and  C_25
REMARK                            x       y       z     vdW  Elec       q    Type
REMARK                         _______ _______ _______ _____ _____    ______ ____
ROOT
ATOM     14  C   UNL     1      -5.968  -8.972   9.221  0.00  0.00    +0.229 C 
ATOM     15  C   UNL     1      -6.310  -9.300   9.896  0.00  0.00    +0.188 C 
ATOM     16  O   UNL     1      -5.703  -9.600  10.367  0.00  0.00    -0.348 OA
ATOM     17  C   UNL     1      -4.987  -9.458   9.985  0.00  0.00    +0.168 C 
ATOM     18  C   UNL     1      -4.170  -9.555  10.038  0.00  0.00    +0.155 C 
ATOM     19  C   UNL     1      -3.828  -9.226   9.363  0.00  0.00    +0.166 C 
ATOM     20  O   UNL     1      -4.434  -8.926   8.892  0.00  0.00    -0.348 OA
ATOM     21  C   UNL     1      -5.151  -9.069   9.276  0.00  0.00    +0.186 C 
ENDROOT
BRANCH  18  22
ATOM     22  N   UNL     1      -3.765  -9.917  10.659  0.00  0.00    -0.198 NA
ATOM     23  C   UNL     1      -2.973  -9.733  10.799  0.00  0.00    +0.271 C 
ATOM     24  O   UNL     1      -2.585  -9.186  10.318  0.00  0.00    -0.268 OA
BRANCH  23  25
ATOM     25  C   UNL     1      -2.568 -10.095  11.420  0.00  0.00    +0.084 A 
ATOM     26  C   UNL     1      -1.750 -10.102  11.527  0.00  0.00    +0.012 A 
ATOM     27  C   UNL     1      -1.586 -10.526  12.216  0.00  0.00    +0.008 A 
ATOM     28  C   UNL     1      -2.303 -10.780  12.534  0.00  0.00    +0.036 A 
ATOM     29  S   UNL     1      -2.909 -10.514  12.042  0.00  0.00    -0.082 S 
ENDBRANCH  23  25
ENDBRANCH  18  22
BRANCH  14  13
ATOM     13  O   UNL     1      -6.373  -8.609   8.600  0.00  0.00    -0.432 OA
BRANCH  13  11
ATOM     10  N   UNL     1      -7.611  -8.048   8.160  0.00  0.00    -0.142 NA
ATOM     11  C   UNL     1      -7.050  -8.163   8.753  0.00  0.00    +0.425 C 
ATOM     12  O   UNL     1      -7.165  -7.832   9.501  0.00  0.00    -0.224 OA
BRANCH  10   9
ATOM      3  C   UNL     1      -8.960  -6.341   8.344  0.00  0.00    +0.143 A 
ATOM      4  C   UNL     1      -9.643  -6.711   8.620  0.00  0.00    +0.074 A 
ATOM      5  C   UNL     1      -9.649  -7.527   8.743  0.00  0.00    +0.143 A 
ATOM      8  C   UNL     1      -8.972  -7.972   8.590  0.00  0.00    +0.054 A 
ATOM      9  C   UNL     1      -8.288  -7.602   8.313  0.00  0.00    +0.083 A 
ATOM     30  C   UNL     1      -8.282  -6.787   8.191  0.00  0.00    +0.054 A 
BRANCH   3   2
ATOM      1  C   UNL     1      -9.505  -5.046   8.604  0.00  0.00    +0.252 C 
ATOM      2  O   UNL     1      -8.954  -5.526   8.221  0.00  0.00    -0.471 OA
ENDBRANCH   3   2
BRANCH   5   6
ATOM      6  O   UNL     1     -10.333  -7.897   9.020  0.00  0.00    -0.471 OA
ATOM      7  C   UNL     1     -10.698  -8.481   8.565  0.00  0.00    +0.252 C 
ENDBRANCH   5   6
ENDBRANCH  10   9
ENDBRANCH  13  11
ENDBRANCH  14  13
TORSDOF 7
ENDMDL
MODEL 9
REMARK VINA RESULT:      -5.5     17.483     19.184
REMARK  Name = 
REMARK  7 active torsions:
REMARK  status: ('A' for Active; 'I' for Inactive)
REMARK    1  A    between atoms: O_2  and  C_3
REMARK    2  A    between atoms: C_5  and  O_6
REMARK    3  A    between atoms: C_9  and  N_10
REMARK    4  A    between atoms: C_11  and  O_13
REMARK    5  A    between atoms: O_13  and  C_14
REMARK    6  A    between atoms: C_18  and  N_22
REMARK    7  A    between atoms: C_23  and  C_25
REMARK                            x       y       z     vdW  Elec       q    Type
REMARK                         _______ _______ _______ _____ _____    ______ ____
ROOT
ATOM     14  C   UNL     1      -5.174  -9.220   8.937  0.00  0.00    +0.229 C 
ATOM     15  C   UNL     1      -5.338 -10.004   8.742  0.00  0.00    +0.188 C 
ATOM     16  O   UNL     1      -6.151 -10.071   8.622  0.00  0.00    -0.348 OA
ATOM     17  C   UNL     1      -6.489  -9.329   8.743  0.00  0.00    +0.168 C 
ATOM     18  C   UNL     1      -7.200  -8.911   8.744  0.00  0.00    +0.155 C 
ATOM     19  C   UNL     1      -7.036  -8.127   8.939  0.00  0.00    +0.166 C 
ATOM     20  O   UNL     1      -6.223  -8.060   9.059  0.00  0.00    -0.348 OA
ATOM     21  C   UNL     1      -5.885  -8.803   8.938  0.00  0.00    +0.186 C 
ENDROOT
BRANCH  18  22
ATOM     22  N   UNL     1      -7.946  -9.223   8.578  0.00  0.00    -0.198 NA
ATOM     23  C   UNL     1      -8.616  -8.907   8.941  0.00  0.00    +0.271 C 
ATOM     24  O   UNL     1      -8.541  -8.279   9.470  0.00  0.00    -0.268 OA
BRANCH  23  25
ATOM     25  C   UNL     1      -9.362  -9.219   8.775  0.00  0.00    +0.084 A 
ATOM     26  C   UNL     1      -9.758  -9.790   9.219  0.00  0.00    +0.012 A 
ATOM     27  C   UNL     1     -10.483  -9.939   8.855  0.00  0.00    +0.008 A 
ATOM     28  C   UNL     1     -10.535  -9.460   8.186  0.00  0.00    +0.036 A 
ATOM     29  S   UNL     1      -9.842  -9.015   8.137  0.00  0.00    -0.082 S 
ENDBRANCH  23  25
ENDBRANCH  18  22
BRANCH  14  13
ATOM     13  O   UNL     1      -4.428  -8.907   9.103  0.00  0.00    -0.432 OA
BRANCH  13  11
ATOM     10  N   UNL     1      -3.634  -8.957  10.290  0.00  0.00    -0.142 NA
ATOM     11  C   UNL     1      -3.911  -9.315   9.601  0.00  0.00    +0.425 C 
ATOM     12  O   UNL     1      -3.672 -10.081   9.408  0.00  0.00    -0.224 OA
BRANCH  10   9
ATOM      3  C   UNL     1      -1.785  -9.677  11.201  0.00  0.00    +0.143 A 
ATOM      4  C   UNL     1      -2.084 -10.179  11.784  0.00  0.00    +0.074 A 
ATOM      5  C   UNL     1      -2.900 -10.273  11.868  0.00  0.00    +0.143 A 
ATOM      8  C   UNL     1      -3.415  -9.866  11.370  0.00  0.00    +0.054 A 
ATOM      9  C   UNL     1      -3.117  -9.364  10.788  0.00  0.00    +0.083 A 
ATOM     30  C   UNL     1      -2.302  -9.270  10.703  0.00  0.00    +0.054 A 
BRANCH   3   2
ATOM      1  C   UNL     1      -0.601  -8.904  11.405  0.00  0.00    +0.252 C 
ATOM      2  O   UNL     1      -0.971  -9.583  11.117  0.00  0.00    -0.471 OA
ENDBRANCH   3   2
BRANCH   5   6
ATOM      6  O   UNL     1      -3.198 -10.775  12.451  0.00  0.00    -0.471 OA
ATOM      7  C   UNL     1      -3.178 -10.546  13.243  0.00  0.00    +0.252 C 
ENDBRANCH   5   6
ENDBRANCH  10   9
ENDBRANCH  13  11
ENDBRANCH  14  13
TORSDOF 7
ENDMDL
MODEL 10
REMARK VINA RESULT:      -5.4     15.152     15.957
REMARK  Name = 
REMARK  7 active torsions:
REMARK  status: ('A' for Active; 'I' for Inactive)
REMARK    1  A    between atoms: O_2  and  C_3
REMARK    2  A    between atoms: C_5  and  O_6
REMARK    3  A    between atoms: C_9  and  N_10
REMARK    4  A    between atoms: C_11  and  O_13
REMARK    5  A    between atoms: O_13  and  C_14
REMARK    6  A    between atoms: C_18  and  N_22
REMARK    7  A    between atoms: C_23  and  C_25
REMARK                            x       y       z     vdW  Elec       q    Type
REMARK                         _______ _______ _______ _____ _____    ______ ____
ROOT
ATOM     14  C   UNL     1      -7.145 -10.109  14.045  0.00  0.00    +0.229 C 
ATOM     15  C   UNL     1      -6.416 -10.074  14.429  0.00  0.00    +0.188 C 
ATOM     16  O   UNL     1      -5.841  -9.890  13.866  0.00  0.00    -0.348 OA
ATOM     17  C   UNL     1      -6.215  -9.811  13.136  0.00  0.00    +0.168 C 
ATOM     18  C   UNL     1      -6.092  -9.649  12.336  0.00  0.00    +0.155 C 
ATOM     19  C   UNL     1      -6.821  -9.683  11.953  0.00  0.00    +0.166 C 
ATOM     20  O   UNL     1      -7.396  -9.867  12.515  0.00  0.00    -0.348 OA
ATOM     21  C   UNL     1      -7.021  -9.946  13.247  0.00  0.00    +0.186 C 
ENDROOT
BRANCH  18  22
ATOM     22  N   UNL     1      -5.365  -9.481  11.983  0.00  0.00    -0.198 NA
ATOM     23  C   UNL     1      -5.187  -9.792  11.240  0.00  0.00    +0.271 C 
ATOM     24  O   UNL     1      -5.733 -10.272  10.851  0.00  0.00    -0.268 OA
BRANCH  23  25
ATOM     25  C   UNL     1      -4.460  -9.625  10.886  0.00  0.00    +0.084 A 
ATOM     26  C   UNL     1      -4.289  -8.966  10.421  0.00  0.00    +0.012 A 
ATOM     27  C   UNL     1      -3.500  -9.020  10.183  0.00  0.00    +0.008 A 
ATOM     28  C   UNL     1      -3.185  -9.712  10.501  0.00  0.00    +0.036 A 
ATOM     29  S   UNL     1      -3.779 -10.086  10.935  0.00  0.00    -0.082 S 
ENDBRANCH  23  25
ENDBRANCH  18  22
BRANCH  14  13
ATOM     13  O   UNL     1      -7.872 -10.276  14.399  0.00  0.00    -0.432 OA
BRANCH  13  11
ATOM     10  N   UNL     1      -8.913  -9.730  15.211  0.00  0.00    -0.142 NA
ATOM     11  C   UNL     1      -8.111  -9.858  15.069  0.00  0.00    +0.425 C 
ATOM     12  O   UNL     1      -7.547  -9.567  15.596  0.00  0.00    -0.224 OA
BRANCH  10   9
ATOM      3  C   UNL     1      -9.580  -8.092  16.491  0.00  0.00    +0.143 A 
ATOM      4  C   UNL     1      -9.632  -8.475  17.219  0.00  0.00    +0.074 A 
ATOM      5  C   UNL     1      -9.445  -9.277  17.279  0.00  0.00    +0.143 A 
ATOM      8  C   UNL     1      -9.206  -9.695  16.609  0.00  0.00    +0.054 A 
ATOM      9  C   UNL     1      -9.153  -9.312  15.880  0.00  0.00    +0.083 A 
ATOM     30  C   UNL     1      -9.340  -8.511  15.821  0.00  0.00    +0.054 A 
BRANCH   3   2
ATOM      1  C   UNL     1     -10.395  -7.048  15.956  0.00  0.00    +0.252 C 
ATOM      2  O   UNL     1      -9.767  -7.291  16.432  0.00  0.00    -0.471 OA
ENDBRANCH   3   2
BRANCH   5   6
ATOM      6  O   UNL     1      -9.498  -9.660  18.007  0.00  0.00    -0.471 OA
ATOM      7  C   UNL     1     -10.220  -9.969  18.260  0.00  0.00    +0.252 C 
ENDBRANCH   5   6
ENDBRANCH  10   9
ENDBRANCH  13  11
ENDBRANCH  14  13
TORSDOF 7
ENDMDL
