MODEL 1
REMARK VINA RESULT:     -14.3      0.000      0.000
REMARK  Name = 
REMARK  3 active torsions:
REMARK  status: ('A' for Active; 'I' for Inactive)
REMARK    1  A    between atoms: C_5  and  C_9
REMARK    2  A    between atoms: C_12  and  C_14
REMARK    3  A    between atoms: N_22  and  C_23
REMARK                            x       y       z     vdW  Elec       q    Type
REMARK                         _______ _______ _______ _____ _____    ______ ____
ROOT
ATOM     14  C   UNL     1      -4.152   1.974  24.875  0.00  0.00    +0.162 C 
ATOM     15  C   UNL     1      -4.954   2.151  24.952  0.00  0.00    +0.077 C 
ATOM     16  C   UNL     1      -5.188   2.879  25.261  0.00  0.00    +0.078 A 
ATOM     17  C   UNL     1      -4.620   3.430  25.494  0.00  0.00    +0.094 A 
ATOM     18  C   UNL     1      -3.817   3.253  25.417  0.00  0.00    +0.143 C 
ATOM     19  N   UNL     1      -3.584   2.525  25.107  0.00  0.00    -0.250 N 
ATOM     20  C   UNL     1      -2.782   2.349  25.031  0.00  0.00    +0.324 C 
ATOM     21  O   UNL     1      -2.548   1.620  24.721  0.00  0.00    -0.251 OA
ATOM     22  N   UNL     1      -2.214   2.900  25.263  0.00  0.00    -0.190 NA
ATOM     29  N   UNL     1      -5.013   4.097  25.778  0.00  0.00    -0.225 NA
ATOM     30  C   UNL     1      -5.824   3.959  25.721  0.00  0.00    +0.198 A 
ATOM     31  N   UNL     1      -5.932   3.206  25.401  0.00  0.00    -0.227 NA
ENDROOT
BRANCH  22  23
ATOM     23  C   UNL     1      -1.412   2.722  25.186  0.00  0.00    +0.097 C 
ATOM     24  C   UNL     1      -1.011   2.348  25.803  0.00  0.00    +0.022 C 
ATOM     25  C   UNL     1      -0.210   2.170  25.727  0.00  0.00    +0.002 C 
ATOM     26  C   UNL     1       0.192   2.366  25.033  0.00  0.00    +0.000 C 
ATOM     27  C   UNL     1      -0.208   2.741  24.417  0.00  0.00    +0.002 C 
ATOM     28  C   UNL     1      -1.010   2.918  24.494  0.00  0.00    +0.022 C 
ENDBRANCH  22  23
BRANCH  14  12
ATOM      9  C   UNL     1      -3.688  -0.062  24.432  0.00  0.00    +0.203 A 
ATOM     10  N   UNL     1      -3.428   0.314  23.746  0.00  0.00    -0.056 NA
ATOM     11  O   UNL     1      -3.570   1.122  23.829  0.00  0.00    -0.335 OA
ATOM     12  C   UNL     1      -3.918   1.247  24.566  0.00  0.00    +0.255 A 
ATOM     13  N   UNL     1      -3.991   0.514  24.940  0.00  0.00    -0.189 NA
BRANCH   9   5
ATOM      1  F   UNL     1      -3.541  -3.300  25.050  0.00  0.00    -0.203 F 
ATOM      2  C   UNL     1      -3.578  -2.491  24.895  0.00  0.00    +0.151 A 
ATOM      3  C   UNL     1      -3.232  -1.955  25.419  0.00  0.00    +0.031 A 
ATOM      4  C   UNL     1      -3.268  -1.146  25.264  0.00  0.00    +0.006 A 
ATOM      5  C   UNL     1      -3.651  -0.872  24.586  0.00  0.00    +0.040 A 
ATOM      6  C   UNL     1      -3.997  -1.407  24.063  0.00  0.00    +0.017 A 
ATOM      7  C   UNL     1      -3.961  -2.217  24.217  0.00  0.00    +0.085 A 
ATOM      8 CL   UNL     1      -4.307  -2.753  23.694  0.00  0.00    -0.080 Cl
ENDBRANCH   9   5
ENDBRANCH  14  12
TORSDOF 3
ENDMDL
MODEL 2
REMARK VINA RESULT:     -14.0      1.908      3.867
REMARK  Name = 
REMARK  3 active torsions:
REMARK  status: ('A' for Active; 'I' for Inactive)
REMARK    1  A    between atoms: C_5  and  C_9
REMARK    2  A    between atoms: C_12  and  C_14
REMARK    3  A    between atoms: N_22  and  C_23
REMARK                            x       y       z     vdW  Elec       q    Type
REMARK                         _______ _______ _______ _____ _____    ______ ____
ROOT
ATOM     14  C   UNL     1      -3.886   1.807  24.551  0.00  0.00    +0.162 C 
ATOM     15  C   UNL     1      -4.179   2.558  24.720  0.00  0.00    +0.077 C 
ATOM     16  C   UNL     1      -4.884   2.642  25.140  0.00  0.00    +0.078 A 
ATOM     17  C   UNL     1      -5.296   1.972  25.391  0.00  0.00    +0.094 A 
ATOM     18  C   UNL     1      -5.003   1.219  25.222  0.00  0.00    +0.143 C 
ATOM     19  N   UNL     1      -4.298   1.137  24.802  0.00  0.00    -0.250 N 
ATOM     20  C   UNL     1      -4.005   0.385  24.633  0.00  0.00    +0.324 C 
ATOM     21  O   UNL     1      -3.299   0.302  24.213  0.00  0.00    -0.251 OA
ATOM     22  N   UNL     1      -4.417  -0.285  24.884  0.00  0.00    -0.190 NA
ATOM     29  N   UNL     1      -5.972   2.224  25.791  0.00  0.00    -0.225 NA
ATOM     30  C   UNL     1      -5.978   3.049  25.788  0.00  0.00    +0.198 A 
ATOM     31  N   UNL     1      -5.306   3.306  25.386  0.00  0.00    -0.227 NA
ENDROOT
BRANCH  22  23
ATOM     23  C   UNL     1      -4.123  -1.037  24.715  0.00  0.00    +0.097 C 
ATOM     24  C   UNL     1      -3.608  -1.406  25.243  0.00  0.00    +0.022 C 
ATOM     25  C   UNL     1      -3.313  -2.158  25.075  0.00  0.00    +0.002 C 
ATOM     26  C   UNL     1      -3.534  -2.541  24.377  0.00  0.00    +0.000 C 
ATOM     27  C   UNL     1      -4.049  -2.171  23.849  0.00  0.00    +0.002 C 
ATOM     28  C   UNL     1      -4.343  -1.419  24.018  0.00  0.00    +0.022 C 
ENDBRANCH  22  23
BRANCH  14  12
ATOM      9  C   UNL     1      -1.881   1.649  23.834  0.00  0.00    +0.203 A 
ATOM     10  N   UNL     1      -2.309   1.542  23.137  0.00  0.00    -0.056 NA
ATOM     11  O   UNL     1      -3.112   1.588  23.322  0.00  0.00    -0.335 OA
ATOM     12  C   UNL     1      -3.181   1.724  24.132  0.00  0.00    +0.255 A 
ATOM     13  N   UNL     1      -2.420   1.762  24.450  0.00  0.00    -0.189 NA
BRANCH   9   5
ATOM      1  F   UNL     1       1.406   1.636  24.118  0.00  0.00    -0.203 F 
ATOM      2  C   UNL     1       0.585   1.639  24.047  0.00  0.00    +0.151 A 
ATOM      3  C   UNL     1       0.153   2.304  24.276  0.00  0.00    +0.031 A 
ATOM      4  C   UNL     1      -0.668   2.307  24.205  0.00  0.00    +0.006 A 
ATOM      5  C   UNL     1      -1.059   1.645  23.905  0.00  0.00    +0.040 A 
ATOM      6  C   UNL     1      -0.628   0.981  23.676  0.00  0.00    +0.017 A 
ATOM      7  C   UNL     1       0.194   0.977  23.746  0.00  0.00    +0.085 A 
ATOM      8 CL   UNL     1       0.625   0.313  23.517  0.00  0.00    -0.080 Cl
ENDBRANCH   9   5
ENDBRANCH  14  12
TORSDOF 3
ENDMDL
MODEL 3
REMARK VINA RESULT:     -13.6      2.270      4.224
REMARK  Name = 
REMARK  3 active torsions:
REMARK  status: ('A' for Active; 'I' for Inactive)
REMARK    1  A    between atoms: C_5  and  C_9
REMARK    2  A    between atoms: C_12  and  C_14
REMARK    3  A    between atoms: N_22  and  C_23
REMARK                            x       y       z     vdW  Elec       q    Type
REMARK                         _______ _______ _______ _____ _____    ______ ____
ROOT
ATOM     14  C   UNL     1      -3.270  -0.377  24.388  0.00  0.00    +0.162 C 
ATOM     15  C   UNL     1      -3.740  -1.049  24.306  0.00  0.00    +0.077 C 
ATOM     16  C   UNL     1      -3.413  -1.798  24.421  0.00  0.00    +0.078 A 
ATOM     17  C   UNL     1      -2.615  -1.874  24.617  0.00  0.00    +0.094 A 
ATOM     18  C   UNL     1      -2.144  -1.201  24.699  0.00  0.00    +0.143 C 
ATOM     19  N   UNL     1      -2.472  -0.452  24.584  0.00  0.00    -0.250 N 
ATOM     20  C   UNL     1      -2.001   0.220  24.666  0.00  0.00    +0.324 C 
ATOM     21  O   UNL     1      -2.329   0.969  24.551  0.00  0.00    -0.251 OA
ATOM     22  N   UNL     1      -1.204   0.144  24.862  0.00  0.00    -0.190 NA
ATOM     29  N   UNL     1      -2.447  -2.677  24.696  0.00  0.00    -0.225 NA
ATOM     30  C   UNL     1      -3.141  -3.098  24.548  0.00  0.00    +0.198 A 
ATOM     31  N   UNL     1      -3.737  -2.554  24.378  0.00  0.00    -0.227 NA
ENDROOT
BRANCH  22  23
ATOM     23  C   UNL     1      -0.734   0.817  24.944  0.00  0.00    +0.097 C 
ATOM     24  C   UNL     1      -0.272   1.076  24.311  0.00  0.00    +0.022 C 
ATOM     25  C   UNL     1       0.199   1.749  24.391  0.00  0.00    +0.002 C 
ATOM     26  C   UNL     1       0.207   2.164  25.106  0.00  0.00    +0.000 C 
ATOM     27  C   UNL     1      -0.255   1.905  25.738  0.00  0.00    +0.002 C 
ATOM     28  C   UNL     1      -0.725   1.231  25.657  0.00  0.00    +0.022 C 
ENDBRANCH  22  23
BRANCH  14  12
ATOM      9  C   UNL     1      -4.257   1.514  24.477  0.00  0.00    +0.203 A 
ATOM     10  N   UNL     1      -3.944   1.534  23.715  0.00  0.00    -0.056 NA
ATOM     11  O   UNL     1      -3.536   0.828  23.589  0.00  0.00    -0.335 OA
ATOM     12  C   UNL     1      -3.597   0.372  24.273  0.00  0.00    +0.255 A 
ATOM     13  N   UNL     1      -4.043   0.796  24.823  0.00  0.00    -0.189 NA
BRANCH   9   5
ATOM      1  F   UNL     1      -6.054   3.887  25.901  0.00  0.00    -0.203 F 
ATOM      2  C   UNL     1      -5.605   3.295  25.546  0.00  0.00    +0.151 A 
ATOM      3  C   UNL     1      -5.952   2.570  25.358  0.00  0.00    +0.031 A 
ATOM      4  C   UNL     1      -5.503   1.977  25.002  0.00  0.00    +0.006 A 
ATOM      5  C   UNL     1      -4.706   2.108  24.834  0.00  0.00    +0.040 A 
ATOM      6  C   UNL     1      -4.358   2.832  25.021  0.00  0.00    +0.017 A 
ATOM      7  C   UNL     1      -4.807   3.426  25.377  0.00  0.00    +0.085 A 
ATOM      8 CL   UNL     1      -4.460   4.149  25.565  0.00  0.00    -0.080 Cl
ENDBRANCH   9   5
ENDBRANCH  14  12
TORSDOF 3
ENDMDL
MODEL 4
REMARK VINA RESULT:     -13.3      2.191      4.694
REMARK  Name = 
REMARK  3 active torsions:
REMARK  status: ('A' for Active; 'I' for Inactive)
REMARK    1  A    between atoms: C_5  and  C_9
REMARK    2  A    between atoms: C_12  and  C_14
REMARK    3  A    between atoms: N_22  and  C_23
REMARK                            x       y       z     vdW  Elec       q    Type
REMARK                         _______ _______ _______ _____ _____    ______ ____
ROOT
ATOM     14  C   UNL     1      -1.731   1.293  24.134  0.00  0.00    +0.162 C 
ATOM     15  C   UNL     1      -1.149   1.859  23.989  0.00  0.00    +0.077 C 
ATOM     16  C   UNL     1      -0.351   1.651  24.025  0.00  0.00    +0.078 A 
ATOM     17  C   UNL     1      -0.136   0.875  24.207  0.00  0.00    +0.094 A 
ATOM     18  C   UNL     1      -0.718   0.308  24.352  0.00  0.00    +0.143 C 
ATOM     19  N   UNL     1      -1.515   0.517  24.315  0.00  0.00    -0.250 N 
ATOM     20  C   UNL     1      -2.096  -0.050  24.460  0.00  0.00    +0.324 C 
ATOM     21  O   UNL     1      -2.894   0.160  24.423  0.00  0.00    -0.251 OA
ATOM     22  N   UNL     1      -1.881  -0.825  24.641  0.00  0.00    -0.190 NA
ATOM     29  N   UNL     1       0.687   0.832  24.203  0.00  0.00    -0.225 NA
ATOM     30  C   UNL     1       0.981   1.580  24.020  0.00  0.00    +0.198 A 
ATOM     31  N   UNL     1       0.339   2.086  23.910  0.00  0.00    -0.227 NA
ENDROOT
BRANCH  22  23
ATOM     23  C   UNL     1      -2.464  -1.391  24.786  0.00  0.00    +0.097 C 
ATOM     24  C   UNL     1      -2.678  -1.923  24.193  0.00  0.00    +0.022 C 
ATOM     25  C   UNL     1      -3.260  -2.490  24.336  0.00  0.00    +0.002 C 
ATOM     26  C   UNL     1      -3.628  -2.524  25.074  0.00  0.00    +0.000 C 
ATOM     27  C   UNL     1      -3.414  -1.992  25.667  0.00  0.00    +0.002 C 
ATOM     28  C   UNL     1      -2.832  -1.426  25.523  0.00  0.00    +0.022 C 
ENDBRANCH  22  23
BRANCH  14  12
ATOM      9  C   UNL     1      -3.720   2.019  24.402  0.00  0.00    +0.203 A 
ATOM     10  N   UNL     1      -3.790   1.626  23.680  0.00  0.00    -0.056 NA
ATOM     11  O   UNL     1      -3.052   1.307  23.492  0.00  0.00    -0.335 OA
ATOM     12  C   UNL     1      -2.527   1.501  24.097  0.00  0.00    +0.255 A 
ATOM     13  N   UNL     1      -2.940   1.942  24.661  0.00  0.00    -0.189 NA
BRANCH   9   5
ATOM      1  F   UNL     1      -6.134   3.620  25.983  0.00  0.00    -0.203 F 
ATOM      2  C   UNL     1      -5.531   3.220  25.588  0.00  0.00    +0.151 A 
ATOM      3  C   UNL     1      -4.914   3.643  25.239  0.00  0.00    +0.031 A 
ATOM      4  C   UNL     1      -4.311   3.243  24.844  0.00  0.00    +0.006 A 
ATOM      5  C   UNL     1      -4.324   2.419  24.797  0.00  0.00    +0.040 A 
ATOM      6  C   UNL     1      -4.940   1.996  25.146  0.00  0.00    +0.017 A 
ATOM      7  C   UNL     1      -5.544   2.396  25.541  0.00  0.00    +0.085 A 
ATOM      8 CL   UNL     1      -6.160   1.972  25.890  0.00  0.00    -0.080 Cl
ENDBRANCH   9   5
ENDBRANCH  14  12
TORSDOF 3
ENDMDL
MODEL 5
REMARK VINA RESULT:     -13.2      1.180      3.300
REMARK  Name = 
REMARK  3 active torsions:
REMARK  status: ('A' for Active; 'I' for Inactive)
REMARK    1  A    between atoms: C_5  and  C_9
REMARK    2  A    between atoms: C_12  and  C_14
REMARK    3  A    between atoms: N_22  and  C_23
REMARK                            x       y       z     vdW  Elec       q    Type
REMARK                         _______ _______ _______ _____ _____    ______ ____
ROOT
ATOM     14  C   UNL     1      -1.612   1.163  24.880  0.00  0.00    +0.162 C 
ATOM     15  C   UNL     1      -0.801   1.154  24.729  0.00  0.00    +0.077 C 
ATOM     16  C   UNL     1      -0.416   1.845  24.497  0.00  0.00    +0.078 A 
ATOM     17  C   UNL     1      -0.842   2.547  24.417  0.00  0.00    +0.094 A 
ATOM     18  C   UNL     1      -1.653   2.558  24.568  0.00  0.00    +0.143 C 
ATOM     19  N   UNL     1      -2.038   1.865  24.800  0.00  0.00    -0.250 N 
ATOM     20  C   UNL     1      -2.849   1.876  24.950  0.00  0.00    +0.324 C 
ATOM     21  O   UNL     1      -3.234   1.183  25.182  0.00  0.00    -0.251 OA
ATOM     22  N   UNL     1      -3.275   2.578  24.870  0.00  0.00    -0.190 NA
ATOM     29  N   UNL     1      -0.317   3.138  24.182  0.00  0.00    -0.225 NA
ATOM     30  C   UNL     1       0.433   2.802  24.117  0.00  0.00    +0.198 A 
ATOM     31  N   UNL     1       0.372   2.003  24.312  0.00  0.00    -0.227 NA
ENDROOT
BRANCH  22  23
ATOM     23  C   UNL     1      -4.086   2.587  25.021  0.00  0.00    +0.097 C 
ATOM     24  C   UNL     1      -4.369   2.908  25.727  0.00  0.00    +0.022 C 
ATOM     25  C   UNL     1      -5.180   2.917  25.879  0.00  0.00    +0.002 C 
ATOM     26  C   UNL     1      -5.707   2.607  25.325  0.00  0.00    +0.000 C 
ATOM     27  C   UNL     1      -5.424   2.286  24.620  0.00  0.00    +0.002 C 
ATOM     28  C   UNL     1      -4.612   2.277  24.468  0.00  0.00    +0.022 C 
ENDBRANCH  22  23
BRANCH  14  12
ATOM      9  C   UNL     1      -2.607  -0.715  25.075  0.00  0.00    +0.203 A 
ATOM     10  N   UNL     1      -2.573  -0.471  25.861  0.00  0.00    -0.056 NA
ATOM     11  O   UNL     1      -2.196   0.263  25.884  0.00  0.00    -0.335 OA
ATOM     12  C   UNL     1      -1.997   0.472  25.111  0.00  0.00    +0.255 A 
ATOM     13  N   UNL     1      -2.251  -0.133  24.610  0.00  0.00    -0.189 NA
BRANCH   9   5
ATOM      1  F   UNL     1      -3.931  -3.530  23.972  0.00  0.00    -0.203 F 
ATOM      2  C   UNL     1      -3.600  -2.826  24.247  0.00  0.00    +0.151 A 
ATOM      3  C   UNL     1      -2.893  -2.842  24.673  0.00  0.00    +0.031 A 
ATOM      4  C   UNL     1      -2.562  -2.138  24.949  0.00  0.00    +0.006 A 
ATOM      5  C   UNL     1      -2.938  -1.419  24.798  0.00  0.00    +0.040 A 
ATOM      6  C   UNL     1      -3.644  -1.403  24.373  0.00  0.00    +0.017 A 
ATOM      7  C   UNL     1      -3.976  -2.107  24.097  0.00  0.00    +0.085 A 
ATOM      8 CL   UNL     1      -4.682  -2.091  23.672  0.00  0.00    -0.080 Cl
ENDBRANCH   9   5
ENDBRANCH  14  12
TORSDOF 3
ENDMDL
MODEL 6
REMARK VINA RESULT:     -13.0      3.073      5.695
REMARK  Name = 
REMARK  3 active torsions:
REMARK  status: ('A' for Active; 'I' for Inactive)
REMARK    1  A    between atoms: C_5  and  C_9
REMARK    2  A    between atoms: C_12  and  C_14
REMARK    3  A    between atoms: N_22  and  C_23
REMARK                            x       y       z     vdW  Elec       q    Type
REMARK                         _______ _______ _______ _____ _____    ______ ____
ROOT
ATOM     14  C   UNL     1      -0.020   1.030  24.309  0.00  0.00    +0.162 C 
ATOM     15  C   UNL     1       0.708   1.137  23.937  0.00  0.00    +0.077 C 
ATOM     16  C   UNL     1       0.996   0.562  23.421  0.00  0.00    +0.078 A 
ATOM     17  C   UNL     1       0.556  -0.120  23.276  0.00  0.00    +0.094 A 
ATOM     18  C   UNL     1      -0.174  -0.228  23.648  0.00  0.00    +0.143 C 
ATOM     19  N   UNL     1      -0.461   0.348  24.164  0.00  0.00    -0.250 N 
ATOM     20  C   UNL     1      -1.190   0.240  24.536  0.00  0.00    +0.324 C 
ATOM     21  O   UNL     1      -1.478   0.816  25.052  0.00  0.00    -0.251 OA
ATOM     22  N   UNL     1      -1.630  -0.442  24.391  0.00  0.00    -0.190 NA
ATOM     29  N   UNL     1       0.977  -0.588  22.744  0.00  0.00    -0.225 NA
ATOM     30  C   UNL     1       1.679  -0.195  22.560  0.00  0.00    +0.198 A 
ATOM     31  N   UNL     1       1.690   0.515  22.978  0.00  0.00    -0.227 NA
ENDROOT
BRANCH  22  23
ATOM     23  C   UNL     1      -2.359  -0.548  24.763  0.00  0.00    +0.097 C 
ATOM     24  C   UNL     1      -2.403  -0.974  25.469  0.00  0.00    +0.022 C 
ATOM     25  C   UNL     1      -3.131  -1.081  25.842  0.00  0.00    +0.002 C 
ATOM     26  C   UNL     1      -3.816  -0.762  25.509  0.00  0.00    +0.000 C 
ATOM     27  C   UNL     1      -3.772  -0.337  24.803  0.00  0.00    +0.002 C 
ATOM     28  C   UNL     1      -3.043  -0.230  24.431  0.00  0.00    +0.022 C 
ENDBRANCH  22  23
BRANCH  14  12
ATOM      9  C   UNL     1      -0.842   2.733  25.299  0.00  0.00    +0.203 A 
ATOM     10  N   UNL     1      -0.662   2.248  25.941  0.00  0.00    -0.056 NA
ATOM     11  O   UNL     1      -0.332   1.551  25.647  0.00  0.00    -0.335 OA
ATOM     12  C   UNL     1      -0.309   1.605  24.825  0.00  0.00    +0.255 A 
ATOM     13  N   UNL     1      -0.624   2.337  24.609  0.00  0.00    -0.189 NA
BRANCH   9   5
ATOM      1  F   UNL     1      -2.197   5.739  25.458  0.00  0.00    -0.203 F 
ATOM      2  C   UNL     1      -1.859   4.988  25.418  0.00  0.00    +0.151 A 
ATOM      3  C   UNL     1      -1.120   4.886  25.064  0.00  0.00    +0.031 A 
ATOM      4  C   UNL     1      -0.782   4.135  25.024  0.00  0.00    +0.006 A 
ATOM      5  C   UNL     1      -1.182   3.485  25.339  0.00  0.00    +0.040 A 
ATOM      6  C   UNL     1      -1.919   3.586  25.693  0.00  0.00    +0.017 A 
ATOM      7  C   UNL     1      -2.259   4.338  25.733  0.00  0.00    +0.085 A 
ATOM      8 CL   UNL     1      -2.996   4.439  26.087  0.00  0.00    -0.080 Cl
ENDBRANCH   9   5
ENDBRANCH  14  12
TORSDOF 3
ENDMDL
