MODEL 1
REMARK VINA RESULT:      -8.3      0.000      0.000
REMARK  Name = 
REMARK  6 active torsions:
REMARK  status: ('A' for Active; 'I' for Inactive)
REMARK    1  A    between atoms: O_2  and  C_3
REMARK    2  A    between atoms: C_3  and  C_4
REMARK    3  A    between atoms: C_10  and  C_13
REMARK    4  A    between atoms: C_16  and  C_18
REMARK    5  A    between atoms: N_22  and  C_23
REMARK    6  A    between atoms: C_23  and  C_24
REMARK                            x       y       z     vdW  Elec       q    Type
REMARK                         _______ _______ _______ _____ _____    ______ ____
ROOT
ATOM     13  C   UNL     1      -1.487   0.411  24.680  0.00  0.00    +0.205 A 
ATOM     14  N   UNL     1      -1.590   0.426  25.498  0.00  0.00    -0.056 NA
ATOM     15  O   UNL     1      -2.381   0.604  25.652  0.00  0.00    -0.336 OA
ATOM     16  C   UNL     1      -2.767   0.699  24.929  0.00  0.00    +0.251 A 
ATOM     17  N   UNL     1      -2.214   0.580  24.327  0.00  0.00    -0.190 NA
ENDROOT
BRANCH  13  10
ATOM      4  C   UNL     1       1.891   0.391  22.981  0.00  0.00    +0.277 C 
ATOM      5  O   UNL     1       1.736   1.149  23.265  0.00  0.00    -0.270 OA
ATOM      6  N   UNL     1       1.339  -0.213  23.094  0.00  0.00    -0.158 NA
ATOM      7  C   UNL     1       0.632  -0.056  23.490  0.00  0.00    +0.155 A 
ATOM      8  N   UNL     1       0.080  -0.660  23.603  0.00  0.00    -0.227 NA
ATOM      9  C   UNL     1      -0.626  -0.503  24.000  0.00  0.00    +0.103 A 
ATOM     10  C   UNL     1      -0.780   0.255  24.283  0.00  0.00    +0.058 A 
ATOM     11  C   UNL     1      -0.229   0.858  24.171  0.00  0.00    +0.008 A 
ATOM     12  C   UNL     1       0.478   0.702  23.774  0.00  0.00    +0.036 A 
BRANCH   4   3
ATOM      3  C   UNL     1       2.597   0.234  22.585  0.00  0.00    +0.229 C 
BRANCH   3   2
ATOM      1  C   UNL     1       3.974   0.534  22.347  0.00  0.00    +0.175 C 
ATOM      2  O   UNL     1       3.256   0.712  22.714  0.00  0.00    -0.342 OA
ENDBRANCH   3   2
ENDBRANCH   4   3
ENDBRANCH  13  10
BRANCH  16  18
ATOM     18  C   UNL     1      -3.565   0.881  24.824  0.00  0.00    +0.138 C 
ATOM     19  C   UNL     1      -4.177   0.336  24.726  0.00  0.00    +0.027 C 
ATOM     20  C   UNL     1      -4.881   0.758  24.640  0.00  0.00    +0.019 C 
ATOM     21  C   UNL     1      -4.704   1.562  24.685  0.00  0.00    +0.073 C 
ATOM     22  N   UNL     1      -3.890   1.638  24.798  0.00  0.00    -0.266 NA
BRANCH  22  23
ATOM     23  C   UNL     1      -3.475   2.347  24.873  0.00  0.00    +0.072 C 
BRANCH  23  24
ATOM     24  C   UNL     1      -3.874   3.067  24.813  0.00  0.00    +0.016 C 
ATOM     25  C   UNL     1      -4.198   3.417  25.485  0.00  0.00    +0.001 C 
ATOM     26  C   UNL     1      -3.947   3.437  24.079  0.00  0.00    +0.001 C 
ENDBRANCH  23  24
ENDBRANCH  22  23
ENDBRANCH  16  18
TORSDOF 6
ENDMDL
MODEL 2
REMARK VINA RESULT:      -8.1      2.481      4.023
REMARK  Name = 
REMARK  6 active torsions:
REMARK  status: ('A' for Active; 'I' for Inactive)
REMARK    1  A    between atoms: O_2  and  C_3
REMARK    2  A    between atoms: C_3  and  C_4
REMARK    3  A    between atoms: C_10  and  C_13
REMARK    4  A    between atoms: C_16  and  C_18
REMARK    5  A    between atoms: N_22  and  C_23
REMARK    6  A    between atoms: C_23  and  C_24
REMARK                            x       y       z     vdW  Elec       q    Type
REMARK                         _______ _______ _______ _____ _____    ______ ____
ROOT
ATOM     13  C   UNL     1      -0.895   1.574  25.375  0.00  0.00    +0.205 A 
ATOM     14  N   UNL     1      -0.325   1.800  25.926  0.00  0.00    -0.056 NA
ATOM     15  O   UNL     1      -0.320   2.624  25.964  0.00  0.00    -0.336 OA
ATOM     16  C   UNL     1      -0.888   2.907  25.436  0.00  0.00    +0.251 A 
ATOM     17  N   UNL     1      -1.243   2.258  25.072  0.00  0.00    -0.190 NA
ENDROOT
BRANCH  13  10
ATOM      4  C   UNL     1      -2.371  -1.854  24.768  0.00  0.00    +0.277 C 
ATOM      5  O   UNL     1      -2.900  -1.408  25.215  0.00  0.00    -0.270 OA
ATOM      6  N   UNL     1      -1.651  -1.526  24.531  0.00  0.00    -0.158 NA
ATOM      7  C   UNL     1      -1.463  -0.751  24.742  0.00  0.00    +0.155 A 
ATOM      8  N   UNL     1      -0.743  -0.423  24.505  0.00  0.00    -0.227 NA
ATOM      9  C   UNL     1      -0.555   0.352  24.716  0.00  0.00    +0.103 A 
ATOM     10  C   UNL     1      -1.084   0.798  25.164  0.00  0.00    +0.058 A 
ATOM     11  C   UNL     1      -1.803   0.470  25.400  0.00  0.00    +0.008 A 
ATOM     12  C   UNL     1      -1.992  -0.305  25.189  0.00  0.00    +0.036 A 
BRANCH   4   3
ATOM      3  C   UNL     1      -2.559  -2.629  24.556  0.00  0.00    +0.229 C 
BRANCH   3   2
ATOM      1  C   UNL     1      -3.595  -3.528  24.156  0.00  0.00    +0.175 C 
ATOM      2  O   UNL     1      -3.337  -2.895  24.619  0.00  0.00    -0.342 OA
ENDBRANCH   3   2
ENDBRANCH   4   3
ENDBRANCH  13  10
BRANCH  16  18
ATOM     18  C   UNL     1      -1.069   3.700  25.296  0.00  0.00    +0.138 C 
ATOM     19  C   UNL     1      -0.572   4.255  24.940  0.00  0.00    +0.027 C 
ATOM     20  C   UNL     1      -0.974   4.975  24.911  0.00  0.00    +0.019 C 
ATOM     21  C   UNL     1      -1.719   4.864  25.249  0.00  0.00    +0.073 C 
ATOM     22  N   UNL     1      -1.777   4.076  25.486  0.00  0.00    -0.266 NA
BRANCH  22  23
ATOM     23  C   UNL     1      -2.429   3.727  25.850  0.00  0.00    +0.072 C 
BRANCH  23  24
ATOM     24  C   UNL     1      -3.124   4.160  25.957  0.00  0.00    +0.016 C 
ATOM     25  C   UNL     1      -3.707   4.155  25.374  0.00  0.00    +0.001 C 
ATOM     26  C   UNL     1      -3.234   4.598  26.647  0.00  0.00    +0.001 C 
ENDBRANCH  23  24
ENDBRANCH  22  23
ENDBRANCH  16  18
TORSDOF 6
ENDMDL
MODEL 3
REMARK VINA RESULT:      -8.0      3.110      4.627
REMARK  Name = 
REMARK  6 active torsions:
REMARK  status: ('A' for Active; 'I' for Inactive)
REMARK    1  A    between atoms: O_2  and  C_3
REMARK    2  A    between atoms: C_3  and  C_4
REMARK    3  A    between atoms: C_10  and  C_13
REMARK    4  A    between atoms: C_16  and  C_18
REMARK    5  A    between atoms: N_22  and  C_23
REMARK    6  A    between atoms: C_23  and  C_24
REMARK                            x       y       z     vdW  Elec       q    Type
REMARK                         _______ _______ _______ _____ _____    ______ ____
ROOT
ATOM     13  C   UNL     1      -3.876   0.744  24.870  0.00  0.00    +0.205 A 
ATOM     14  N   UNL     1      -4.432   0.455  25.406  0.00  0.00    -0.056 NA
ATOM     15  O   UNL     1      -4.532  -0.351  25.259  0.00  0.00    -0.336 OA
ATOM     16  C   UNL     1      -4.038  -0.560  24.632  0.00  0.00    +0.251 A 
ATOM     17  N   UNL     1      -3.632   0.117  24.392  0.00  0.00    -0.190 NA
ENDROOT
BRANCH  13  10
ATOM      4  C   UNL     1      -2.156   4.102  25.116  0.00  0.00    +0.277 C 
ATOM      5  O   UNL     1      -1.768   3.564  25.605  0.00  0.00    -0.270 OA
ATOM      6  N   UNL     1      -2.811   3.861  24.675  0.00  0.00    -0.158 NA
ATOM      7  C   UNL     1      -3.077   3.082  24.724  0.00  0.00    +0.155 A 
ATOM      8  N   UNL     1      -3.732   2.841  24.283  0.00  0.00    -0.227 NA
ATOM      9  C   UNL     1      -3.997   2.062  24.332  0.00  0.00    +0.103 A 
ATOM     10  C   UNL     1      -3.609   1.524  24.821  0.00  0.00    +0.058 A 
ATOM     11  C   UNL     1      -2.955   1.764  25.262  0.00  0.00    +0.008 A 
ATOM     12  C   UNL     1      -2.689   2.544  25.213  0.00  0.00    +0.036 A 
BRANCH   4   3
ATOM      3  C   UNL     1      -1.890   4.881  25.067  0.00  0.00    +0.229 C 
BRANCH   3   2
ATOM      1  C   UNL     1      -0.785   5.727  24.743  0.00  0.00    +0.175 C 
ATOM      2  O   UNL     1      -1.082   5.043  25.097  0.00  0.00    -0.342 OA
ENDBRANCH   3   2
ENDBRANCH   4   3
ENDBRANCH  13  10
BRANCH  16  18
ATOM     18  C   UNL     1      -3.962  -1.312  24.303  0.00  0.00    +0.138 C 
ATOM     19  C   UNL     1      -4.513  -1.685  23.814  0.00  0.00    +0.027 C 
ATOM     20  C   UNL     1      -4.214  -2.428  23.613  0.00  0.00    +0.019 C 
ATOM     21  C   UNL     1      -3.479  -2.513  23.979  0.00  0.00    +0.073 C 
ATOM     22  N   UNL     1      -3.324  -1.824  24.405  0.00  0.00    -0.266 NA
BRANCH  22  23
ATOM     23  C   UNL     1      -2.649  -1.674  24.853  0.00  0.00    +0.072 C 
BRANCH  23  24
ATOM     24  C   UNL     1      -2.012  -2.199  24.831  0.00  0.00    +0.016 C 
ATOM     25  C   UNL     1      -1.353  -2.029  24.366  0.00  0.00    +0.001 C 
ATOM     26  C   UNL     1      -2.037  -2.894  25.274  0.00  0.00    +0.001 C 
ENDBRANCH  23  24
ENDBRANCH  22  23
ENDBRANCH  16  18
TORSDOF 6
ENDMDL
MODEL 4
REMARK VINA RESULT:      -8.0      3.416      4.699
REMARK  Name = 
REMARK  6 active torsions:
REMARK  status: ('A' for Active; 'I' for Inactive)
REMARK    1  A    between atoms: O_2  and  C_3
REMARK    2  A    between atoms: C_3  and  C_4
REMARK    3  A    between atoms: C_10  and  C_13
REMARK    4  A    between atoms: C_16  and  C_18
REMARK    5  A    between atoms: N_22  and  C_23
REMARK    6  A    between atoms: C_23  and  C_24
REMARK                            x       y       z     vdW  Elec       q    Type
REMARK                         _______ _______ _______ _____ _____    ______ ____
ROOT
ATOM     13  C   UNL     1      -3.821   2.076  24.497  0.00  0.00    +0.205 A 
ATOM     14  N   UNL     1      -4.012   2.631  23.917  0.00  0.00    -0.056 NA
ATOM     15  O   UNL     1      -3.758   3.370  24.180  0.00  0.00    -0.336 OA
ATOM     16  C   UNL     1      -3.410   3.273  24.922  0.00  0.00    +0.251 A 
ATOM     17  N   UNL     1      -3.449   2.472  25.118  0.00  0.00    -0.190 NA
ENDROOT
BRANCH  13  10
ATOM      4  C   UNL     1      -3.861  -1.681  24.069  0.00  0.00    +0.277 C 
ATOM      5  O   UNL     1      -3.133  -1.388  23.817  0.00  0.00    -0.270 OA
ATOM      6  N   UNL     1      -4.437  -1.163  24.356  0.00  0.00    -0.158 NA
ATOM      7  C   UNL     1      -4.282  -0.354  24.391  0.00  0.00    +0.155 A 
ATOM      8  N   UNL     1      -4.858   0.164  24.678  0.00  0.00    -0.227 NA
ATOM      9  C   UNL     1      -4.703   0.973  24.713  0.00  0.00    +0.103 A 
ATOM     10  C   UNL     1      -3.975   1.266  24.462  0.00  0.00    +0.058 A 
ATOM     11  C   UNL     1      -3.400   0.749  24.174  0.00  0.00    +0.008 A 
ATOM     12  C   UNL     1      -3.554  -0.061  24.139  0.00  0.00    +0.036 A 
BRANCH   4   3
ATOM      3  C   UNL     1      -4.016  -2.490  24.034  0.00  0.00    +0.229 C 
BRANCH   3   2
ATOM      1  C   UNL     1      -3.533  -3.751  24.502  0.00  0.00    +0.175 C 
ATOM      2  O   UNL     1      -3.399  -3.031  24.121  0.00  0.00    -0.342 OA
ENDBRANCH   3   2
ENDBRANCH   4   3
ENDBRANCH  13  10
BRANCH  16  18
ATOM     18  C   UNL     1      -3.081   3.870  25.387  0.00  0.00    +0.138 C 
ATOM     19  C   UNL     1      -3.474   4.302  25.970  0.00  0.00    +0.027 C 
ATOM     20  C   UNL     1      -2.937   4.839  26.294  0.00  0.00    +0.019 C 
ATOM     21  C   UNL     1      -2.214   4.738  25.911  0.00  0.00    +0.073 C 
ATOM     22  N   UNL     1      -2.303   4.140  25.350  0.00  0.00    -0.266 NA
BRANCH  22  23
ATOM     23  C   UNL     1      -1.716   3.860  24.842  0.00  0.00    +0.072 C 
BRANCH  23  24
ATOM     24  C   UNL     1      -0.932   4.094  24.949  0.00  0.00    +0.016 C 
ATOM     25  C   UNL     1      -0.682   4.833  24.681  0.00  0.00    +0.001 C 
ATOM     26  C   UNL     1      -0.398   3.589  25.323  0.00  0.00    +0.001 C 
ENDBRANCH  23  24
ENDBRANCH  22  23
ENDBRANCH  16  18
TORSDOF 6
ENDMDL
MODEL 5
REMARK VINA RESULT:      -7.9      1.349      2.332
REMARK  Name = 
REMARK  6 active torsions:
REMARK  status: ('A' for Active; 'I' for Inactive)
REMARK    1  A    between atoms: O_2  and  C_3
REMARK    2  A    between atoms: C_3  and  C_4
REMARK    3  A    between atoms: C_10  and  C_13
REMARK    4  A    between atoms: C_16  and  C_18
REMARK    5  A    between atoms: N_22  and  C_23
REMARK    6  A    between atoms: C_23  and  C_24
REMARK                            x       y       z     vdW  Elec       q    Type
REMARK                         _______ _______ _______ _____ _____    ______ ____
ROOT
ATOM     13  C   UNL     1      -1.106   0.358  24.695  0.00  0.00    +0.205 A 
ATOM     14  N   UNL     1      -1.229   0.247  25.502  0.00  0.00    -0.056 NA
ATOM     15  O   UNL     1      -2.033   0.103  25.620  0.00  0.00    -0.336 OA
ATOM     16  C   UNL     1      -2.407   0.126  24.884  0.00  0.00    +0.251 A 
ATOM     17  N   UNL     1      -1.834   0.283  24.312  0.00  0.00    -0.190 NA
ENDROOT
BRANCH  13  10
ATOM      4  C   UNL     1       2.184   0.394  22.832  0.00  0.00    +0.277 C 
ATOM      5  O   UNL     1       1.853  -0.359  22.780  0.00  0.00    -0.270 OA
ATOM      6  N   UNL     1       1.791   0.990  23.245  0.00  0.00    -0.158 NA
ATOM      7  C   UNL     1       1.067   0.831  23.607  0.00  0.00    +0.155 A 
ATOM      8  N   UNL     1       0.673   1.428  24.021  0.00  0.00    -0.227 NA
ATOM      9  C   UNL     1      -0.051   1.269  24.383  0.00  0.00    +0.103 A 
ATOM     10  C   UNL     1      -0.381   0.516  24.332  0.00  0.00    +0.058 A 
ATOM     11  C   UNL     1       0.011  -0.080  23.919  0.00  0.00    +0.008 A 
ATOM     12  C   UNL     1       0.736   0.078  23.556  0.00  0.00    +0.036 A 
BRANCH   4   3
ATOM      3  C   UNL     1       2.908   0.552  22.470  0.00  0.00    +0.229 C 
BRANCH   3   2
ATOM      1  C   UNL     1       4.333   0.594  22.568  0.00  0.00    +0.175 C 
ATOM      2  O   UNL     1       3.608   0.285  22.815  0.00  0.00    -0.342 OA
ENDBRANCH   3   2
ENDBRANCH   4   3
ENDBRANCH  13  10
BRANCH  16  18
ATOM     18  C   UNL     1      -3.212   0.011  24.745  0.00  0.00    +0.138 C 
ATOM     19  C   UNL     1      -3.796   0.594  24.775  0.00  0.00    +0.027 C 
ATOM     20  C   UNL     1      -4.520   0.238  24.599  0.00  0.00    +0.019 C 
ATOM     21  C   UNL     1      -4.382  -0.564  24.461  0.00  0.00    +0.073 C 
ATOM     22  N   UNL     1      -3.574  -0.704  24.551  0.00  0.00    -0.266 NA
BRANCH  22  23
ATOM     23  C   UNL     1      -3.194  -1.430  24.463  0.00  0.00    +0.072 C 
BRANCH  23  24
ATOM     24  C   UNL     1      -3.638  -2.125  24.417  0.00  0.00    +0.016 C 
ATOM     25  C   UNL     1      -3.621  -2.666  25.039  0.00  0.00    +0.001 C 
ATOM     26  C   UNL     1      -4.098  -2.277  23.750  0.00  0.00    +0.001 C 
ENDBRANCH  23  24
ENDBRANCH  22  23
ENDBRANCH  16  18
TORSDOF 6
ENDMDL
MODEL 6
REMARK VINA RESULT:      -7.8      2.848      4.329
REMARK  Name = 
REMARK  6 active torsions:
REMARK  status: ('A' for Active; 'I' for Inactive)
REMARK    1  A    between atoms: O_2  and  C_3
REMARK    2  A    between atoms: C_3  and  C_4
REMARK    3  A    between atoms: C_10  and  C_13
REMARK    4  A    between atoms: C_16  and  C_18
REMARK    5  A    between atoms: N_22  and  C_23
REMARK    6  A    between atoms: C_23  and  C_24
REMARK                            x       y       z     vdW  Elec       q    Type
REMARK                         _______ _______ _______ _____ _____    ______ ____
ROOT
ATOM     13  C   UNL     1      -1.154   0.278  25.449  0.00  0.00    +0.205 A 
ATOM     14  N   UNL     1      -1.199  -0.137  26.160  0.00  0.00    -0.056 NA
ATOM     15  O   UNL     1      -1.357  -0.927  25.984  0.00  0.00    -0.336 OA
ATOM     16  C   UNL     1      -1.411  -1.000  25.164  0.00  0.00    +0.251 A 
ATOM     17  N   UNL     1      -1.285  -0.255  24.833  0.00  0.00    -0.190 NA
ENDROOT
BRANCH  13  10
ATOM      4  C   UNL     1      -1.185   4.039  25.061  0.00  0.00    +0.277 C 
ATOM      5  O   UNL     1      -1.961   3.764  25.078  0.00  0.00    -0.270 OA
ATOM      6  N   UNL     1      -0.556   3.508  25.125  0.00  0.00    -0.158 NA
ATOM      7  C   UNL     1      -0.706   2.701  25.206  0.00  0.00    +0.155 A 
ATOM      8  N   UNL     1      -0.078   2.169  25.270  0.00  0.00    -0.227 NA
ATOM      9  C   UNL     1      -0.228   1.362  25.351  0.00  0.00    +0.103 A 
ATOM     10  C   UNL     1      -1.004   1.086  25.368  0.00  0.00    +0.058 A 
ATOM     11  C   UNL     1      -1.632   1.617  25.304  0.00  0.00    +0.008 A 
ATOM     12  C   UNL     1      -1.483   2.425  25.223  0.00  0.00    +0.036 A 
BRANCH   4   3
ATOM      3  C   UNL     1      -1.035   4.846  24.980  0.00  0.00    +0.229 C 
BRANCH   3   2
ATOM      1  C   UNL     1      -1.590   6.162  24.929  0.00  0.00    +0.175 C 
ATOM      2  O   UNL     1      -1.593   5.396  25.238  0.00  0.00    -0.342 OA
ENDBRANCH   3   2
ENDBRANCH   4   3
ENDBRANCH  13  10
BRANCH  16  18
ATOM     18  C   UNL     1      -1.563  -1.696  24.747  0.00  0.00    +0.138 C 
ATOM     19  C   UNL     1      -0.996  -2.224  24.462  0.00  0.00    +0.027 C 
ATOM     20  C   UNL     1      -1.391  -2.840  24.081  0.00  0.00    +0.019 C 
ATOM     21  C   UNL     1      -2.201  -2.692  24.131  0.00  0.00    +0.073 C 
ATOM     22  N   UNL     1      -2.307  -1.985  24.542  0.00  0.00    -0.266 NA
BRANCH  22  23
ATOM     23  C   UNL     1      -3.030  -1.631  24.718  0.00  0.00    +0.072 C 
BRANCH  23  24
ATOM     24  C   UNL     1      -3.726  -1.922  24.382  0.00  0.00    +0.016 C 
ATOM     25  C   UNL     1      -4.147  -1.461  23.842  0.00  0.00    +0.001 C 
ATOM     26  C   UNL     1      -3.999  -2.673  24.585  0.00  0.00    +0.001 C 
ENDBRANCH  23  24
ENDBRANCH  22  23
ENDBRANCH  16  18
TORSDOF 6
ENDMDL
MODEL 7
REMARK VINA RESULT:      -7.7      1.549      2.489
REMARK  Name = 
REMARK  6 active torsions:
REMARK  status: ('A' for Active; 'I' for Inactive)
REMARK    1  A    between atoms: O_2  and  C_3
REMARK    2  A    between atoms: C_3  and  C_4
REMARK    3  A    between atoms: C_10  and  C_13
REMARK    4  A    between atoms: C_16  and  C_18
REMARK    5  A    between atoms: N_22  and  C_23
REMARK    6  A    between atoms: C_23  and  C_24
REMARK                            x       y       z     vdW  Elec       q    Type
REMARK                         _______ _______ _______ _____ _____    ______ ____
ROOT
ATOM     13  C   UNL     1      -2.620   2.464  23.923  0.00  0.00    +0.205 A 
ATOM     14  N   UNL     1      -3.097   2.648  23.276  0.00  0.00    -0.056 NA
ATOM     15  O   UNL     1      -3.806   2.958  23.562  0.00  0.00    -0.336 OA
ATOM     16  C   UNL     1      -3.767   2.965  24.387  0.00  0.00    +0.251 A 
ATOM     17  N   UNL     1      -3.034   2.660  24.610  0.00  0.00    -0.190 NA
ENDROOT
BRANCH  13  10
ATOM      4  C   UNL     1       0.530   0.430  23.439  0.00  0.00    +0.277 C 
ATOM      5  O   UNL     1      -0.109   0.015  23.127  0.00  0.00    -0.270 OA
ATOM      6  N   UNL     1       0.413   1.170  23.787  0.00  0.00    -0.158 NA
ATOM      7  C   UNL     1      -0.346   1.493  23.820  0.00  0.00    +0.155 A 
ATOM      8  N   UNL     1      -0.463   2.232  24.168  0.00  0.00    -0.227 NA
ATOM      9  C   UNL     1      -1.222   2.555  24.201  0.00  0.00    +0.103 A 
ATOM     10  C   UNL     1      -1.861   2.140  23.889  0.00  0.00    +0.058 A 
ATOM     11  C   UNL     1      -1.744   1.401  23.542  0.00  0.00    +0.008 A 
ATOM     12  C   UNL     1      -0.985   1.078  23.508  0.00  0.00    +0.036 A 
BRANCH   4   3
ATOM      3  C   UNL     1       1.289   0.107  23.406  0.00  0.00    +0.229 C 
BRANCH   3   2
ATOM      1  C   UNL     1       2.479  -0.081  22.637  0.00  0.00    +0.175 C 
ATOM      2  O   UNL     1       1.658  -0.001  22.676  0.00  0.00    -0.342 OA
ENDBRANCH   3   2
ENDBRANCH   4   3
ENDBRANCH  13  10
BRANCH  16  18
ATOM     18  C   UNL     1      -4.356   3.231  24.899  0.00  0.00    +0.138 C 
ATOM     19  C   UNL     1      -4.384   3.972  25.263  0.00  0.00    +0.027 C 
ATOM     20  C   UNL     1      -5.067   4.002  25.726  0.00  0.00    +0.019 C 
ATOM     21  C   UNL     1      -5.459   3.281  25.648  0.00  0.00    +0.073 C 
ATOM     22  N   UNL     1      -5.020   2.805  25.137  0.00  0.00    -0.266 NA
BRANCH  22  23
ATOM     23  C   UNL     1      -5.212   2.037  24.906  0.00  0.00    +0.072 C 
BRANCH  23  24
ATOM     24  C   UNL     1      -5.899   1.679  25.191  0.00  0.00    +0.016 C 
ATOM     25  C   UNL     1      -6.602   1.735  24.764  0.00  0.00    +0.001 C 
ATOM     26  C   UNL     1      -5.881   1.264  25.904  0.00  0.00    +0.001 C 
ENDBRANCH  23  24
ENDBRANCH  22  23
ENDBRANCH  16  18
TORSDOF 6
ENDMDL
MODEL 8
REMARK VINA RESULT:      -5.6     16.469     17.351
REMARK  Name = 
REMARK  6 active torsions:
REMARK  status: ('A' for Active; 'I' for Inactive)
REMARK    1  A    between atoms: O_2  and  C_3
REMARK    2  A    between atoms: C_3  and  C_4
REMARK    3  A    between atoms: C_10  and  C_13
REMARK    4  A    between atoms: C_16  and  C_18
REMARK    5  A    between atoms: N_22  and  C_23
REMARK    6  A    between atoms: C_23  and  C_24
REMARK                            x       y       z     vdW  Elec       q    Type
REMARK                         _______ _______ _______ _____ _____    ______ ____
ROOT
ATOM     13  C   UNL     1      -3.762 -10.112  10.808  0.00  0.00    +0.205 A 
ATOM     14  N   UNL     1      -3.701 -10.510  10.088  0.00  0.00    -0.056 NA
ATOM     15  O   UNL     1      -4.292 -10.225   9.589  0.00  0.00    -0.336 OA
ATOM     16  C   UNL     1      -4.719  -9.651  10.000  0.00  0.00    +0.251 A 
ATOM     17  N   UNL     1      -4.391  -9.581  10.754  0.00  0.00    -0.190 NA
ENDROOT
BRANCH  13  10
ATOM      4  C   UNL     1      -2.164 -10.661  14.191  0.00  0.00    +0.277 C 
ATOM      5  O   UNL     1      -2.983 -10.642  14.279  0.00  0.00    -0.270 OA
ATOM      6  N   UNL     1      -1.827 -10.566  13.443  0.00  0.00    -0.158 NA
ATOM      7  C   UNL     1      -2.311 -10.453  12.784  0.00  0.00    +0.155 A 
ATOM      8  N   UNL     1      -1.974 -10.358  12.036  0.00  0.00    -0.227 NA
ATOM      9  C   UNL     1      -2.459 -10.245  11.378  0.00  0.00    +0.103 A 
ATOM     10  C   UNL     1      -3.278 -10.226  11.467  0.00  0.00    +0.058 A 
ATOM     11  C   UNL     1      -3.614 -10.320  12.214  0.00  0.00    +0.008 A 
ATOM     12  C   UNL     1      -3.130 -10.434  12.873  0.00  0.00    +0.036 A 
BRANCH   4   3
ATOM      3  C   UNL     1      -1.680 -10.774  14.849  0.00  0.00    +0.229 C 
BRANCH   3   2
ATOM      1  C   UNL     1      -1.453 -10.621  16.251  0.00  0.00    +0.175 C 
ATOM      2  O   UNL     1      -1.882 -10.432  15.571  0.00  0.00    -0.342 OA
ENDBRANCH   3   2
ENDBRANCH   4   3
ENDBRANCH  13  10
BRANCH  16  18
ATOM     18  C   UNL     1      -5.361  -9.221   9.710  0.00  0.00    +0.138 C 
ATOM     19  C   UNL     1      -5.340  -8.441   9.440  0.00  0.00    +0.027 C 
ATOM     20  C   UNL     1      -6.102  -8.233   9.202  0.00  0.00    +0.019 C 
ATOM     21  C   UNL     1      -6.593  -8.885   9.324  0.00  0.00    +0.073 C 
ATOM     22  N   UNL     1      -6.135  -9.495   9.638  0.00  0.00    -0.266 NA
BRANCH  22  23
ATOM     23  C   UNL     1      -6.404 -10.246   9.844  0.00  0.00    +0.072 C 
BRANCH  23  24
ATOM     24  C   UNL     1      -7.202 -10.438   9.754  0.00  0.00    +0.016 C 
ATOM     25  C   UNL     1      -7.733 -10.290  10.367  0.00  0.00    +0.001 C 
ATOM     26  C   UNL     1      -7.467 -10.778   9.051  0.00  0.00    +0.001 C 
ENDBRANCH  23  24
ENDBRANCH  22  23
ENDBRANCH  16  18
TORSDOF 6
ENDMDL
MODEL 9
REMARK VINA RESULT:      -5.5     15.255     16.410
REMARK  Name = 
REMARK  6 active torsions:
REMARK  status: ('A' for Active; 'I' for Inactive)
REMARK    1  A    between atoms: O_2  and  C_3
REMARK    2  A    between atoms: C_3  and  C_4
REMARK    3  A    between atoms: C_10  and  C_13
REMARK    4  A    between atoms: C_16  and  C_18
REMARK    5  A    between atoms: N_22  and  C_23
REMARK    6  A    between atoms: C_23  and  C_24
REMARK                            x       y       z     vdW  Elec       q    Type
REMARK                         _______ _______ _______ _____ _____    ______ ____
ROOT
ATOM     13  C   UNL     1      -5.384 -10.208  13.052  0.00  0.00    +0.205 A 
ATOM     14  N   UNL     1      -5.706 -10.781  12.554  0.00  0.00    -0.056 NA
ATOM     15  O   UNL     1      -5.792 -10.447  11.805  0.00  0.00    -0.336 OA
ATOM     16  C   UNL     1      -5.523  -9.668  11.840  0.00  0.00    +0.251 A 
ATOM     17  N   UNL     1      -5.271  -9.520  12.611  0.00  0.00    -0.190 NA
ENDROOT
BRANCH  13  10
ATOM      4  C   UNL     1      -5.195 -10.324  16.827  0.00  0.00    +0.277 C 
ATOM      5  O   UNL     1      -5.894  -9.948  16.603  0.00  0.00    -0.270 OA
ATOM      6  N   UNL     1      -4.673 -10.602  16.251  0.00  0.00    -0.158 NA
ATOM      7  C   UNL     1      -4.851 -10.503  15.451  0.00  0.00    +0.155 A 
ATOM      8  N   UNL     1      -4.329 -10.781  14.875  0.00  0.00    -0.227 NA
ATOM      9  C   UNL     1      -4.507 -10.682  14.076  0.00  0.00    +0.103 A 
ATOM     10  C   UNL     1      -5.206 -10.307  13.852  0.00  0.00    +0.058 A 
ATOM     11  C   UNL     1      -5.728 -10.029  14.428  0.00  0.00    +0.008 A 
ATOM     12  C   UNL     1      -5.550 -10.128  15.228  0.00  0.00    +0.036 A 
BRANCH   4   3
ATOM      3  C   UNL     1      -5.017 -10.422  17.626  0.00  0.00    +0.229 C 
BRANCH   3   2
ATOM      1  C   UNL     1      -5.461 -10.581  18.975  0.00  0.00    +0.175 C 
ATOM      2  O   UNL     1      -5.619 -10.589  18.164  0.00  0.00    -0.342 OA
ENDBRANCH   3   2
ENDBRANCH   4   3
ENDBRANCH  13  10
BRANCH  16  18
ATOM     18  C   UNL     1      -5.509  -9.130  11.215  0.00  0.00    +0.138 C 
ATOM     19  C   UNL     1      -6.086  -8.562  11.051  0.00  0.00    +0.027 C 
ATOM     20  C   UNL     1      -5.850  -8.146  10.378  0.00  0.00    +0.019 C 
ATOM     21  C   UNL     1      -5.128  -8.457  10.127  0.00  0.00    +0.073 C 
ATOM     22  N   UNL     1      -4.918  -9.064  10.644  0.00  0.00    -0.266 NA
BRANCH  22  23
ATOM     23  C   UNL     1      -4.236  -9.525  10.598  0.00  0.00    +0.072 C 
BRANCH  23  24
ATOM     24  C   UNL     1      -3.673  -9.373  10.014  0.00  0.00    +0.016 C 
ATOM     25  C   UNL     1      -3.751  -9.714   9.267  0.00  0.00    +0.001 C 
ATOM     26  C   UNL     1      -3.033  -8.880  10.178  0.00  0.00    +0.001 C 
ENDBRANCH  23  24
ENDBRANCH  22  23
ENDBRANCH  16  18
TORSDOF 6
ENDMDL
MODEL 10
REMARK VINA RESULT:      -5.3     13.606     14.360
REMARK  Name = 
REMARK  6 active torsions:
REMARK  status: ('A' for Active; 'I' for Inactive)
REMARK    1  A    between atoms: O_2  and  C_3
REMARK    2  A    between atoms: C_3  and  C_4
REMARK    3  A    between atoms: C_10  and  C_13
REMARK    4  A    between atoms: C_16  and  C_18
REMARK    5  A    between atoms: N_22  and  C_23
REMARK    6  A    between atoms: C_23  and  C_24
REMARK                            x       y       z     vdW  Elec       q    Type
REMARK                         _______ _______ _______ _____ _____    ______ ____
ROOT
ATOM     13  C   UNL     1      -6.855 -10.372  16.416  0.00  0.00    +0.205 A 
ATOM     14  N   UNL     1      -7.267 -10.425  15.703  0.00  0.00    -0.056 NA
ATOM     15  O   UNL     1      -8.072 -10.358  15.869  0.00  0.00    -0.336 OA
ATOM     16  C   UNL     1      -8.158 -10.263  16.684  0.00  0.00    +0.251 A 
ATOM     17  N   UNL     1      -7.406 -10.272  17.023  0.00  0.00    -0.190 NA
ENDROOT
BRANCH  13  10
ATOM      4  C   UNL     1      -3.092 -10.575  16.112  0.00  0.00    +0.277 C 
ATOM      5  O   UNL     1      -3.424 -10.575  15.357  0.00  0.00    -0.270 OA
ATOM      6  N   UNL     1      -3.579 -10.534  16.777  0.00  0.00    -0.158 NA
ATOM      7  C   UNL     1      -4.398 -10.493  16.686  0.00  0.00    +0.155 A 
ATOM      8  N   UNL     1      -4.885 -10.452  17.352  0.00  0.00    -0.227 NA
ATOM      9  C   UNL     1      -5.704 -10.412  17.261  0.00  0.00    +0.103 A 
ATOM     10  C   UNL     1      -6.036 -10.413  16.506  0.00  0.00    +0.058 A 
ATOM     11  C   UNL     1      -5.549 -10.453  15.841  0.00  0.00    +0.008 A 
ATOM     12  C   UNL     1      -4.730 -10.494  15.932  0.00  0.00    +0.036 A 
BRANCH   4   3
ATOM      3  C   UNL     1      -2.273 -10.615  16.202  0.00  0.00    +0.229 C 
BRANCH   3   2
ATOM      1  C   UNL     1      -0.960 -10.295  15.739  0.00  0.00    +0.175 C 
ATOM      2  O   UNL     1      -1.780 -10.252  15.650  0.00  0.00    -0.342 OA
ENDBRANCH   3   2
ENDBRANCH   4   3
ENDBRANCH  13  10
BRANCH  16  18
ATOM     18  C   UNL     1      -8.871 -10.174  17.091  0.00  0.00    +0.138 C 
ATOM     19  C   UNL     1      -9.228 -10.743  17.571  0.00  0.00    +0.027 C 
ATOM     20  C   UNL     1      -9.930 -10.423  17.866  0.00  0.00    +0.019 C 
ATOM     21  C   UNL     1     -10.005  -9.657  17.567  0.00  0.00    +0.073 C 
ATOM     22  N   UNL     1      -9.351  -9.504  17.089  0.00  0.00    -0.266 NA
BRANCH  22  23
ATOM     23  C   UNL     1      -9.202  -8.804  16.680  0.00  0.00    +0.072 C 
BRANCH  23  24
ATOM     24  C   UNL     1      -9.762  -8.197  16.683  0.00  0.00    +0.016 C 
ATOM     25  C   UNL     1      -9.768  -7.645  17.296  0.00  0.00    +0.001 C 
ATOM     26  C   UNL     1     -10.316  -8.144  16.074  0.00  0.00    +0.001 C 
ENDBRANCH  23  24
ENDBRANCH  22  23
ENDBRANCH  16  18
TORSDOF 6
ENDMDL
