REMARK  Name = 
REMARK  8 active torsions:
REMARK  status: ('A' for Active; 'I' for Inactive)
REMARK    1  A    between atoms: C_6  and  C_7
REMARK    2  A    between atoms: C_12  and  N_13
REMARK    3  A    between atoms: N_16  and  C_17
REMARK    4  A    between atoms: C_25  and  C_26
REMARK    5  A    between atoms: N_28  and  C_29
REMARK    6  A    between atoms: C_29  and  C_30
REMARK    7  A    between atoms: C_29  and  C_36
REMARK    8  A    between atoms: C_30  and  C_31
REMARK                            x       y       z     vdW  Elec       q    Type
REMARK                         _______ _______ _______ _____ _____    ______ ____
ROOT
ATOM      7  C   UNL     1      -4.914  -4.321   0.000  0.00  0.00    +0.265 C 
ATOM      8  O   UNL     1      -5.085  -3.514   0.000  0.00  0.00    -0.268 OA
ATOM      9  N   UNL     1      -5.527  -4.873   0.000  0.00  0.00    -0.267 N 
ATOM     10  C   UNL     1      -5.441  -5.694   0.000  0.00  0.00    +0.096 C 
ATOM     11  C   UNL     1      -6.194  -6.029   0.000  0.00  0.00    +0.045 C 
ATOM     12  C   UNL     1      -6.746  -5.416   0.000  0.00  0.00    +0.126 C 
ATOM     25  C   UNL     1      -6.334  -4.702   0.000  0.00  0.00    +0.174 C 
ENDROOT
BRANCH   7   6
ATOM      1  C   UNL     1      -3.462  -3.266   0.000  0.00  0.00    +0.131 C 
ATOM      2  N   UNL     1      -3.462  -4.091   0.000  0.00  0.00    -0.320 N 
ATOM      3  C   UNL     1      -2.794  -4.576   0.000  0.00  0.00    +0.076 A 
ATOM      4  C   UNL     1      -3.049  -5.361   0.000  0.00  0.00    +0.020 A 
ATOM      5  C   UNL     1      -3.874  -5.361   0.000  0.00  0.00    +0.023 A 
ATOM      6  C   UNL     1      -4.129  -4.576   0.000  0.00  0.00    +0.114 A 
ENDBRANCH   7   6
BRANCH  12  13
ATOM     13  N   UNL     1      -7.567  -5.502   0.000  0.00  0.00    -0.186 NA
ATOM     14  C   UNL     1      -7.902  -6.256   0.000  0.00  0.00    +0.344 C 
ATOM     15  O   UNL     1      -7.417  -6.923   0.000  0.00  0.00    -0.249 OA
ATOM     16  N   UNL     1      -8.723  -6.342   0.000  0.00  0.00    -0.159 NA
BRANCH  16  17
ATOM     17  C   UNL     1      -9.058  -7.096   0.000  0.00  0.00    +0.102 A 
ATOM     18  C   UNL     1      -8.573  -7.763   0.000  0.00  0.00    +0.158 A 
ATOM     19  F   UNL     1      -7.753  -7.677   0.000  0.00  0.00    -0.203 F 
ATOM     20  C   UNL     1      -8.909  -8.517   0.000  0.00  0.00    +0.061 A 
ATOM     21  C   UNL     1      -9.729  -8.603   0.000  0.00  0.00    +0.142 A 
ATOM     22  F   UNL     1     -10.065  -9.357   0.000  0.00  0.00    -0.204 F 
ATOM     23  C   UNL     1     -10.214  -7.936   0.000  0.00  0.00    +0.031 A 
ATOM     24  C   UNL     1      -9.879  -7.182   0.000  0.00  0.00    +0.021 A 
ENDBRANCH  16  17
ENDBRANCH  12  13
BRANCH  25  26
ATOM     26  C   UNL     1      -6.669  -3.948   0.000  0.00  0.00    +0.262 C 
ATOM     27  O   UNL     1      -6.184  -3.280   0.000  0.00  0.00    -0.271 OA
ATOM     28  N   UNL     1      -7.490  -3.862   0.000  0.00  0.00    -0.196 NA
BRANCH  28  29
ATOM     29  C   UNL     1      -7.825  -3.108   0.000  0.00  0.00    +0.179 C 
BRANCH  29  36
ATOM     36  C   UNL     1      -7.340  -2.441   0.000  0.00  0.00    +0.281 C 
ATOM     37  N   UNL     1      -7.676  -1.687   0.000  0.00  0.00    -0.086 NA
ATOM     38  O   UNL     1      -6.520  -2.527   0.000  0.00  0.00    -0.270 OA
ENDBRANCH  29  36
BRANCH  29  30
ATOM     30  C   UNL     1      -8.646  -3.022   0.000  0.00  0.00    +0.064 C 
BRANCH  30  31
ATOM     31  C   UNL     1      -8.981  -2.268   0.000  0.00  0.00    +0.010 A 
ATOM     32  C   UNL     1      -9.788  -2.096   0.000  0.00  0.00    +0.003 A 
ATOM     33  C   UNL     1      -9.875  -1.276   0.000  0.00  0.00    +0.007 A 
ATOM     34  C   UNL     1      -9.121  -0.940   0.000  0.00  0.00    +0.035 A 
ATOM     35  S   UNL     1      -8.569  -1.554   0.000  0.00  0.00    -0.091 S 
ENDBRANCH  30  31
ENDBRANCH  29  30
ENDBRANCH  28  29
ENDBRANCH  25  26
TORSDOF 8
