MODEL 1
REMARK VINA RESULT:     -15.4      0.000      0.000
REMARK  Name = 
REMARK  5 active torsions:
REMARK  status: ('A' for Active; 'I' for Inactive)
REMARK    1  A    between atoms: C_4  and  C_5
REMARK    2  A    between atoms: C_5  and  N_6
REMARK    3  A    between atoms: C_15  and  C_20
REMARK    4  A    between atoms: C_21  and  C_22
REMARK    5  A    between atoms: C_22  and  N_23
REMARK                            x       y       z     vdW  Elec       q    Type
REMARK                         _______ _______ _______ _____ _____    ______ ____
ROOT
ATOM      6  N   UNL     1      -4.930   0.890  25.188  0.00  0.00    -0.269 NA
ATOM      7  C   UNL     1      -5.652   0.893  25.610  0.00  0.00    +0.074 C 
ATOM      8  C   UNL     1      -5.887   1.849  25.529  0.00  0.00    +0.039 C 
ATOM      9  C   UNL     1      -6.219   2.592  25.552  0.00  0.00    +0.011 C 
ATOM     10  C   UNL     1      -5.645   2.288  25.286  0.00  0.00    +0.054 C 
ATOM     11  C   UNL     1      -5.431   1.362  25.373  0.00  0.00    +0.078 C 
ATOM     12  C   UNL     1      -4.888   2.478  24.800  0.00  0.00    +0.041 A 
ATOM     13  C   UNL     1      -4.505   3.108  24.431  0.00  0.00    +0.013 A 
ATOM     14  C   UNL     1      -3.789   2.984  24.041  0.00  0.00    +0.006 A 
ATOM     15  C   UNL     1      -3.456   2.229  24.019  0.00  0.00    +0.056 A 
ATOM     16  C   UNL     1      -3.840   1.599  24.388  0.00  0.00    +0.261 A 
ATOM     17  O   UNL     1      -3.507   0.844  24.366  0.00  0.00    -0.267 OA
ATOM     18  N   UNL     1      -4.556   1.723  24.778  0.00  0.00    -0.299 N 
ATOM     19  C   UNL     1      -5.094   2.037  25.021  0.00  0.00    +0.110 C 
ENDROOT
BRANCH  15  20
ATOM     20  C   UNL     1      -2.741   2.106  23.629  0.00  0.00    +0.002 A 
ATOM     21  C   UNL     1      -2.032   2.330  23.987  0.00  0.00    -0.006 A 
ATOM     29  C   UNL     1      -1.315   2.207  23.597  0.00  0.00    -0.003 A 
ATOM     30  C   UNL     1      -1.308   1.860  22.849  0.00  0.00    -0.000 A 
ATOM     31  C   UNL     1      -2.016   1.635  22.490  0.00  0.00    -0.000 A 
ATOM     32  C   UNL     1      -2.733   1.758  22.881  0.00  0.00    -0.000 A 
BRANCH  21  22
ATOM     22  C   UNL     1      -2.040   2.678  24.734  0.00  0.00    +0.099 C 
BRANCH  22  23
ATOM     23  N   UNL     1      -1.330   2.828  25.127  0.00  0.00    -0.265 NA
ATOM     24  C   UNL     1      -0.950   3.554  25.030  0.00  0.00    +0.105 C 
ATOM     25  C   UNL     1      -0.240   3.705  25.423  0.00  0.00    +0.159 C 
ATOM     26  O   UNL     1       0.091   3.129  25.912  0.00  0.00    -0.351 OA
ATOM     27  C   UNL     1      -0.289   2.403  26.009  0.00  0.00    +0.159 C 
ATOM     28  C   UNL     1      -0.999   2.253  25.616  0.00  0.00    +0.105 C 
ENDBRANCH  22  23
ENDBRANCH  21  22
ENDBRANCH  15  20
BRANCH   6   5
ATOM      5  C   UNL     1      -4.237   0.595  24.850  0.00  0.00    +0.101 C 
BRANCH   5   4
ATOM      1  C   UNL     1      -2.952  -1.517  26.375  0.00  0.00    +0.130 C 
ATOM      2  N   UNL     1      -3.358  -1.114  25.780  0.00  0.00    -0.324 N 
ATOM      3  C   UNL     1      -3.542  -0.310  25.778  0.00  0.00    +0.073 A 
ATOM      4  C   UNL     1      -3.949  -0.143  25.079  0.00  0.00    +0.012 A 
ATOM     33  C   UNL     1      -4.016  -0.844  24.649  0.00  0.00    +0.015 A 
ATOM     34  C   UNL     1      -3.651  -1.444  25.083  0.00  0.00    +0.060 A 
ATOM     35  C   UNL     1      -3.632  -2.214  24.786  0.00  0.00    +0.017 A 
ATOM     36  C   UNL     1      -3.978  -2.384  24.057  0.00  0.00    +0.001 A 
ATOM     37  C   UNL     1      -4.343  -1.784  23.624  0.00  0.00    +0.000 A 
ATOM     38  C   UNL     1      -4.362  -1.014  23.920  0.00  0.00    +0.001 A 
ENDBRANCH   5   4
ENDBRANCH   6   5
TORSDOF 5
ENDMDL
MODEL 2
REMARK VINA RESULT:     -14.5      1.447      4.166
REMARK  Name = 
REMARK  5 active torsions:
REMARK  status: ('A' for Active; 'I' for Inactive)
REMARK    1  A    between atoms: C_4  and  C_5
REMARK    2  A    between atoms: C_5  and  N_6
REMARK    3  A    between atoms: C_15  and  C_20
REMARK    4  A    between atoms: C_21  and  C_22
REMARK    5  A    between atoms: C_22  and  N_23
REMARK                            x       y       z     vdW  Elec       q    Type
REMARK                         _______ _______ _______ _____ _____    ______ ____
ROOT
ATOM      6  N   UNL     1      -1.534  -0.342  24.910  0.00  0.00    -0.269 NA
ATOM      7  C   UNL     1      -1.252  -1.061  25.228  0.00  0.00    +0.074 C 
ATOM      8  C   UNL     1      -2.054  -1.624  25.100  0.00  0.00    +0.039 C 
ATOM      9  C   UNL     1      -2.620  -2.209  25.066  0.00  0.00    +0.011 C 
ATOM     10  C   UNL     1      -2.561  -1.534  24.886  0.00  0.00    +0.054 C 
ATOM     11  C   UNL     1      -1.778  -1.002  25.017  0.00  0.00    +0.078 C 
ATOM     12  C   UNL     1      -3.036  -0.845  24.505  0.00  0.00    +0.041 A 
ATOM     13  C   UNL     1      -3.777  -0.680  24.182  0.00  0.00    +0.013 A 
ATOM     14  C   UNL     1      -3.942   0.075  23.895  0.00  0.00    +0.006 A 
ATOM     15  C   UNL     1      -3.367   0.666  23.931  0.00  0.00    +0.056 A 
ATOM     16  C   UNL     1      -2.626   0.501  24.254  0.00  0.00    +0.261 A 
ATOM     17  O   UNL     1      -2.051   1.091  24.291  0.00  0.00    -0.267 OA
ATOM     18  N   UNL     1      -2.461  -0.255  24.541  0.00  0.00    -0.299 N 
ATOM     19  C   UNL     1      -2.543  -0.899  24.703  0.00  0.00    +0.110 C 
ENDROOT
BRANCH  15  20
ATOM     20  C   UNL     1      -3.533   1.421  23.644  0.00  0.00    +0.002 A 
ATOM     21  C   UNL     1      -4.036   1.920  24.067  0.00  0.00    -0.006 A 
ATOM     29  C   UNL     1      -4.203   2.676  23.780  0.00  0.00    -0.003 A 
ATOM     30  C   UNL     1      -3.867   2.932  23.072  0.00  0.00    -0.000 A 
ATOM     31  C   UNL     1      -3.364   2.432  22.649  0.00  0.00    -0.000 A 
ATOM     32  C   UNL     1      -3.198   1.676  22.936  0.00  0.00    -0.000 A 
BRANCH  21  22
ATOM     22  C   UNL     1      -4.372   1.665  24.775  0.00  0.00    +0.099 C 
BRANCH  22  23
ATOM     23  N   UNL     1      -4.859   2.172  25.208  0.00  0.00    -0.265 NA
ATOM     24  C   UNL     1      -4.527   2.778  25.658  0.00  0.00    +0.105 C 
ATOM     25  C   UNL     1      -5.013   3.285  26.090  0.00  0.00    +0.159 C 
ATOM     26  O   UNL     1      -5.832   3.185  26.072  0.00  0.00    -0.351 OA
ATOM     27  C   UNL     1      -6.164   2.579  25.622  0.00  0.00    +0.159 C 
ATOM     28  C   UNL     1      -5.677   2.072  25.190  0.00  0.00    +0.105 C 
ENDBRANCH  22  23
ENDBRANCH  21  22
ENDBRANCH  15  20
BRANCH   6   5
ATOM      5  C   UNL     1      -1.531   0.449  24.675  0.00  0.00    +0.101 C 
BRANCH   5   4
ATOM      1  C   UNL     1       1.083   1.412  23.852  0.00  0.00    +0.130 C 
ATOM      2  N   UNL     1       0.380   1.312  24.273  0.00  0.00    -0.324 N 
ATOM      3  C   UNL     1      -0.227   0.786  24.084  0.00  0.00    +0.073 A 
ATOM      4  C   UNL     1      -0.822   0.869  24.651  0.00  0.00    +0.012 A 
ATOM     33  C   UNL     1      -0.582   1.447  25.189  0.00  0.00    +0.015 A 
ATOM     34  C   UNL     1       0.161   1.720  24.955  0.00  0.00    +0.060 A 
ATOM     35  C   UNL     1       0.541   2.306  25.394  0.00  0.00    +0.017 A 
ATOM     36  C   UNL     1       0.180   2.619  26.066  0.00  0.00    +0.001 A 
ATOM     37  C   UNL     1      -0.563   2.346  26.299  0.00  0.00    +0.000 A 
ATOM     38  C   UNL     1      -0.943   1.760  25.861  0.00  0.00    +0.001 A 
ENDBRANCH   5   4
ENDBRANCH   6   5
TORSDOF 5
ENDMDL
MODEL 3
REMARK VINA RESULT:     -13.4      1.389      3.538
REMARK  Name = 
REMARK  5 active torsions:
REMARK  status: ('A' for Active; 'I' for Inactive)
REMARK    1  A    between atoms: C_4  and  C_5
REMARK    2  A    between atoms: C_5  and  N_6
REMARK    3  A    between atoms: C_15  and  C_20
REMARK    4  A    between atoms: C_21  and  C_22
REMARK    5  A    between atoms: C_22  and  N_23
REMARK                            x       y       z     vdW  Elec       q    Type
REMARK                         _______ _______ _______ _____ _____    ______ ____
ROOT
ATOM      6  N   UNL     1      -0.890   1.175  25.691  0.00  0.00    -0.269 NA
ATOM      7  C   UNL     1      -0.263   1.093  26.238  0.00  0.00    +0.074 C 
ATOM      8  C   UNL     1      -0.054   2.046  26.394  0.00  0.00    +0.039 C 
ATOM      9  C   UNL     1       0.238   2.770  26.628  0.00  0.00    +0.011 C 
ATOM     10  C   UNL     1      -0.262   2.525  26.200  0.00  0.00    +0.054 C 
ATOM     11  C   UNL     1      -0.452   1.600  26.060  0.00  0.00    +0.078 C 
ATOM     12  C   UNL     1      -0.918   2.809  25.623  0.00  0.00    +0.041 A 
ATOM     13  C   UNL     1      -1.248   3.500  25.318  0.00  0.00    +0.013 A 
ATOM     14  C   UNL     1      -1.871   3.457  24.778  0.00  0.00    +0.006 A 
ATOM     15  C   UNL     1      -2.163   2.722  24.544  0.00  0.00    +0.056 A 
ATOM     16  C   UNL     1      -1.834   2.031  24.849  0.00  0.00    +0.261 A 
ATOM     17  O   UNL     1      -2.126   1.296  24.614  0.00  0.00    -0.267 OA
ATOM     18  N   UNL     1      -1.211   2.074  25.388  0.00  0.00    -0.299 N 
ATOM     19  C   UNL     1      -0.742   2.332  25.789  0.00  0.00    +0.110 C 
ENDROOT
BRANCH  15  20
ATOM     20  C   UNL     1      -2.786   2.680  24.004  0.00  0.00    +0.002 A 
ATOM     21  C   UNL     1      -3.554   2.860  24.247  0.00  0.00    -0.006 A 
ATOM     29  C   UNL     1      -4.177   2.818  23.708  0.00  0.00    -0.003 A 
ATOM     30  C   UNL     1      -4.032   2.596  22.926  0.00  0.00    -0.000 A 
ATOM     31  C   UNL     1      -3.264   2.417  22.683  0.00  0.00    -0.000 A 
ATOM     32  C   UNL     1      -2.641   2.459  23.223  0.00  0.00    -0.000 A 
BRANCH  21  22
ATOM     22  C   UNL     1      -3.699   3.081  25.028  0.00  0.00    +0.099 C 
BRANCH  22  23
ATOM     23  N   UNL     1      -4.475   3.164  25.296  0.00  0.00    -0.265 NA
ATOM     24  C   UNL     1      -4.829   3.908  25.307  0.00  0.00    +0.105 C 
ATOM     25  C   UNL     1      -5.605   3.992  25.575  0.00  0.00    +0.159 C 
ATOM     26  O   UNL     1      -6.027   3.330  25.832  0.00  0.00    -0.351 OA
ATOM     27  C   UNL     1      -5.672   2.586  25.821  0.00  0.00    +0.159 C 
ATOM     28  C   UNL     1      -4.896   2.503  25.552  0.00  0.00    +0.105 C 
ENDBRANCH  22  23
ENDBRANCH  21  22
ENDBRANCH  15  20
BRANCH   6   5
ATOM      5  C   UNL     1      -1.493   0.955  25.173  0.00  0.00    +0.101 C 
BRANCH   5   4
ATOM      1  C   UNL     1      -1.025  -1.597  23.868  0.00  0.00    +0.130 C 
ATOM      2  N   UNL     1      -1.354  -1.006  24.340  0.00  0.00    -0.324 N 
ATOM      3  C   UNL     1      -1.076  -0.233  24.412  0.00  0.00    +0.073 A 
ATOM      4  C   UNL     1      -1.569   0.167  24.941  0.00  0.00    +0.012 A 
ATOM     33  C   UNL     1      -2.151  -0.360  25.195  0.00  0.00    +0.015 A 
ATOM     34  C   UNL     1      -2.018  -1.085  24.823  0.00  0.00    +0.060 A 
ATOM     35  C   UNL     1      -2.519  -1.723  24.974  0.00  0.00    +0.017 A 
ATOM     36  C   UNL     1      -3.153  -1.637  25.495  0.00  0.00    +0.001 A 
ATOM     37  C   UNL     1      -3.285  -0.911  25.865  0.00  0.00    +0.000 A 
ATOM     38  C   UNL     1      -2.785  -0.273  25.715  0.00  0.00    +0.001 A 
ENDBRANCH   5   4
ENDBRANCH   6   5
TORSDOF 5
ENDMDL
MODEL 4
REMARK VINA RESULT:     -12.9      1.236      3.973
REMARK  Name = 
REMARK  5 active torsions:
REMARK  status: ('A' for Active; 'I' for Inactive)
REMARK    1  A    between atoms: C_4  and  C_5
REMARK    2  A    between atoms: C_5  and  N_6
REMARK    3  A    between atoms: C_15  and  C_20
REMARK    4  A    between atoms: C_21  and  C_22
REMARK    5  A    between atoms: C_22  and  N_23
REMARK                            x       y       z     vdW  Elec       q    Type
REMARK                         _______ _______ _______ _____ _____    ______ ____
ROOT
ATOM      6  N   UNL     1      -3.388   3.584  25.640  0.00  0.00    -0.269 NA
ATOM      7  C   UNL     1      -3.739   4.081  26.212  0.00  0.00    +0.074 C 
ATOM      8  C   UNL     1      -4.689   3.845  26.076  0.00  0.00    +0.039 C 
ATOM      9  C   UNL     1      -5.499   3.764  26.088  0.00  0.00    +0.011 C 
ATOM     10  C   UNL     1      -4.956   3.494  25.735  0.00  0.00    +0.054 C 
ATOM     11  C   UNL     1      -4.042   3.733  25.879  0.00  0.00    +0.078 C 
ATOM     12  C   UNL     1      -4.756   2.892  25.070  0.00  0.00    +0.041 A 
ATOM     13  C   UNL     1      -5.121   2.364  24.553  0.00  0.00    +0.013 A 
ATOM     14  C   UNL     1      -4.666   1.921  24.026  0.00  0.00    +0.006 A 
ATOM     15  C   UNL     1      -3.845   2.006  24.017  0.00  0.00    +0.056 A 
ATOM     16  C   UNL     1      -3.480   2.534  24.535  0.00  0.00    +0.261 A 
ATOM     17  O   UNL     1      -2.659   2.619  24.526  0.00  0.00    -0.267 OA
ATOM     18  N   UNL     1      -3.935   2.977  25.061  0.00  0.00    -0.299 N 
ATOM     19  C   UNL     1      -4.470   3.218  25.383  0.00  0.00    +0.110 C 
ENDROOT
BRANCH  15  20
ATOM     20  C   UNL     1      -3.391   1.563  23.491  0.00  0.00    +0.002 A 
ATOM     21  C   UNL     1      -3.309   0.749  23.601  0.00  0.00    -0.006 A 
ATOM     29  C   UNL     1      -2.855   0.305  23.075  0.00  0.00    -0.003 A 
ATOM     30  C   UNL     1      -2.483   0.675  22.438  0.00  0.00    -0.000 A 
ATOM     31  C   UNL     1      -2.565   1.488  22.326  0.00  0.00    -0.000 A 
ATOM     32  C   UNL     1      -3.020   1.932  22.854  0.00  0.00    -0.000 A 
BRANCH  21  22
ATOM     22  C   UNL     1      -3.680   0.380  24.238  0.00  0.00    +0.099 C 
BRANCH  22  23
ATOM     23  N   UNL     1      -3.572  -0.428  24.367  0.00  0.00    -0.265 NA
ATOM     24  C   UNL     1      -2.952  -0.689  24.845  0.00  0.00    +0.105 C 
ATOM     25  C   UNL     1      -2.843  -1.497  24.974  0.00  0.00    +0.159 C 
ATOM     26  O   UNL     1      -3.354  -2.043  24.626  0.00  0.00    -0.351 OA
ATOM     27  C   UNL     1      -3.974  -1.781  24.149  0.00  0.00    +0.159 C 
ATOM     28  C   UNL     1      -4.083  -0.974  24.019  0.00  0.00    +0.105 C 
ENDBRANCH  22  23
ENDBRANCH  21  22
ENDBRANCH  15  20
BRANCH   6   5
ATOM      5  C   UNL     1      -2.795   3.228  25.190  0.00  0.00    +0.101 C 
BRANCH   5   4
ATOM      1  C   UNL     1      -0.513   4.976  24.781  0.00  0.00    +0.130 C 
ATOM      2  N   UNL     1      -0.980   4.337  25.013  0.00  0.00    -0.324 N 
ATOM      3  C   UNL     1      -1.788   4.253  24.875  0.00  0.00    +0.073 A 
ATOM      4  C   UNL     1      -2.029   3.533  25.201  0.00  0.00    +0.012 A 
ATOM     33  C   UNL     1      -1.369   3.174  25.541  0.00  0.00    +0.015 A 
ATOM     34  C   UNL     1      -0.720   3.671  25.424  0.00  0.00    +0.060 A 
ATOM     35  C   UNL     1       0.023   3.452  25.708  0.00  0.00    +0.017 A 
ATOM     36  C   UNL     1       0.119   2.737  26.107  0.00  0.00    +0.001 A 
ATOM     37  C   UNL     1      -0.530   2.240  26.224  0.00  0.00    +0.000 A 
ATOM     38  C   UNL     1      -1.273   2.459  25.940  0.00  0.00    +0.001 A 
ENDBRANCH   5   4
ENDBRANCH   6   5
TORSDOF 5
ENDMDL
MODEL 5
REMARK VINA RESULT:     -12.5      1.823      3.770
REMARK  Name = 
REMARK  5 active torsions:
REMARK  status: ('A' for Active; 'I' for Inactive)
REMARK    1  A    between atoms: C_4  and  C_5
REMARK    2  A    between atoms: C_5  and  N_6
REMARK    3  A    between atoms: C_15  and  C_20
REMARK    4  A    between atoms: C_21  and  C_22
REMARK    5  A    between atoms: C_22  and  N_23
REMARK                            x       y       z     vdW  Elec       q    Type
REMARK                         _______ _______ _______ _____ _____    ______ ____
ROOT
ATOM      6  N   UNL     1      -3.896  -0.426  24.311  0.00  0.00    -0.269 NA
ATOM      7  C   UNL     1      -4.530  -0.933  24.114  0.00  0.00    +0.074 C 
ATOM      8  C   UNL     1      -4.084  -1.807  24.229  0.00  0.00    +0.039 C 
ATOM      9  C   UNL     1      -3.868  -2.591  24.279  0.00  0.00    +0.011 C 
ATOM     10  C   UNL     1      -3.570  -1.963  24.378  0.00  0.00    +0.054 C 
ATOM     11  C   UNL     1      -4.015  -1.126  24.263  0.00  0.00    +0.078 C 
ATOM     12  C   UNL     1      -2.774  -1.574  24.620  0.00  0.00    +0.041 A 
ATOM     13  C   UNL     1      -2.005  -1.773  24.844  0.00  0.00    +0.013 A 
ATOM     14  C   UNL     1      -1.459  -1.179  25.016  0.00  0.00    +0.006 A 
ATOM     15  C   UNL     1      -1.682  -0.386  24.965  0.00  0.00    +0.056 A 
ATOM     16  C   UNL     1      -2.450  -0.187  24.742  0.00  0.00    +0.261 A 
ATOM     17  O   UNL     1      -2.673   0.606  24.691  0.00  0.00    -0.267 OA
ATOM     18  N   UNL     1      -2.996  -0.781  24.570  0.00  0.00    -0.299 N 
ATOM     19  C   UNL     1      -3.256  -1.391  24.481  0.00  0.00    +0.110 C 
ENDROOT
BRANCH  15  20
ATOM     20  C   UNL     1      -1.135   0.207  25.137  0.00  0.00    +0.002 A 
ATOM     21  C   UNL     1      -0.493   0.334  24.635  0.00  0.00    -0.006 A 
ATOM     29  C   UNL     1       0.055   0.927  24.807  0.00  0.00    -0.003 A 
ATOM     30  C   UNL     1      -0.041   1.393  25.480  0.00  0.00    -0.000 A 
ATOM     31  C   UNL     1      -0.683   1.267  25.983  0.00  0.00    -0.000 A 
ATOM     32  C   UNL     1      -1.231   0.674  25.810  0.00  0.00    -0.000 A 
BRANCH  21  22
ATOM     22  C   UNL     1      -0.397  -0.133  23.962  0.00  0.00    +0.099 C 
BRANCH  22  23
ATOM     23  N   UNL     1       0.300  -0.086  23.523  0.00  0.00    -0.265 NA
ATOM     24  C   UNL     1       0.957  -0.534  23.743  0.00  0.00    +0.105 C 
ATOM     25  C   UNL     1       1.654  -0.487  23.304  0.00  0.00    +0.159 C 
ATOM     26  O   UNL     1       1.694   0.008  22.645  0.00  0.00    -0.351 OA
ATOM     27  C   UNL     1       1.038   0.456  22.425  0.00  0.00    +0.159 C 
ATOM     28  C   UNL     1       0.341   0.409  22.864  0.00  0.00    +0.105 C 
ENDBRANCH  22  23
ENDBRANCH  21  22
ENDBRANCH  15  20
BRANCH   6   5
ATOM      5  C   UNL     1      -3.487   0.278  24.444  0.00  0.00    +0.101 C 
BRANCH   5   4
ATOM      1  C   UNL     1      -5.268   2.349  25.431  0.00  0.00    +0.130 C 
ATOM      2  N   UNL     1      -4.719   1.940  24.970  0.00  0.00    -0.324 N 
ATOM      3  C   UNL     1      -4.439   1.178  25.113  0.00  0.00    +0.073 A 
ATOM      4  C   UNL     1      -3.900   0.988  24.516  0.00  0.00    +0.012 A 
ATOM     33  C   UNL     1      -3.849   1.634  24.005  0.00  0.00    +0.015 A 
ATOM     34  C   UNL     1      -4.355   2.222  24.285  0.00  0.00    +0.060 A 
ATOM     35  C   UNL     1      -4.419   2.938  23.881  0.00  0.00    +0.017 A 
ATOM     36  C   UNL     1      -3.978   3.066  23.196  0.00  0.00    +0.001 A 
ATOM     37  C   UNL     1      -3.472   2.478  22.916  0.00  0.00    +0.000 A 
ATOM     38  C   UNL     1      -3.407   1.762  23.320  0.00  0.00    +0.001 A 
ENDBRANCH   5   4
ENDBRANCH   6   5
TORSDOF 5
ENDMDL
MODEL 6
REMARK VINA RESULT:     -12.1      1.654      3.241
REMARK  Name = 
REMARK  5 active torsions:
REMARK  status: ('A' for Active; 'I' for Inactive)
REMARK    1  A    between atoms: C_4  and  C_5
REMARK    2  A    between atoms: C_5  and  N_6
REMARK    3  A    between atoms: C_15  and  C_20
REMARK    4  A    between atoms: C_21  and  C_22
REMARK    5  A    between atoms: C_22  and  N_23
REMARK                            x       y       z     vdW  Elec       q    Type
REMARK                         _______ _______ _______ _____ _____    ______ ____
ROOT
ATOM      6  N   UNL     1      -1.089  -0.458  24.327  0.00  0.00    -0.269 NA
ATOM      7  C   UNL     1      -0.416  -0.951  24.358  0.00  0.00    +0.074 C 
ATOM      8  C   UNL     1       0.248  -0.351  23.939  0.00  0.00    +0.039 C 
ATOM      9  C   UNL     1       0.902   0.015  23.620  0.00  0.00    +0.011 C 
ATOM     10  C   UNL     1       0.226   0.166  23.732  0.00  0.00    +0.054 C 
ATOM     11  C   UNL     1      -0.404  -0.426  24.138  0.00  0.00    +0.078 C 
ATOM     12  C   UNL     1      -0.392   0.837  23.613  0.00  0.00    +0.041 A 
ATOM     13  C   UNL     1      -0.456   1.602  23.314  0.00  0.00    +0.013 A 
ATOM     14  C   UNL     1      -1.181   1.995  23.338  0.00  0.00    +0.006 A 
ATOM     15  C   UNL     1      -1.842   1.621  23.662  0.00  0.00    +0.056 A 
ATOM     16  C   UNL     1      -1.778   0.855  23.961  0.00  0.00    +0.261 A 
ATOM     17  O   UNL     1      -2.438   0.482  24.285  0.00  0.00    -0.267 OA
ATOM     18  N   UNL     1      -1.052   0.463  23.937  0.00  0.00    -0.299 N 
ATOM     19  C   UNL     1      -0.404   0.344  23.820  0.00  0.00    +0.110 C 
ENDROOT
BRANCH  15  20
ATOM     20  C   UNL     1      -2.567   2.014  23.685  0.00  0.00    +0.002 A 
ATOM     21  C   UNL     1      -2.680   2.637  24.214  0.00  0.00    -0.006 A 
ATOM     29  C   UNL     1      -3.405   3.031  24.238  0.00  0.00    -0.003 A 
ATOM     30  C   UNL     1      -4.016   2.801  23.734  0.00  0.00    -0.000 A 
ATOM     31  C   UNL     1      -3.903   2.178  23.206  0.00  0.00    -0.000 A 
ATOM     32  C   UNL     1      -3.178   1.784  23.181  0.00  0.00    -0.000 A 
BRANCH  21  22
ATOM     22  C   UNL     1      -2.069   2.867  24.718  0.00  0.00    +0.099 C 
BRANCH  22  23
ATOM     23  N   UNL     1      -2.149   3.546  25.180  0.00  0.00    -0.265 NA
ATOM     24  C   UNL     1      -2.565   3.515  25.891  0.00  0.00    +0.105 C 
ATOM     25  C   UNL     1      -2.644   4.194  26.353  0.00  0.00    +0.159 C 
ATOM     26  O   UNL     1      -2.309   4.905  26.103  0.00  0.00    -0.351 OA
ATOM     27  C   UNL     1      -1.893   4.936  25.392  0.00  0.00    +0.159 C 
ATOM     28  C   UNL     1      -1.813   4.257  24.930  0.00  0.00    +0.105 C 
ENDBRANCH  22  23
ENDBRANCH  21  22
ENDBRANCH  15  20
BRANCH   6   5
ATOM      5  C   UNL     1      -1.872  -0.218  24.429  0.00  0.00    +0.101 C 
BRANCH   5   4
ATOM      1  C   UNL     1      -3.251  -1.387  26.701  0.00  0.00    +0.130 C 
ATOM      2  N   UNL     1      -3.022  -1.211  25.929  0.00  0.00    -0.324 N 
ATOM      3  C   UNL     1      -2.433  -0.677  25.709  0.00  0.00    +0.073 A 
ATOM      4  C   UNL     1      -2.388  -0.673  24.884  0.00  0.00    +0.012 A 
ATOM     33  C   UNL     1      -2.949  -1.205  24.596  0.00  0.00    +0.015 A 
ATOM     34  C   UNL     1      -3.340  -1.537  25.242  0.00  0.00    +0.060 A 
ATOM     35  C   UNL     1      -3.937  -2.094  25.120  0.00  0.00    +0.017 A 
ATOM     36  C   UNL     1      -4.142  -2.319  24.354  0.00  0.00    +0.001 A 
ATOM     37  C   UNL     1      -3.750  -1.987  23.708  0.00  0.00    +0.000 A 
ATOM     38  C   UNL     1      -3.154  -1.430  23.829  0.00  0.00    +0.001 A 
ENDBRANCH   5   4
ENDBRANCH   6   5
TORSDOF 5
ENDMDL
MODEL 7
REMARK VINA RESULT:     -12.1      1.462      4.147
REMARK  Name = 
REMARK  5 active torsions:
REMARK  status: ('A' for Active; 'I' for Inactive)
REMARK    1  A    between atoms: C_4  and  C_5
REMARK    2  A    between atoms: C_5  and  N_6
REMARK    3  A    between atoms: C_15  and  C_20
REMARK    4  A    between atoms: C_21  and  C_22
REMARK    5  A    between atoms: C_22  and  N_23
REMARK                            x       y       z     vdW  Elec       q    Type
REMARK                         _______ _______ _______ _____ _____    ______ ____
ROOT
ATOM      6  N   UNL     1      -3.335   2.426  23.461  0.00  0.00    -0.269 NA
ATOM      7  C   UNL     1      -3.582   2.871  22.799  0.00  0.00    +0.074 C 
ATOM      8  C   UNL     1      -2.948   2.527  22.123  0.00  0.00    +0.039 C 
ATOM      9  C   UNL     1      -2.506   2.352  21.462  0.00  0.00    +0.011 C 
ATOM     10  C   UNL     1      -2.536   2.152  22.134  0.00  0.00    +0.054 C 
ATOM     11  C   UNL     1      -3.155   2.494  22.776  0.00  0.00    +0.078 C 
ATOM     12  C   UNL     1      -2.133   1.587  22.737  0.00  0.00    +0.041 A 
ATOM     13  C   UNL     1      -1.530   1.027  22.785  0.00  0.00    +0.013 A 
ATOM     14  C   UNL     1      -1.376   0.647  23.501  0.00  0.00    +0.006 A 
ATOM     15  C   UNL     1      -1.825   0.828  24.169  0.00  0.00    +0.056 A 
ATOM     16  C   UNL     1      -2.429   1.388  24.121  0.00  0.00    +0.261 A 
ATOM     17  O   UNL     1      -2.879   1.568  24.788  0.00  0.00    -0.267 OA
ATOM     18  N   UNL     1      -2.583   1.767  23.404  0.00  0.00    -0.299 N 
ATOM     19  C   UNL     1      -2.534   1.940  22.760  0.00  0.00    +0.110 C 
ENDROOT
BRANCH  15  20
ATOM     20  C   UNL     1      -1.671   0.448  24.884  0.00  0.00    +0.002 A 
ATOM     21  C   UNL     1      -1.932  -0.326  25.005  0.00  0.00    -0.006 A 
ATOM     29  C   UNL     1      -1.778  -0.706  25.720  0.00  0.00    -0.003 A 
ATOM     30  C   UNL     1      -1.363  -0.314  26.315  0.00  0.00    -0.000 A 
ATOM     31  C   UNL     1      -1.101   0.460  26.195  0.00  0.00    -0.000 A 
ATOM     32  C   UNL     1      -1.256   0.840  25.479  0.00  0.00    -0.000 A 
BRANCH  21  22
ATOM     22  C   UNL     1      -2.347  -0.718  24.410  0.00  0.00    +0.099 C 
BRANCH  22  23
ATOM     23  N   UNL     1      -2.640  -1.478  24.544  0.00  0.00    -0.265 NA
ATOM     24  C   UNL     1      -2.166  -2.135  24.390  0.00  0.00    +0.105 C 
ATOM     25  C   UNL     1      -2.459  -2.895  24.523  0.00  0.00    +0.159 C 
ATOM     26  O   UNL     1      -3.225  -2.998  24.811  0.00  0.00    -0.351 OA
ATOM     27  C   UNL     1      -3.699  -2.340  24.966  0.00  0.00    +0.159 C 
ATOM     28  C   UNL     1      -3.406  -1.580  24.832  0.00  0.00    +0.105 C 
ENDBRANCH  22  23
ENDBRANCH  21  22
ENDBRANCH  15  20
BRANCH   6   5
ATOM      5  C   UNL     1      -3.317   2.148  24.238  0.00  0.00    +0.101 C 
BRANCH   5   4
ATOM      1  C   UNL     1      -4.119   4.020  26.308  0.00  0.00    +0.130 C 
ATOM      2  N   UNL     1      -4.124   3.391  25.775  0.00  0.00    -0.324 N 
ATOM      3  C   UNL     1      -3.518   3.196  25.250  0.00  0.00    +0.073 A 
ATOM      4  C   UNL     1      -3.755   2.529  24.823  0.00  0.00    +0.012 A 
ATOM     33  C   UNL     1      -4.506   2.313  25.086  0.00  0.00    +0.015 A 
ATOM     34  C   UNL     1      -4.734   2.845  25.674  0.00  0.00    +0.060 A 
ATOM     35  C   UNL     1      -5.468   2.764  26.041  0.00  0.00    +0.017 A 
ATOM     36  C   UNL     1      -5.975   2.152  25.821  0.00  0.00    +0.001 A 
ATOM     37  C   UNL     1      -5.747   1.620  25.233  0.00  0.00    +0.000 A 
ATOM     38  C   UNL     1      -5.013   1.700  24.866  0.00  0.00    +0.001 A 
ENDBRANCH   5   4
ENDBRANCH   6   5
TORSDOF 5
ENDMDL
MODEL 8
REMARK VINA RESULT:     -11.9      1.763      5.201
REMARK  Name = 
REMARK  5 active torsions:
REMARK  status: ('A' for Active; 'I' for Inactive)
REMARK    1  A    between atoms: C_4  and  C_5
REMARK    2  A    between atoms: C_5  and  N_6
REMARK    3  A    between atoms: C_15  and  C_20
REMARK    4  A    between atoms: C_21  and  C_22
REMARK    5  A    between atoms: C_22  and  N_23
REMARK                            x       y       z     vdW  Elec       q    Type
REMARK                         _______ _______ _______ _____ _____    ______ ____
ROOT
ATOM      6  N   UNL     1      -0.653   1.161  24.018  0.00  0.00    -0.269 NA
ATOM      7  C   UNL     1      -0.065   1.471  23.512  0.00  0.00    +0.074 C 
ATOM      8  C   UNL     1       0.459   0.651  23.344  0.00  0.00    +0.039 C 
ATOM      9  C   UNL     1       0.987   0.076  23.110  0.00  0.00    +0.011 C 
ATOM     10  C   UNL     1       0.414   0.121  23.514  0.00  0.00    +0.054 C 
ATOM     11  C   UNL     1      -0.082   0.923  23.666  0.00  0.00    +0.078 C 
ATOM     12  C   UNL     1      -0.135  -0.390  24.044  0.00  0.00    +0.041 A 
ATOM     13  C   UNL     1      -0.228  -1.165  24.311  0.00  0.00    +0.013 A 
ATOM     14  C   UNL     1      -0.854  -1.355  24.814  0.00  0.00    +0.006 A 
ATOM     15  C   UNL     1      -1.387  -0.771  25.049  0.00  0.00    +0.056 A 
ATOM     16  C   UNL     1      -1.294   0.004  24.781  0.00  0.00    +0.261 A 
ATOM     17  O   UNL     1      -1.828   0.588  25.017  0.00  0.00    -0.267 OA
ATOM     18  N   UNL     1      -0.669   0.194  24.279  0.00  0.00    -0.299 N 
ATOM     19  C   UNL     1      -0.121   0.125  23.900  0.00  0.00    +0.110 C 
ENDROOT
BRANCH  15  20
ATOM     20  C   UNL     1      -2.013  -0.962  25.551  0.00  0.00    +0.002 A 
ATOM     21  C   UNL     1      -2.665  -1.373  25.258  0.00  0.00    -0.006 A 
ATOM     29  C   UNL     1      -3.291  -1.565  25.760  0.00  0.00    -0.003 A 
ATOM     30  C   UNL     1      -3.265  -1.345  26.555  0.00  0.00    -0.000 A 
ATOM     31  C   UNL     1      -2.612  -0.934  26.848  0.00  0.00    -0.000 A 
ATOM     32  C   UNL     1      -1.986  -0.743  26.346  0.00  0.00    -0.000 A 
BRANCH  21  22
ATOM     22  C   UNL     1      -2.692  -1.592  24.464  0.00  0.00    +0.099 C 
BRANCH  22  23
ATOM     23  N   UNL     1      -3.361  -1.971  24.163  0.00  0.00    -0.265 NA
ATOM     24  C   UNL     1      -3.410  -2.794  24.178  0.00  0.00    +0.105 C 
ATOM     25  C   UNL     1      -4.078  -3.173  23.876  0.00  0.00    +0.159 C 
ATOM     26  O   UNL     1      -4.697  -2.729  23.560  0.00  0.00    -0.351 OA
ATOM     27  C   UNL     1      -4.648  -1.906  23.545  0.00  0.00    +0.159 C 
ATOM     28  C   UNL     1      -3.979  -1.527  23.846  0.00  0.00    +0.105 C 
ENDBRANCH  22  23
ENDBRANCH  21  22
ENDBRANCH  15  20
BRANCH   6   5
ATOM      5  C   UNL     1      -1.319   1.145  24.505  0.00  0.00    +0.101 C 
BRANCH   5   4
ATOM      1  C   UNL     1      -1.878   3.623  25.913  0.00  0.00    +0.130 C 
ATOM      2  N   UNL     1      -1.932   2.990  25.386  0.00  0.00    -0.324 N 
ATOM      3  C   UNL     1      -1.413   2.351  25.341  0.00  0.00    +0.073 A 
ATOM      4  C   UNL     1      -1.676   1.851  24.739  0.00  0.00    +0.012 A 
ATOM     33  C   UNL     1      -2.358   2.181  24.413  0.00  0.00    +0.015 A 
ATOM     34  C   UNL     1      -2.516   2.885  24.813  0.00  0.00    +0.060 A 
ATOM     35  C   UNL     1      -3.172   3.340  24.604  0.00  0.00    +0.017 A 
ATOM     36  C   UNL     1      -3.669   3.092  23.994  0.00  0.00    +0.001 A 
ATOM     37  C   UNL     1      -3.510   2.388  23.594  0.00  0.00    +0.000 A 
ATOM     38  C   UNL     1      -2.855   1.933  23.803  0.00  0.00    +0.001 A 
ENDBRANCH   5   4
ENDBRANCH   6   5
TORSDOF 5
ENDMDL
