MODEL 1
REMARK VINA RESULT:     -11.7      0.000      0.000
REMARK  Name = 
REMARK  5 active torsions:
REMARK  status: ('A' for Active; 'I' for Inactive)
REMARK    1  A    between atoms: N_4  and  C_5
REMARK    2  A    between atoms: C_8  and  C_9
REMARK    3  A    between atoms: C_9  and  N_10
REMARK    4  A    between atoms: C_15  and  C_16
REMARK    5  A    between atoms: C_18  and  C_21
REMARK                            x       y       z     vdW  Elec       q    Type
REMARK                         _______ _______ _______ _____ _____    ______ ____
ROOT
ATOM     10  N   UNL     1      -4.666   1.632  25.043  0.00  0.00    -0.260 NA
ATOM     11  C   UNL     1      -5.302   1.208  25.354  0.00  0.00    +0.105 C 
ATOM     12  C   UNL     1      -5.937   1.608  25.697  0.00  0.00    +0.160 C 
ATOM     13  O   UNL     1      -5.936   2.433  25.728  0.00  0.00    -0.350 OA
ATOM     14  C   UNL     1      -5.301   2.857  25.416  0.00  0.00    +0.166 C 
ATOM     15  C   UNL     1      -4.666   2.457  25.074  0.00  0.00    +0.147 C 
ENDROOT
BRANCH  15  16
ATOM     16  C   UNL     1      -4.030   2.881  24.762  0.00  0.00    +0.156 A 
ATOM     17  N   UNL     1      -3.368   3.139  25.180  0.00  0.00    -0.228 NA
ATOM     18  C   UNL     1      -2.874   3.539  24.654  0.00  0.00    +0.102 A 
ATOM     19  C   UNL     1      -3.232   3.529  23.911  0.00  0.00    +0.119 A 
ATOM     20  N   UNL     1      -3.947   3.122  23.977  0.00  0.00    -0.226 NA
BRANCH  18  21
ATOM     21  C   UNL     1      -2.150   3.888  24.839  0.00  0.00    +0.022 A 
ATOM     22  C   UNL     1      -1.459   3.439  24.817  0.00  0.00    +0.022 A 
ATOM     23  C   UNL     1      -0.734   3.788  25.002  0.00  0.00    +0.099 A 
ATOM     24  N   UNL     1      -0.701   4.586  25.208  0.00  0.00    -0.242 NA
ATOM     25  C   UNL     1      -1.393   5.036  25.229  0.00  0.00    +0.099 A 
ATOM     26  C   UNL     1      -2.118   4.686  25.044  0.00  0.00    +0.022 A 
ENDBRANCH  18  21
ENDBRANCH  15  16
BRANCH  10   9
ATOM      9  C   UNL     1      -4.032   1.231  24.700  0.00  0.00    +0.100 C 
BRANCH   9   8
ATOM      5  C   UNL     1      -3.939  -1.240  24.778  0.00  0.00    +0.073 A 
ATOM      6  C   UNL     1      -4.256  -0.860  24.117  0.00  0.00    +0.016 A 
ATOM      7  C   UNL     1      -4.286  -0.036  24.092  0.00  0.00    -0.002 A 
ATOM      8  C   UNL     1      -4.001   0.408  24.726  0.00  0.00    -0.006 A 
ATOM     27  C   UNL     1      -3.684   0.028  25.386  0.00  0.00    -0.002 A 
ATOM     28  C   UNL     1      -3.653  -0.797  25.412  0.00  0.00    +0.016 A 
BRANCH   5   4
ATOM      1  C   UNL     1      -3.195  -3.283  24.585  0.00  0.00    +0.097 C 
ATOM      2  C   UNL     1      -3.226  -2.459  24.559  0.00  0.00    +0.246 C 
ATOM      3  O   UNL     1      -2.575  -2.030  24.290  0.00  0.00    -0.273 OA
ATOM      4  N   UNL     1      -3.909  -2.064  24.804  0.00  0.00    -0.179 NA
ENDBRANCH   5   4
ENDBRANCH   9   8
ENDBRANCH  10   9
TORSDOF 5
ENDMDL
MODEL 2
REMARK VINA RESULT:     -11.0      2.301      3.275
REMARK  Name = 
REMARK  5 active torsions:
REMARK  status: ('A' for Active; 'I' for Inactive)
REMARK    1  A    between atoms: N_4  and  C_5
REMARK    2  A    between atoms: C_8  and  C_9
REMARK    3  A    between atoms: C_9  and  N_10
REMARK    4  A    between atoms: C_15  and  C_16
REMARK    5  A    between atoms: C_18  and  C_21
REMARK                            x       y       z     vdW  Elec       q    Type
REMARK                         _______ _______ _______ _____ _____    ______ ____
ROOT
ATOM     10  N   UNL     1      -0.595   0.583  24.583  0.00  0.00    -0.260 NA
ATOM     11  C   UNL     1      -0.429  -0.093  24.140  0.00  0.00    +0.105 C 
ATOM     12  C   UNL     1       0.216  -0.101  23.625  0.00  0.00    +0.160 C 
ATOM     13  O   UNL     1       0.694   0.567  23.553  0.00  0.00    -0.350 OA
ATOM     14  C   UNL     1       0.529   1.243  23.996  0.00  0.00    +0.166 C 
ATOM     15  C   UNL     1      -0.115   1.251  24.510  0.00  0.00    +0.147 C 
ENDROOT
BRANCH  15  16
ATOM     16  C   UNL     1      -0.281   1.928  24.953  0.00  0.00    +0.156 A 
ATOM     17  N   UNL     1      -0.730   2.572  24.703  0.00  0.00    -0.228 NA
ATOM     18  C   UNL     1      -0.753   3.121  25.319  0.00  0.00    +0.102 A 
ATOM     19  C   UNL     1      -0.318   2.815  25.950  0.00  0.00    +0.119 A 
ATOM     20  N   UNL     1      -0.025   2.077  25.723  0.00  0.00    -0.226 NA
BRANCH  18  21
ATOM     21  C   UNL     1      -1.144   3.848  25.307  0.00  0.00    +0.022 A 
ATOM     22  C   UNL     1      -0.771   4.510  24.986  0.00  0.00    +0.022 A 
ATOM     23  C   UNL     1      -1.161   5.237  24.974  0.00  0.00    +0.099 A 
ATOM     24  N   UNL     1      -1.922   5.302  25.283  0.00  0.00    -0.242 NA
ATOM     25  C   UNL     1      -2.296   4.639  25.604  0.00  0.00    +0.099 A 
ATOM     26  C   UNL     1      -1.905   3.912  25.616  0.00  0.00    +0.022 A 
ENDBRANCH  18  21
ENDBRANCH  15  16
BRANCH  10   9
ATOM      9  C   UNL     1      -1.239   0.591  25.098  0.00  0.00    +0.100 C 
BRANCH   9   8
ATOM      5  C   UNL     1      -2.920  -1.223  25.007  0.00  0.00    +0.073 A 
ATOM      6  C   UNL     1      -2.978  -0.580  24.492  0.00  0.00    +0.016 A 
ATOM      7  C   UNL     1      -2.418   0.025  24.523  0.00  0.00    -0.002 A 
ATOM      8  C   UNL     1      -1.799  -0.013  25.068  0.00  0.00    -0.006 A 
ATOM     27  C   UNL     1      -1.741  -0.655  25.581  0.00  0.00    -0.002 A 
ATOM     28  C   UNL     1      -2.302  -1.261  25.551  0.00  0.00    +0.016 A 
BRANCH   5   4
ATOM      1  C   UNL     1      -3.885  -3.117  24.512  0.00  0.00    +0.097 C 
ATOM      2  C   UNL     1      -3.324  -2.512  24.543  0.00  0.00    +0.246 C 
ATOM      3  O   UNL     1      -2.608  -2.593  24.142  0.00  0.00    -0.273 OA
ATOM      4  N   UNL     1      -3.481  -1.827  24.976  0.00  0.00    -0.179 NA
ENDBRANCH   5   4
ENDBRANCH   9   8
ENDBRANCH  10   9
TORSDOF 5
ENDMDL
MODEL 3
REMARK VINA RESULT:     -10.8      1.338      4.942
REMARK  Name = 
REMARK  5 active torsions:
REMARK  status: ('A' for Active; 'I' for Inactive)
REMARK    1  A    between atoms: N_4  and  C_5
REMARK    2  A    between atoms: C_8  and  C_9
REMARK    3  A    between atoms: C_9  and  N_10
REMARK    4  A    between atoms: C_15  and  C_16
REMARK    5  A    between atoms: C_18  and  C_21
REMARK                            x       y       z     vdW  Elec       q    Type
REMARK                         _______ _______ _______ _____ _____    ______ ____
ROOT
ATOM     10  N   UNL     1      -4.378   2.138  25.168  0.00  0.00    -0.260 NA
ATOM     11  C   UNL     1      -4.717   2.817  25.491  0.00  0.00    +0.105 C 
ATOM     12  C   UNL     1      -5.522   2.830  25.674  0.00  0.00    +0.160 C 
ATOM     13  O   UNL     1      -5.987   2.163  25.533  0.00  0.00    -0.350 OA
ATOM     14  C   UNL     1      -5.647   1.484  25.210  0.00  0.00    +0.166 C 
ATOM     15  C   UNL     1      -4.844   1.471  25.028  0.00  0.00    +0.147 C 
ENDROOT
BRANCH  15  16
ATOM     16  C   UNL     1      -4.504   0.791  24.705  0.00  0.00    +0.156 A 
ATOM     17  N   UNL     1      -4.392   0.074  25.095  0.00  0.00    -0.228 NA
ATOM     18  C   UNL     1      -4.036  -0.450  24.566  0.00  0.00    +0.102 A 
ATOM     19  C   UNL     1      -3.928  -0.056  23.850  0.00  0.00    +0.119 A 
ATOM     20  N   UNL     1      -4.218   0.712  23.935  0.00  0.00    -0.226 NA
BRANCH  18  21
ATOM     21  C   UNL     1      -3.824  -1.232  24.726  0.00  0.00    +0.022 A 
ATOM     22  C   UNL     1      -3.996  -1.825  24.180  0.00  0.00    +0.022 A 
ATOM     23  C   UNL     1      -3.785  -2.607  24.340  0.00  0.00    +0.099 A 
ATOM     24  N   UNL     1      -3.402  -2.794  25.045  0.00  0.00    -0.242 NA
ATOM     25  C   UNL     1      -3.230  -2.201  25.592  0.00  0.00    +0.099 A 
ATOM     26  C   UNL     1      -3.441  -1.419  25.432  0.00  0.00    +0.022 A 
ENDBRANCH  18  21
ENDBRANCH  15  16
BRANCH  10   9
ATOM      9  C   UNL     1      -3.573   2.126  24.986  0.00  0.00    +0.100 C 
BRANCH   9   8
ATOM      5  C   UNL     1      -2.234   4.201  25.149  0.00  0.00    +0.073 A 
ATOM      6  C   UNL     1      -2.710   4.068  24.488  0.00  0.00    +0.016 A 
ATOM      7  C   UNL     1      -3.156   3.376  24.434  0.00  0.00    -0.002 A 
ATOM      8  C   UNL     1      -3.127   2.817  25.040  0.00  0.00    -0.006 A 
ATOM     27  C   UNL     1      -2.651   2.950  25.700  0.00  0.00    -0.002 A 
ATOM     28  C   UNL     1      -2.205   3.642  25.755  0.00  0.00    +0.016 A 
BRANCH   5   4
ATOM      1  C   UNL     1      -0.575   5.604  24.953  0.00  0.00    +0.097 C 
ATOM      2  C   UNL     1      -1.021   4.913  24.899  0.00  0.00    +0.246 C 
ATOM      3  O   UNL     1      -0.700   4.241  24.542  0.00  0.00    -0.273 OA
ATOM      4  N   UNL     1      -1.788   4.892  25.203  0.00  0.00    -0.179 NA
ENDBRANCH   5   4
ENDBRANCH   9   8
ENDBRANCH  10   9
TORSDOF 5
ENDMDL
MODEL 4
REMARK VINA RESULT:     -10.8      2.315      5.849
REMARK  Name = 
REMARK  5 active torsions:
REMARK  status: ('A' for Active; 'I' for Inactive)
REMARK    1  A    between atoms: N_4  and  C_5
REMARK    2  A    between atoms: C_8  and  C_9
REMARK    3  A    between atoms: C_9  and  N_10
REMARK    4  A    between atoms: C_15  and  C_16
REMARK    5  A    between atoms: C_18  and  C_21
REMARK                            x       y       z     vdW  Elec       q    Type
REMARK                         _______ _______ _______ _____ _____    ______ ____
ROOT
ATOM     10  N   UNL     1      -0.672   0.896  24.637  0.00  0.00    -0.260 NA
ATOM     11  C   UNL     1      -0.095   1.424  24.376  0.00  0.00    +0.105 C 
ATOM     12  C   UNL     1       0.523   1.157  23.897  0.00  0.00    +0.160 C 
ATOM     13  O   UNL     1       0.563   0.362  23.681  0.00  0.00    -0.350 OA
ATOM     14  C   UNL     1      -0.015  -0.166  23.942  0.00  0.00    +0.166 C 
ATOM     15  C   UNL     1      -0.631   0.101  24.420  0.00  0.00    +0.147 C 
ENDROOT
BRANCH  15  16
ATOM     16  C   UNL     1      -1.209  -0.428  24.682  0.00  0.00    +0.156 A 
ATOM     17  N   UNL     1      -1.844  -0.710  24.238  0.00  0.00    -0.228 NA
ATOM     18  C   UNL     1      -2.280  -1.224  24.715  0.00  0.00    +0.102 A 
ATOM     19  C   UNL     1      -1.914  -1.258  25.453  0.00  0.00    +0.119 A 
ATOM     20  N   UNL     1      -1.252  -0.766  25.433  0.00  0.00    -0.226 NA
BRANCH  18  21
ATOM     21  C   UNL     1      -2.962  -1.631  24.492  0.00  0.00    +0.022 A 
ATOM     22  C   UNL     1      -3.631  -1.213  24.251  0.00  0.00    +0.022 A 
ATOM     23  C   UNL     1      -4.314  -1.621  24.028  0.00  0.00    +0.099 A 
ATOM     24  N   UNL     1      -4.327  -2.445  24.047  0.00  0.00    -0.242 NA
ATOM     25  C   UNL     1      -3.657  -2.863  24.288  0.00  0.00    +0.099 A 
ATOM     26  C   UNL     1      -2.975  -2.455  24.511  0.00  0.00    +0.022 A 
ENDBRANCH  18  21
ENDBRANCH  15  16
BRANCH  10   9
ATOM      9  C   UNL     1      -1.289   1.163  25.115  0.00  0.00    +0.100 C 
BRANCH   9   8
ATOM      5  C   UNL     1      -1.732   3.589  25.326  0.00  0.00    +0.073 A 
ATOM      6  C   UNL     1      -1.221   3.215  25.856  0.00  0.00    +0.016 A 
ATOM      7  C   UNL     1      -1.074   2.406  25.785  0.00  0.00    -0.002 A 
ATOM      8  C   UNL     1      -1.437   1.971  25.185  0.00  0.00    -0.006 A 
ATOM     27  C   UNL     1      -1.947   2.345  24.656  0.00  0.00    -0.002 A 
ATOM     28  C   UNL     1      -2.095   3.154  24.726  0.00  0.00    +0.016 A 
BRANCH   5   4
ATOM      1  C   UNL     1      -1.509   5.750  25.126  0.00  0.00    +0.097 C 
ATOM      2  C   UNL     1      -1.362   4.942  25.055  0.00  0.00    +0.246 C 
ATOM      3  O   UNL     1      -0.698   4.677  24.642  0.00  0.00    -0.273 OA
ATOM      4  N   UNL     1      -1.879   4.397  25.397  0.00  0.00    -0.179 NA
ENDBRANCH   5   4
ENDBRANCH   9   8
ENDBRANCH  10   9
TORSDOF 5
ENDMDL
MODEL 5
REMARK VINA RESULT:      -9.6      1.913      5.237
REMARK  Name = 
REMARK  5 active torsions:
REMARK  status: ('A' for Active; 'I' for Inactive)
REMARK    1  A    between atoms: N_4  and  C_5
REMARK    2  A    between atoms: C_8  and  C_9
REMARK    3  A    between atoms: C_9  and  N_10
REMARK    4  A    between atoms: C_15  and  C_16
REMARK    5  A    between atoms: C_18  and  C_21
REMARK                            x       y       z     vdW  Elec       q    Type
REMARK                         _______ _______ _______ _____ _____    ______ ____
ROOT
ATOM     10  N   UNL     1      -1.650   1.715  24.676  0.00  0.00    -0.260 NA
ATOM     11  C   UNL     1      -1.455   2.460  24.378  0.00  0.00    +0.105 C 
ATOM     12  C   UNL     1      -0.714   2.587  24.038  0.00  0.00    +0.160 C 
ATOM     13  O   UNL     1      -0.168   1.970  23.997  0.00  0.00    -0.350 OA
ATOM     14  C   UNL     1      -0.363   1.226  24.295  0.00  0.00    +0.166 C 
ATOM     15  C   UNL     1      -1.103   1.099  24.634  0.00  0.00    +0.147 C 
ENDROOT
BRANCH  15  16
ATOM     16  C   UNL     1      -1.299   0.354  24.933  0.00  0.00    +0.156 A 
ATOM     17  N   UNL     1      -1.748  -0.220  24.547  0.00  0.00    -0.228 NA
ATOM     18  C   UNL     1      -1.805  -0.876  25.045  0.00  0.00    +0.102 A 
ATOM     19  C   UNL     1      -1.391  -0.707  25.738  0.00  0.00    +0.119 A 
ATOM     20  N   UNL     1      -1.077   0.054  25.669  0.00  0.00    -0.226 NA
BRANCH  18  21
ATOM     21  C   UNL     1      -2.207  -1.577  24.879  0.00  0.00    +0.022 A 
ATOM     22  C   UNL     1      -1.814  -2.196  24.501  0.00  0.00    +0.022 A 
ATOM     23  C   UNL     1      -2.216  -2.898  24.335  0.00  0.00    +0.099 A 
ATOM     24  N   UNL     1      -3.008  -2.980  24.547  0.00  0.00    -0.242 NA
ATOM     25  C   UNL     1      -3.401  -2.360  24.925  0.00  0.00    +0.099 A 
ATOM     26  C   UNL     1      -2.999  -1.659  25.091  0.00  0.00    +0.022 A 
ENDBRANCH  18  21
ENDBRANCH  15  16
BRANCH  10   9
ATOM      9  C   UNL     1      -2.391   1.589  25.016  0.00  0.00    +0.100 C 
BRANCH   9   8
ATOM      5  C   UNL     1      -4.072   3.405  25.037  0.00  0.00    +0.073 A 
ATOM      6  C   UNL     1      -4.091   2.832  24.443  0.00  0.00    +0.016 A 
ATOM      7  C   UNL     1      -3.531   2.226  24.437  0.00  0.00    -0.002 A 
ATOM      8  C   UNL     1      -2.951   2.194  25.023  0.00  0.00    -0.006 A 
ATOM     27  C   UNL     1      -2.932   2.766  25.616  0.00  0.00    -0.002 A 
ATOM     28  C   UNL     1      -3.493   3.372  25.624  0.00  0.00    +0.016 A 
BRANCH   5   4
ATOM      1  C   UNL     1      -5.904   4.514  25.457  0.00  0.00    +0.097 C 
ATOM      2  C   UNL     1      -5.344   3.909  25.451  0.00  0.00    +0.246 C 
ATOM      3  O   UNL     1      -5.493   3.203  25.851  0.00  0.00    -0.273 OA
ATOM      4  N   UNL     1      -4.632   4.010  25.044  0.00  0.00    -0.179 NA
ENDBRANCH   5   4
ENDBRANCH   9   8
ENDBRANCH  10   9
TORSDOF 5
ENDMDL
MODEL 6
REMARK VINA RESULT:      -9.4      2.076      3.496
REMARK  Name = 
REMARK  5 active torsions:
REMARK  status: ('A' for Active; 'I' for Inactive)
REMARK    1  A    between atoms: N_4  and  C_5
REMARK    2  A    between atoms: C_8  and  C_9
REMARK    3  A    between atoms: C_9  and  N_10
REMARK    4  A    between atoms: C_15  and  C_16
REMARK    5  A    between atoms: C_18  and  C_21
REMARK                            x       y       z     vdW  Elec       q    Type
REMARK                         _______ _______ _______ _____ _____    ______ ____
ROOT
ATOM     10  N   UNL     1      -1.387   2.297  25.022  0.00  0.00    -0.260 NA
ATOM     11  C   UNL     1      -0.603   2.253  25.273  0.00  0.00    +0.105 C 
ATOM     12  C   UNL     1      -0.238   2.915  25.607  0.00  0.00    +0.160 C 
ATOM     13  O   UNL     1      -0.659   3.619  25.688  0.00  0.00    -0.350 OA
ATOM     14  C   UNL     1      -1.443   3.664  25.437  0.00  0.00    +0.166 C 
ATOM     15  C   UNL     1      -1.807   3.003  25.104  0.00  0.00    +0.147 C 
ENDROOT
BRANCH  15  16
ATOM     16  C   UNL     1      -2.593   3.047  24.853  0.00  0.00    +0.156 A 
ATOM     17  N   UNL     1      -3.252   2.798  25.279  0.00  0.00    -0.228 NA
ATOM     18  C   UNL     1      -3.923   2.946  24.821  0.00  0.00    +0.102 A 
ATOM     19  C   UNL     1      -3.676   3.286  24.111  0.00  0.00    +0.119 A 
ATOM     20  N   UNL     1      -2.853   3.349  24.130  0.00  0.00    -0.226 NA
BRANCH  18  21
ATOM     21  C   UNL     1      -4.703   2.781  25.034  0.00  0.00    +0.022 A 
ATOM     22  C   UNL     1      -5.109   3.296  25.534  0.00  0.00    +0.022 A 
ATOM     23  C   UNL     1      -5.890   3.132  25.748  0.00  0.00    +0.099 A 
ATOM     24  N   UNL     1      -6.262   2.454  25.463  0.00  0.00    -0.242 NA
ATOM     25  C   UNL     1      -5.855   1.939  24.962  0.00  0.00    +0.099 A 
ATOM     26  C   UNL     1      -5.074   2.103  24.748  0.00  0.00    +0.022 A 
ENDBRANCH  18  21
ENDBRANCH  15  16
BRANCH  10   9
ATOM      9  C   UNL     1      -1.751   1.636  24.689  0.00  0.00    +0.100 C 
BRANCH   9   8
ATOM      5  C   UNL     1      -0.779  -0.614  25.024  0.00  0.00    +0.073 A 
ATOM      6  C   UNL     1      -0.617  -0.194  24.332  0.00  0.00    +0.016 A 
ATOM      7  C   UNL     1      -0.942   0.556  24.221  0.00  0.00    -0.002 A 
ATOM      8  C   UNL     1      -1.427   0.886  24.801  0.00  0.00    -0.006 A 
ATOM     27  C   UNL     1      -1.589   0.466  25.491  0.00  0.00    -0.002 A 
ATOM     28  C   UNL     1      -1.265  -0.284  25.604  0.00  0.00    +0.016 A 
BRANCH   5   4
ATOM      1  C   UNL     1      -0.561  -2.786  25.034  0.00  0.00    +0.097 C 
ATOM      2  C   UNL     1      -0.885  -2.036  24.922  0.00  0.00    +0.246 C 
ATOM      3  O   UNL     1      -1.640  -1.956  24.598  0.00  0.00    -0.273 OA
ATOM      4  N   UNL     1      -0.454  -1.364  25.135  0.00  0.00    -0.179 NA
ENDBRANCH   5   4
ENDBRANCH   9   8
ENDBRANCH  10   9
TORSDOF 5
ENDMDL
MODEL 7
REMARK VINA RESULT:      -9.1      2.445      4.311
REMARK  Name = 
REMARK  5 active torsions:
REMARK  status: ('A' for Active; 'I' for Inactive)
REMARK    1  A    between atoms: N_4  and  C_5
REMARK    2  A    between atoms: C_8  and  C_9
REMARK    3  A    between atoms: C_9  and  N_10
REMARK    4  A    between atoms: C_15  and  C_16
REMARK    5  A    between atoms: C_18  and  C_21
REMARK                            x       y       z     vdW  Elec       q    Type
REMARK                         _______ _______ _______ _____ _____    ______ ____
ROOT
ATOM     10  N   UNL     1      -1.787   3.769  25.260  0.00  0.00    -0.260 NA
ATOM     11  C   UNL     1      -2.202   4.482  25.263  0.00  0.00    +0.105 C 
ATOM     12  C   UNL     1      -1.808   5.190  25.107  0.00  0.00    +0.160 C 
ATOM     13  O   UNL     1      -0.999   5.185  24.948  0.00  0.00    -0.350 OA
ATOM     14  C   UNL     1      -0.583   4.472  24.945  0.00  0.00    +0.166 C 
ATOM     15  C   UNL     1      -0.977   3.765  25.100  0.00  0.00    +0.147 C 
ENDROOT
BRANCH  15  16
ATOM     16  C   UNL     1      -0.561   3.051  25.097  0.00  0.00    +0.156 A 
ATOM     17  N   UNL     1      -0.490   2.536  24.458  0.00  0.00    -0.228 NA
ATOM     18  C   UNL     1      -0.029   1.895  24.698  0.00  0.00    +0.102 A 
ATOM     19  C   UNL     1       0.184   2.015  25.486  0.00  0.00    +0.119 A 
ATOM     20  N   UNL     1      -0.145   2.730  25.733  0.00  0.00    -0.226 NA
BRANCH  18  21
ATOM     21  C   UNL     1       0.182   1.247  24.232  0.00  0.00    +0.022 A 
ATOM     22  C   UNL     1       0.839   1.294  23.735  0.00  0.00    +0.022 A 
ATOM     23  C   UNL     1       1.050   0.646  23.269  0.00  0.00    +0.099 A 
ATOM     24  N   UNL     1       0.605  -0.047  23.300  0.00  0.00    -0.242 NA
ATOM     25  C   UNL     1      -0.052  -0.094  23.798  0.00  0.00    +0.099 A 
ATOM     26  C   UNL     1      -0.263   0.554  24.264  0.00  0.00    +0.022 A 
ENDBRANCH  18  21
ENDBRANCH  15  16
BRANCH  10   9
ATOM      9  C   UNL     1      -2.182   3.061  25.415  0.00  0.00    +0.100 C 
BRANCH   9   8
ATOM      5  C   UNL     1      -4.636   2.922  25.129  0.00  0.00    +0.073 A 
ATOM      6  C   UNL     1      -4.135   2.722  24.503  0.00  0.00    +0.016 A 
ATOM      7  C   UNL     1      -3.317   2.769  24.600  0.00  0.00    -0.002 A 
ATOM      8  C   UNL     1      -2.999   3.015  25.320  0.00  0.00    -0.006 A 
ATOM     27  C   UNL     1      -3.499   3.215  25.944  0.00  0.00    -0.002 A 
ATOM     28  C   UNL     1      -4.318   3.168  25.849  0.00  0.00    +0.016 A 
BRANCH   5   4
ATOM      1  C   UNL     1      -6.654   2.101  25.010  0.00  0.00    +0.097 C 
ATOM      2  C   UNL     1      -5.836   2.147  25.106  0.00  0.00    +0.246 C 
ATOM      3  O   UNL     1      -5.401   1.467  25.275  0.00  0.00    -0.273 OA
ATOM      4  N   UNL     1      -5.454   2.875  25.033  0.00  0.00    -0.179 NA
ENDBRANCH   5   4
ENDBRANCH   9   8
ENDBRANCH  10   9
TORSDOF 5
ENDMDL
MODEL 8
REMARK VINA RESULT:      -9.1      2.284      4.347
REMARK  Name = 
REMARK  5 active torsions:
REMARK  status: ('A' for Active; 'I' for Inactive)
REMARK    1  A    between atoms: N_4  and  C_5
REMARK    2  A    between atoms: C_8  and  C_9
REMARK    3  A    between atoms: C_9  and  N_10
REMARK    4  A    between atoms: C_15  and  C_16
REMARK    5  A    between atoms: C_18  and  C_21
REMARK                            x       y       z     vdW  Elec       q    Type
REMARK                         _______ _______ _______ _____ _____    ______ ____
ROOT
ATOM     10  N   UNL     1      -3.370  -0.726  24.506  0.00  0.00    -0.260 NA
ATOM     11  C   UNL     1      -4.153  -0.954  24.384  0.00  0.00    +0.105 C 
ATOM     12  C   UNL     1      -4.327  -1.732  24.168  0.00  0.00    +0.160 C 
ATOM     13  O   UNL     1      -3.717  -2.280  24.075  0.00  0.00    -0.350 OA
ATOM     14  C   UNL     1      -2.934  -2.051  24.197  0.00  0.00    +0.166 C 
ATOM     15  C   UNL     1      -2.761  -1.274  24.412  0.00  0.00    +0.147 C 
ENDROOT
BRANCH  15  16
ATOM     16  C   UNL     1      -1.976  -1.045  24.534  0.00  0.00    +0.156 A 
ATOM     17  N   UNL     1      -1.513  -0.609  24.011  0.00  0.00    -0.228 NA
ATOM     18  C   UNL     1      -0.769  -0.507  24.355  0.00  0.00    +0.102 A 
ATOM     19  C   UNL     1      -0.774  -0.881  25.090  0.00  0.00    +0.119 A 
ATOM     20  N   UNL     1      -1.521  -1.214  25.201  0.00  0.00    -0.226 NA
BRANCH  18  21
ATOM     21  C   UNL     1      -0.132  -0.101  24.021  0.00  0.00    +0.022 A 
ATOM     22  C   UNL     1       0.008   0.685  24.227  0.00  0.00    +0.022 A 
ATOM     23  C   UNL     1       0.646   1.090  23.894  0.00  0.00    +0.099 A 
ATOM     24  N   UNL     1       1.141   0.710  23.356  0.00  0.00    -0.242 NA
ATOM     25  C   UNL     1       1.000  -0.077  23.150  0.00  0.00    +0.099 A 
ATOM     26  C   UNL     1       0.363  -0.483  23.483  0.00  0.00    +0.022 A 
ENDBRANCH  18  21
ENDBRANCH  15  16
BRANCH  10   9
ATOM      9  C   UNL     1      -3.196   0.052  24.722  0.00  0.00    +0.100 C 
BRANCH   9   8
ATOM      5  C   UNL     1      -5.018   1.710  24.952  0.00  0.00    +0.073 A 
ATOM      6  C   UNL     1      -4.504   1.749  24.308  0.00  0.00    +0.016 A 
ATOM      7  C   UNL     1      -3.897   1.196  24.232  0.00  0.00    -0.002 A 
ATOM      8  C   UNL     1      -3.803   0.604  24.799  0.00  0.00    -0.006 A 
ATOM     27  C   UNL     1      -4.317   0.566  25.442  0.00  0.00    -0.002 A 
ATOM     28  C   UNL     1      -4.925   1.118  25.520  0.00  0.00    +0.016 A 
BRANCH   5   4
ATOM      1  C   UNL     1      -6.108   3.508  25.538  0.00  0.00    +0.097 C 
ATOM      2  C   UNL     1      -5.501   2.955  25.462  0.00  0.00    +0.246 C 
ATOM      3  O   UNL     1      -4.770   3.092  25.819  0.00  0.00    -0.273 OA
ATOM      4  N   UNL     1      -5.626   2.263  25.029  0.00  0.00    -0.179 NA
ENDBRANCH   5   4
ENDBRANCH   9   8
ENDBRANCH  10   9
TORSDOF 5
ENDMDL
