REMARK  Name = 
REMARK  5 active torsions:
REMARK  status: ('A' for Active; 'I' for Inactive)
REMARK    1  A    between atoms: C_2  and  N_3
REMARK    2  A    between atoms: N_3  and  C_4
REMARK    3  A    between atoms: C_6  and  C_8
REMARK    4  A    between atoms: C_8  and  C_9
REMARK    5  A    between atoms: C_9  and  C_10
REMARK                            x       y       z     vdW  Elec       q    Type
REMARK                         _______ _______ _______ _____ _____    ______ ____
ROOT
ATOM     10  C   UNL     1       5.163  -3.717   0.000  0.00  0.00    +0.080 C 
ATOM     11  C   UNL     1       5.986  -3.655   0.000  0.00  0.00    +0.131 C 
ATOM     12  N   UNL     1       6.547  -4.260   0.000  0.00  0.00    -0.203 NA
ATOM     13  C   UNL     1       6.424  -5.075   0.000  0.00  0.00    +0.259 C 
ATOM     14  O   UNL     1       7.106  -5.540   0.000  0.00  0.00    -0.272 OA
ATOM     15  C   UNL     1       5.710  -5.488   0.000  0.00  0.00    +0.165 C 
ATOM     16  N   UNL     1       5.660  -6.311   0.000  0.00  0.00    -0.209 NA
ATOM     17  C   UNL     1       4.862  -6.519   0.000  0.00  0.00    +0.091 C 
ATOM     18  C   UNL     1       4.418  -5.824   0.000  0.00  0.00    +0.037 C 
ATOM     19  C   UNL     1       4.942  -5.187   0.000  0.00  0.00    +0.084 C 
ATOM     20  N   UNL     1       4.699  -4.398   0.000  0.00  0.00    -0.271 NA
ATOM     21  C   UNL     1       3.883  -4.275   0.000  0.00  0.00    +0.090 C 
ENDROOT
BRANCH  10   9
ATOM      9  C   UNL     1       4.751  -3.002   0.000  0.00  0.00    +0.027 C 
BRANCH   9   8
ATOM      8  C   UNL     1       3.926  -3.002   0.000  0.00  0.00    +0.087 C 
BRANCH   8   6
ATOM      3  N   UNL     1       2.688  -2.288   0.000  0.00  0.00    -0.280 N 
ATOM      6  C   UNL     1       3.513  -2.288   0.000  0.00  0.00    +0.226 C 
ATOM      7  O   UNL     1       3.926  -1.573   0.000  0.00  0.00    -0.275 OA
BRANCH   3   2
ATOM      1  C   UNL     1       1.451  -1.573   0.000  0.00  0.00    +0.023 C 
ATOM      2  C   UNL     1       2.276  -1.573   0.000  0.00  0.00    +0.093 C 
ENDBRANCH   3   2
BRANCH   3   4
ATOM      4  C   UNL     1       2.276  -3.002   0.000  0.00  0.00    +0.093 C 
ATOM      5  C   UNL     1       1.451  -3.002   0.000  0.00  0.00    +0.023 C 
ENDBRANCH   3   4
ENDBRANCH   8   6
ENDBRANCH   9   8
ENDBRANCH  10   9
TORSDOF 5
