MODEL 1
REMARK VINA RESULT:     -15.0      0.000      0.000
REMARK  Name = 
REMARK  3 active torsions:
REMARK  status: ('A' for Active; 'I' for Inactive)
REMARK    1  A    between atoms: S_2  and  N_5
REMARK    2  A    between atoms: C_14  and  C_15
REMARK    3  A    between atoms: C_16  and  C_17
REMARK                            x       y       z     vdW  Elec       q    Type
REMARK                         _______ _______ _______ _____ _____    ______ ____
ROOT
ATOM      5  N   UNL     1      -3.362   3.149  24.496  0.00  0.00    -0.159 NA
ATOM      6  C   UNL     1      -3.532   3.958  24.613  0.00  0.00    +0.097 C 
ATOM      7  C   UNL     1      -4.418   3.880  25.045  0.00  0.00    +0.041 C 
ATOM      8  C   UNL     1      -5.141   3.985  25.404  0.00  0.00    +0.011 C 
ATOM      9  C   UNL     1      -4.743   3.450  25.186  0.00  0.00    +0.056 C 
ATOM     10  C   UNL     1      -3.888   3.542  24.771  0.00  0.00    +0.101 C 
ATOM     11  C   UNL     1      -4.731   2.532  25.142  0.00  0.00    +0.041 A 
ATOM     12  C   UNL     1      -5.189   1.875  25.339  0.00  0.00    +0.013 A 
ATOM     13  C   UNL     1      -4.914   1.115  25.172  0.00  0.00    +0.006 A 
ATOM     14  C   UNL     1      -4.181   1.012  24.808  0.00  0.00    +0.056 A 
ATOM     24  C   UNL     1      -3.723   1.669  24.611  0.00  0.00    +0.261 A 
ATOM     25  O   UNL     1      -2.990   1.566  24.246  0.00  0.00    -0.267 OA
ATOM     26  N   UNL     1      -3.998   2.429  24.778  0.00  0.00    -0.299 N 
ATOM     27  C   UNL     1      -4.396   2.921  24.994  0.00  0.00    +0.110 C 
ENDROOT
BRANCH   5   2
ATOM      1  C   UNL     1      -2.515   2.498  24.967  0.00  0.00    +0.196 C 
ATOM      2  S   UNL     1      -2.944   2.476  24.262  0.00  0.00    +0.046 S 
ATOM      3  O   UNL     1      -3.373   2.454  23.558  0.00  0.00    -0.157 OA
ATOM      4  O   UNL     1      -2.526   1.804  24.029  0.00  0.00    -0.157 OA
ENDBRANCH   5   2
BRANCH  14  15
ATOM     15  C   UNL     1      -3.907   0.253  24.641  0.00  0.00    +0.005 C 
ATOM     16  C   UNL     1      -4.329  -0.405  24.905  0.00  0.00    +0.000 C 
BRANCH  16  17
ATOM     17  C   UNL     1      -4.054  -1.166  24.738  0.00  0.00    +0.000 A 
ATOM     18  C   UNL     1      -3.566  -1.555  25.278  0.00  0.00    +0.001 A 
ATOM     19  C   UNL     1      -3.291  -2.316  25.111  0.00  0.00    +0.011 A 
ATOM     20  C   UNL     1      -3.505  -2.685  24.404  0.00  0.00    +0.058 A 
ATOM     21 CL   UNL     1      -3.230  -3.445  24.237  0.00  0.00    -0.082 Cl
ATOM     22  C   UNL     1      -3.992  -2.295  23.866  0.00  0.00    +0.011 A 
ATOM     23  C   UNL     1      -4.267  -1.536  24.032  0.00  0.00    +0.001 A 
ENDBRANCH  16  17
ENDBRANCH  14  15
TORSDOF 3
ENDMDL
MODEL 2
REMARK VINA RESULT:     -14.2      2.479      4.717
REMARK  Name = 
REMARK  3 active torsions:
REMARK  status: ('A' for Active; 'I' for Inactive)
REMARK    1  A    between atoms: S_2  and  N_5
REMARK    2  A    between atoms: C_14  and  C_15
REMARK    3  A    between atoms: C_16  and  C_17
REMARK                            x       y       z     vdW  Elec       q    Type
REMARK                         _______ _______ _______ _____ _____    ______ ____
ROOT
ATOM      5  N   UNL     1      -2.705  -1.656  25.066  0.00  0.00    -0.159 NA
ATOM      6  C   UNL     1      -2.969  -2.432  24.907  0.00  0.00    +0.097 C 
ATOM      7  C   UNL     1      -3.739  -2.229  24.322  0.00  0.00    +0.041 C 
ATOM      8  C   UNL     1      -4.392  -2.231  23.835  0.00  0.00    +0.011 C 
ATOM      9  C   UNL     1      -3.966  -1.758  24.130  0.00  0.00    +0.056 C 
ATOM     10  C   UNL     1      -3.225  -1.970  24.693  0.00  0.00    +0.101 C 
ATOM     11  C   UNL     1      -3.827  -0.851  24.190  0.00  0.00    +0.041 A 
ATOM     12  C   UNL     1      -4.140  -0.136  23.922  0.00  0.00    +0.013 A 
ATOM     13  C   UNL     1      -3.791   0.576  24.147  0.00  0.00    +0.006 A 
ATOM     14  C   UNL     1      -3.130   0.574  24.641  0.00  0.00    +0.056 A 
ATOM     24  C   UNL     1      -2.817  -0.140  24.909  0.00  0.00    +0.261 A 
ATOM     25  O   UNL     1      -2.156  -0.142  25.402  0.00  0.00    -0.267 OA
ATOM     26  N   UNL     1      -3.166  -0.853  24.683  0.00  0.00    -0.299 N 
ATOM     27  C   UNL     1      -3.586  -1.284  24.390  0.00  0.00    +0.110 C 
ENDROOT
BRANCH   5   2
ATOM      1  C   UNL     1      -1.698  -1.146  24.769  0.00  0.00    +0.196 C 
ATOM      2  S   UNL     1      -2.243  -1.049  25.381  0.00  0.00    +0.046 S 
ATOM      3  O   UNL     1      -2.788  -0.952  25.994  0.00  0.00    -0.157 OA
ATOM      4  O   UNL     1      -1.780  -0.443  25.697  0.00  0.00    -0.157 OA
ENDBRANCH   5   2
BRANCH  14  15
ATOM     15  C   UNL     1      -2.782   1.287  24.866  0.00  0.00    +0.005 C 
ATOM     16  C   UNL     1      -3.065   1.999  24.562  0.00  0.00    +0.000 C 
BRANCH  16  17
ATOM     17  C   UNL     1      -2.717   2.713  24.788  0.00  0.00    +0.000 A 
ATOM     18  C   UNL     1      -3.107   3.214  25.314  0.00  0.00    +0.001 A 
ATOM     19  C   UNL     1      -2.758   3.928  25.540  0.00  0.00    +0.011 A 
ATOM     20  C   UNL     1      -2.019   4.138  25.238  0.00  0.00    +0.058 A 
ATOM     21 CL   UNL     1      -1.671   4.851  25.464  0.00  0.00    -0.082 Cl
ATOM     22  C   UNL     1      -1.630   3.637  24.712  0.00  0.00    +0.011 A 
ATOM     23  C   UNL     1      -1.978   2.924  24.487  0.00  0.00    +0.001 A 
ENDBRANCH  16  17
ENDBRANCH  14  15
TORSDOF 3
ENDMDL
