REMARK  Name = 
REMARK  8 active torsions:
REMARK  status: ('A' for Active; 'I' for Inactive)
REMARK    1  A    between atoms: O_2  and  C_3
REMARK    2  A    between atoms: C_3  and  C_4
REMARK    3  A    between atoms: C_4  and  C_5
REMARK    4  A    between atoms: N_7  and  C_8
REMARK    5  A    between atoms: C_15  and  C_16
REMARK    6  A    between atoms: C_16  and  C_18
REMARK    7  A    between atoms: N_20  and  C_21
REMARK    8  A    between atoms: C_21  and  C_22
REMARK                            x       y       z     vdW  Elec       q    Type
REMARK                         _______ _______ _______ _____ _____    ______ ____
ROOT
ATOM      8  C   UNL     1       7.859  -3.712   0.000  0.00  0.00    +0.095 C 
ATOM      9  C   UNL     1       7.859  -2.888   0.000  0.00  0.00    +0.022 C 
ATOM     10  C   UNL     1       8.574  -2.475   0.000  0.00  0.00    +0.002 C 
ATOM     11  C   UNL     1       9.288  -2.888   0.000  0.00  0.00    +0.002 C 
ATOM     12  C   UNL     1       9.288  -2.062   0.000  0.00  0.00    +0.000 C 
ATOM     13  C   UNL     1      10.003  -2.475   0.000  0.00  0.00    +0.000 C 
ATOM     14  C   UNL     1      10.717  -2.888   0.000  0.00  0.00    +0.003 C 
ATOM     15  C   UNL     1      10.717  -3.712   0.000  0.00  0.00    +0.039 C 
ATOM     30  C   UNL     1      10.003  -4.125   0.000  0.00  0.00    +0.152 C 
ATOM     31  O   UNL     1      10.003  -4.950   0.000  0.00  0.00    -0.223 OA
ATOM     32  C   UNL     1       9.288  -3.712   0.000  0.00  0.00    +0.032 C 
ATOM     33  C   UNL     1       8.574  -4.125   0.000  0.00  0.00    +0.022 C 
ATOM     34  C   UNL     1       8.574  -4.950   0.000  0.00  0.00    +0.002 C 
ENDROOT
BRANCH   8   7
ATOM      5  C   UNL     1       6.430  -3.712   0.000  0.00  0.00    +0.244 C 
ATOM      6  O   UNL     1       6.430  -2.888   0.000  0.00  0.00    -0.273 OA
ATOM      7  N   UNL     1       7.145  -4.125   0.000  0.00  0.00    -0.207 NA
BRANCH   5   4
ATOM      4  C   UNL     1       5.716  -4.125   0.000  0.00  0.00    +0.119 C 
BRANCH   4   3
ATOM      3  C   UNL     1       5.001  -3.712   0.000  0.00  0.00    +0.152 C 
BRANCH   3   2
ATOM      1  C   UNL     1       3.572  -3.712   0.000  0.00  0.00    +0.174 C 
ATOM      2  O   UNL     1       4.287  -4.125   0.000  0.00  0.00    -0.351 OA
ENDBRANCH   3   2
ENDBRANCH   4   3
ENDBRANCH   5   4
ENDBRANCH   8   7
BRANCH  15  16
ATOM     16  C   UNL     1      11.431  -4.125   0.000  0.00  0.00    +0.081 C 
ATOM     17  C   UNL     1      11.431  -4.950   0.000  0.00  0.00    +0.010 C 
BRANCH  16  18
ATOM     18  C   UNL     1      12.146  -3.712   0.000  0.00  0.00    +0.241 C 
ATOM     19  O   UNL     1      12.146  -2.888   0.000  0.00  0.00    -0.273 OA
ATOM     20  N   UNL     1      12.861  -4.125   0.000  0.00  0.00    -0.201 NA
BRANCH  20  21
ATOM     21  C   UNL     1      13.575  -3.712   0.000  0.00  0.00    +0.142 C 
BRANCH  21  22
ATOM     22  C   UNL     1      14.289  -4.125   0.000  0.00  0.00    +0.004 A 
ATOM     23  C   UNL     1      15.004  -3.712   0.000  0.00  0.00    +0.027 A 
ATOM     24  C   UNL     1      15.718  -4.125   0.000  0.00  0.00    +0.142 A 
ATOM     25  F   UNL     1      16.433  -3.712   0.000  0.00  0.00    -0.204 F 
ATOM     26  C   UNL     1      15.718  -4.950   0.000  0.00  0.00    +0.059 A 
ATOM     27  C   UNL     1      15.004  -5.362   0.000  0.00  0.00    +0.142 A 
ATOM     28  F   UNL     1      15.004  -6.188   0.000  0.00  0.00    -0.204 F 
ATOM     29  C   UNL     1      14.289  -4.950   0.000  0.00  0.00    +0.027 A 
ENDBRANCH  21  22
ENDBRANCH  20  21
ENDBRANCH  16  18
ENDBRANCH  15  16
TORSDOF 8
