MODEL 1
REMARK VINA RESULT:     -11.8      0.000      0.000
REMARK  Name = 
REMARK  7 active torsions:
REMARK  status: ('A' for Active; 'I' for Inactive)
REMARK    1  A    between atoms: C_2  and  C_4
REMARK    2  A    between atoms: C_4  and  C_5
REMARK    3  A    between atoms: C_4  and  N_12
REMARK    4  A    between atoms: C_5  and  C_6
REMARK    5  A    between atoms: C_13  and  C_15
REMARK    6  A    between atoms: C_21  and  C_23
REMARK    7  A    between atoms: C_29  and  C_31
REMARK                            x       y       z     vdW  Elec       q    Type
REMARK                         _______ _______ _______ _____ _____    ______ ____
ROOT
ATOM     15  C   UNL     1      -2.049   1.095  24.380  0.00  0.00    +0.174 C 
ATOM     16  C   UNL     1      -2.759   0.734  24.595  0.00  0.00    +0.123 C 
ATOM     17  N   UNL     1      -2.840  -0.085  24.537  0.00  0.00    -0.272 N 
ATOM     18  C   UNL     1      -2.211  -0.543  24.265  0.00  0.00    +0.115 C 
ATOM     19  C   UNL     1      -1.500  -0.183  24.049  0.00  0.00    +0.115 C 
ATOM     20  N   UNL     1      -1.419   0.636  24.107  0.00  0.00    -0.270 N 
ATOM     21  C   UNL     1      -0.710   0.997  23.891  0.00  0.00    +0.226 C 
ATOM     22  O   UNL     1      -0.629   1.815  23.949  0.00  0.00    -0.275 OA
ATOM     29  C   UNL     1      -3.549  -0.445  24.753  0.00  0.00    +0.249 C 
ATOM     30  O   UNL     1      -4.179   0.013  25.026  0.00  0.00    -0.270 OA
ENDROOT
BRANCH  29  31
ATOM     31  C   UNL     1      -3.630  -1.265  24.695  0.00  0.00    +0.056 A 
ATOM     32  C   UNL     1      -3.322  -1.752  25.286  0.00  0.00    +0.005 A 
ATOM     33  C   UNL     1      -3.403  -2.571  25.228  0.00  0.00    +0.002 A 
ATOM     34  C   UNL     1      -3.792  -2.903  24.580  0.00  0.00    +0.030 A 
ATOM     35  C   UNL     1      -4.100  -2.415  23.990  0.00  0.00    +0.140 A 
ATOM     36  F   UNL     1      -4.488  -2.747  23.343  0.00  0.00    -0.204 F 
ATOM     37  C   UNL     1      -4.019  -1.596  24.048  0.00  0.00    +0.034 A 
ENDBRANCH  29  31
BRANCH  21  23
ATOM     23  C   UNL     1      -0.080   0.538  23.618  0.00  0.00    +0.080 C 
ATOM     24  C   UNL     1       0.434   0.181  24.156  0.00  0.00    +0.028 C 
ATOM     25  C   UNL     1       1.062  -0.277  23.883  0.00  0.00    +0.089 C 
ATOM     26  N   UNL     1       1.178  -0.379  23.072  0.00  0.00    -0.218 NA
ATOM     27  C   UNL     1       0.664  -0.022  22.534  0.00  0.00    +0.089 C 
ATOM     28  C   UNL     1       0.035   0.437  22.808  0.00  0.00    +0.028 C 
ENDBRANCH  21  23
BRANCH  15  13
ATOM     12  N   UNL     1      -2.220   2.306  25.119  0.00  0.00    -0.196 NA
ATOM     13  C   UNL     1      -1.968   1.913  24.437  0.00  0.00    +0.262 C 
ATOM     14  O   UNL     1      -1.636   2.340  23.815  0.00  0.00    -0.271 OA
BRANCH  12   4
ATOM      4  C   UNL     1      -2.139   3.125  25.176  0.00  0.00    +0.174 C 
BRANCH   4   2
ATOM      1  N   UNL     1      -1.101   4.098  25.310  0.00  0.00    -0.086 NA
ATOM      2  C   UNL     1      -1.512   3.448  25.606  0.00  0.00    +0.281 C 
ATOM      3  O   UNL     1      -1.298   3.119  26.332  0.00  0.00    -0.270 OA
ENDBRANCH   4   2
BRANCH   4   5
ATOM      5  C   UNL     1      -2.683   3.620  24.805  0.00  0.00    +0.031 C 
BRANCH   5   6
ATOM      6  C   UNL     1      -3.451   3.686  25.102  0.00  0.00    +0.002 C 
ATOM      7  C   UNL     1      -4.098   3.599  24.597  0.00  0.00    +0.000 C 
ATOM      8  C   UNL     1      -4.864   3.666  24.894  0.00  0.00    +0.000 C 
ATOM      9  C   UNL     1      -4.984   3.819  25.697  0.00  0.00    +0.000 C 
ATOM     10  C   UNL     1      -4.337   3.906  26.201  0.00  0.00    +0.000 C 
ATOM     11  C   UNL     1      -3.570   3.839  25.903  0.00  0.00    +0.000 C 
ENDBRANCH   5   6
ENDBRANCH   4   5
ENDBRANCH  12   4
ENDBRANCH  15  13
TORSDOF 7
ENDMDL
MODEL 2
REMARK VINA RESULT:     -11.1      1.856      3.909
REMARK  Name = 
REMARK  7 active torsions:
REMARK  status: ('A' for Active; 'I' for Inactive)
REMARK    1  A    between atoms: C_2  and  C_4
REMARK    2  A    between atoms: C_4  and  C_5
REMARK    3  A    between atoms: C_4  and  N_12
REMARK    4  A    between atoms: C_5  and  C_6
REMARK    5  A    between atoms: C_13  and  C_15
REMARK    6  A    between atoms: C_21  and  C_23
REMARK    7  A    between atoms: C_29  and  C_31
REMARK                            x       y       z     vdW  Elec       q    Type
REMARK                         _______ _______ _______ _____ _____    ______ ____
ROOT
ATOM     15  C   UNL     1      -2.662   0.562  24.875  0.00  0.00    +0.174 C 
ATOM     16  C   UNL     1      -3.080   1.263  24.998  0.00  0.00    +0.123 C 
ATOM     17  N   UNL     1      -3.901   1.247  25.069  0.00  0.00    -0.272 N 
ATOM     18  C   UNL     1      -4.306   0.530  25.018  0.00  0.00    +0.115 C 
ATOM     19  C   UNL     1      -3.889  -0.172  24.895  0.00  0.00    +0.115 C 
ATOM     20  N   UNL     1      -3.067  -0.156  24.824  0.00  0.00    -0.270 N 
ATOM     21  C   UNL     1      -2.649  -0.856  24.701  0.00  0.00    +0.226 C 
ATOM     22  O   UNL     1      -1.829  -0.840  24.629  0.00  0.00    -0.275 OA
ATOM     29  C   UNL     1      -4.318   1.947  25.192  0.00  0.00    +0.249 C 
ATOM     30  O   UNL     1      -3.914   2.665  25.243  0.00  0.00    -0.270 OA
ENDROOT
BRANCH  29  31
ATOM     31  C   UNL     1      -5.141   1.931  25.264  0.00  0.00    +0.056 A 
ATOM     32  C   UNL     1      -5.614   1.958  24.588  0.00  0.00    +0.005 A 
ATOM     33  C   UNL     1      -6.436   1.942  24.660  0.00  0.00    +0.002 A 
ATOM     34  C   UNL     1      -6.784   1.899  25.407  0.00  0.00    +0.030 A 
ATOM     35  C   UNL     1      -6.310   1.872  26.081  0.00  0.00    +0.140 A 
ATOM     36  F   UNL     1      -6.659   1.828  26.828  0.00  0.00    -0.204 F 
ATOM     37  C   UNL     1      -5.489   1.888  26.010  0.00  0.00    +0.034 A 
ENDBRANCH  29  31
BRANCH  21  23
ATOM     23  C   UNL     1      -3.054  -1.574  24.650  0.00  0.00    +0.080 C 
ATOM     24  C   UNL     1      -3.444  -1.779  23.952  0.00  0.00    +0.028 C 
ATOM     25  C   UNL     1      -3.848  -2.496  23.901  0.00  0.00    +0.089 C 
ATOM     26  N   UNL     1      -3.864  -3.008  24.548  0.00  0.00    -0.218 NA
ATOM     27  C   UNL     1      -3.474  -2.803  25.246  0.00  0.00    +0.089 C 
ATOM     28  C   UNL     1      -3.069  -2.085  25.297  0.00  0.00    +0.028 C 
ENDBRANCH  21  23
BRANCH  15  13
ATOM     12  N   UNL     1      -1.479   1.146  24.326  0.00  0.00    -0.196 NA
ATOM     13  C   UNL     1      -1.841   0.578  24.803  0.00  0.00    +0.262 C 
ATOM     14  O   UNL     1      -1.381   0.027  25.208  0.00  0.00    -0.271 OA
BRANCH  12   4
ATOM      4  C   UNL     1      -0.658   1.162  24.254  0.00  0.00    +0.174 C 
BRANCH   4   2
ATOM      1  N   UNL     1       0.381   0.329  23.736  0.00  0.00    -0.086 NA
ATOM      2  C   UNL     1      -0.292   0.789  23.615  0.00  0.00    +0.281 C 
ATOM      3  O   UNL     1      -0.602   0.877  22.854  0.00  0.00    -0.270 OA
ENDBRANCH   4   2
BRANCH   4   5
ATOM      5  C   UNL     1      -0.202   1.551  24.821  0.00  0.00    +0.031 C 
BRANCH   5   6
ATOM      6  C   UNL     1      -0.251   2.372  24.897  0.00  0.00    +0.002 C 
ATOM      7  C   UNL     1      -0.310   2.713  25.646  0.00  0.00    +0.000 C 
ATOM      8  C   UNL     1      -0.359   3.533  25.723  0.00  0.00    +0.000 C 
ATOM      9  C   UNL     1      -0.349   4.012  25.050  0.00  0.00    +0.000 C 
ATOM     10  C   UNL     1      -0.290   3.670  24.302  0.00  0.00    +0.000 C 
ATOM     11  C   UNL     1      -0.241   2.850  24.226  0.00  0.00    +0.000 C 
ENDBRANCH   5   6
ENDBRANCH   4   5
ENDBRANCH  12   4
ENDBRANCH  15  13
TORSDOF 7
ENDMDL
MODEL 3
REMARK VINA RESULT:     -11.0      1.657      3.819
REMARK  Name = 
REMARK  7 active torsions:
REMARK  status: ('A' for Active; 'I' for Inactive)
REMARK    1  A    between atoms: C_2  and  C_4
REMARK    2  A    between atoms: C_4  and  C_5
REMARK    3  A    between atoms: C_4  and  N_12
REMARK    4  A    between atoms: C_5  and  C_6
REMARK    5  A    between atoms: C_13  and  C_15
REMARK    6  A    between atoms: C_21  and  C_23
REMARK    7  A    between atoms: C_29  and  C_31
REMARK                            x       y       z     vdW  Elec       q    Type
REMARK                         _______ _______ _______ _____ _____    ______ ____
ROOT
ATOM     15  C   UNL     1      -3.339   1.534  24.791  0.00  0.00    +0.174 C 
ATOM     16  C   UNL     1      -2.889   0.856  24.658  0.00  0.00    +0.123 C 
ATOM     17  N   UNL     1      -3.244   0.112  24.686  0.00  0.00    -0.272 N 
ATOM     18  C   UNL     1      -4.050   0.046  24.848  0.00  0.00    +0.115 C 
ATOM     19  C   UNL     1      -4.501   0.724  24.982  0.00  0.00    +0.115 C 
ATOM     20  N   UNL     1      -4.146   1.468  24.953  0.00  0.00    -0.270 N 
ATOM     21  C   UNL     1      -4.595   2.146  25.087  0.00  0.00    +0.226 C 
ATOM     22  O   UNL     1      -4.240   2.889  25.059  0.00  0.00    -0.275 OA
ATOM     29  C   UNL     1      -2.794  -0.566  24.552  0.00  0.00    +0.249 C 
ATOM     30  O   UNL     1      -1.987  -0.500  24.390  0.00  0.00    -0.270 OA
ENDROOT
BRANCH  29  31
ATOM     31  C   UNL     1      -3.150  -1.310  24.580  0.00  0.00    +0.056 A 
ATOM     32  C   UNL     1      -3.054  -1.788  25.246  0.00  0.00    +0.005 A 
ATOM     33  C   UNL     1      -3.410  -2.532  25.274  0.00  0.00    +0.002 A 
ATOM     34  C   UNL     1      -3.862  -2.798  24.637  0.00  0.00    +0.030 A 
ATOM     35  C   UNL     1      -3.957  -2.319  23.972  0.00  0.00    +0.140 A 
ATOM     36  F   UNL     1      -4.409  -2.586  23.335  0.00  0.00    -0.204 F 
ATOM     37  C   UNL     1      -3.601  -1.576  23.944  0.00  0.00    +0.034 A 
ENDBRANCH  29  31
BRANCH  21  23
ATOM     23  C   UNL     1      -5.402   2.080  25.249  0.00  0.00    +0.080 C 
ATOM     24  C   UNL     1      -5.940   1.978  24.632  0.00  0.00    +0.028 C 
ATOM     25  C   UNL     1      -6.746   1.912  24.794  0.00  0.00    +0.089 C 
ATOM     26  N   UNL     1      -7.015   1.948  25.573  0.00  0.00    -0.218 NA
ATOM     27  C   UNL     1      -6.477   2.050  26.191  0.00  0.00    +0.089 C 
ATOM     28  C   UNL     1      -5.670   2.116  26.029  0.00  0.00    +0.028 C 
ENDBRANCH  21  23
BRANCH  15  13
ATOM     12  N   UNL     1      -2.380   2.466  25.294  0.00  0.00    -0.196 NA
ATOM     13  C   UNL     1      -2.983   2.277  24.763  0.00  0.00    +0.262 C 
ATOM     14  O   UNL     1      -3.230   2.832  24.205  0.00  0.00    -0.271 OA
BRANCH  12   4
ATOM      4  C   UNL     1      -2.024   3.210  25.266  0.00  0.00    +0.174 C 
BRANCH   4   2
ATOM      1  N   UNL     1      -2.420   4.572  25.444  0.00  0.00    -0.086 NA
ATOM      2  C   UNL     1      -2.299   3.817  25.753  0.00  0.00    +0.281 C 
ATOM      3  O   UNL     1      -2.453   3.668  26.551  0.00  0.00    -0.270 OA
ENDBRANCH   4   2
BRANCH   4   5
ATOM      5  C   UNL     1      -1.395   3.347  24.751  0.00  0.00    +0.031 C 
BRANCH   5   6
ATOM      6  C   UNL     1      -0.675   2.959  24.868  0.00  0.00    +0.002 C 
ATOM      7  C   UNL     1      -0.268   2.642  24.223  0.00  0.00    +0.000 C 
ATOM      8  C   UNL     1       0.451   2.255  24.339  0.00  0.00    +0.000 C 
ATOM      9  C   UNL     1       0.763   2.184  25.100  0.00  0.00    +0.000 C 
ATOM     10  C   UNL     1       0.356   2.501  25.744  0.00  0.00    +0.000 C 
ATOM     11  C   UNL     1      -0.363   2.889  25.627  0.00  0.00    +0.000 C 
ENDBRANCH   5   6
ENDBRANCH   4   5
ENDBRANCH  12   4
ENDBRANCH  15  13
TORSDOF 7
ENDMDL
MODEL 4
REMARK VINA RESULT:     -10.9      1.938      4.555
REMARK  Name = 
REMARK  7 active torsions:
REMARK  status: ('A' for Active; 'I' for Inactive)
REMARK    1  A    between atoms: C_2  and  C_4
REMARK    2  A    between atoms: C_4  and  C_5
REMARK    3  A    between atoms: C_4  and  N_12
REMARK    4  A    between atoms: C_5  and  C_6
REMARK    5  A    between atoms: C_13  and  C_15
REMARK    6  A    between atoms: C_21  and  C_23
REMARK    7  A    between atoms: C_29  and  C_31
REMARK                            x       y       z     vdW  Elec       q    Type
REMARK                         _______ _______ _______ _____ _____    ______ ____
ROOT
ATOM     15  C   UNL     1      -2.244   0.862  24.788  0.00  0.00    +0.174 C 
ATOM     16  C   UNL     1      -3.062   0.938  24.706  0.00  0.00    +0.123 C 
ATOM     17  N   UNL     1      -3.428   1.659  24.868  0.00  0.00    -0.272 N 
ATOM     18  C   UNL     1      -2.977   2.305  25.111  0.00  0.00    +0.115 C 
ATOM     19  C   UNL     1      -2.159   2.230  25.193  0.00  0.00    +0.115 C 
ATOM     20  N   UNL     1      -1.793   1.509  25.031  0.00  0.00    -0.270 N 
ATOM     21  C   UNL     1      -0.975   1.434  25.113  0.00  0.00    +0.226 C 
ATOM     22  O   UNL     1      -0.610   0.713  24.951  0.00  0.00    -0.275 OA
ATOM     29  C   UNL     1      -4.245   1.734  24.787  0.00  0.00    +0.249 C 
ATOM     30  O   UNL     1      -4.697   1.088  24.543  0.00  0.00    -0.270 OA
ENDROOT
BRANCH  29  31
ATOM     31  C   UNL     1      -4.611   2.456  24.949  0.00  0.00    +0.056 A 
ATOM     32  C   UNL     1      -4.493   3.100  24.447  0.00  0.00    +0.005 A 
ATOM     33  C   UNL     1      -4.859   3.821  24.609  0.00  0.00    +0.002 A 
ATOM     34  C   UNL     1      -5.344   3.899  25.273  0.00  0.00    +0.030 A 
ATOM     35  C   UNL     1      -5.462   3.254  25.774  0.00  0.00    +0.140 A 
ATOM     36  F   UNL     1      -5.946   3.332  26.437  0.00  0.00    -0.204 F 
ATOM     37  C   UNL     1      -5.095   2.533  25.612  0.00  0.00    +0.034 A 
ENDBRANCH  29  31
BRANCH  21  23
ATOM     23  C   UNL     1      -0.524   2.081  25.356  0.00  0.00    +0.080 C 
ATOM     24  C   UNL     1      -0.293   2.653  24.808  0.00  0.00    +0.028 C 
ATOM     25  C   UNL     1       0.157   3.298  25.052  0.00  0.00    +0.089 C 
ATOM     26  N   UNL     1       0.378   3.373  25.844  0.00  0.00    -0.218 NA
ATOM     27  C   UNL     1       0.148   2.801  26.392  0.00  0.00    +0.089 C 
ATOM     28  C   UNL     1      -0.304   2.154  26.148  0.00  0.00    +0.028 C 
ENDBRANCH  21  23
BRANCH  15  13
ATOM     12  N   UNL     1      -2.119  -0.542  25.022  0.00  0.00    -0.196 NA
ATOM     13  C   UNL     1      -1.878   0.142  24.626  0.00  0.00    +0.262 C 
ATOM     14  O   UNL     1      -1.272   0.103  24.068  0.00  0.00    -0.271 OA
BRANCH  12   4
ATOM      4  C   UNL     1      -1.752  -1.263  24.861  0.00  0.00    +0.174 C 
BRANCH   4   2
ATOM      1  N   UNL     1      -0.458  -1.849  25.011  0.00  0.00    -0.086 NA
ATOM      2  C   UNL     1      -1.142  -1.533  25.346  0.00  0.00    +0.281 C 
ATOM      3  O   UNL     1      -1.216  -1.486  26.167  0.00  0.00    -0.270 OA
ENDBRANCH   4   2
BRANCH   4   5
ATOM      5  C   UNL     1      -1.996  -1.713  24.215  0.00  0.00    +0.031 C 
BRANCH   5   6
ATOM      6  C   UNL     1      -2.696  -2.150  24.257  0.00  0.00    +0.002 C 
ATOM      7  C   UNL     1      -2.727  -2.834  24.717  0.00  0.00    +0.000 C 
ATOM      8  C   UNL     1      -3.426  -3.271  24.759  0.00  0.00    +0.000 C 
ATOM      9  C   UNL     1      -4.093  -3.023  24.341  0.00  0.00    +0.000 C 
ATOM     10  C   UNL     1      -4.061  -2.339  23.881  0.00  0.00    +0.000 C 
ATOM     11  C   UNL     1      -3.362  -1.903  23.839  0.00  0.00    +0.000 C 
ENDBRANCH   5   6
ENDBRANCH   4   5
ENDBRANCH  12   4
ENDBRANCH  15  13
TORSDOF 7
ENDMDL
MODEL 5
REMARK VINA RESULT:     -10.9      1.916      4.571
REMARK  Name = 
REMARK  7 active torsions:
REMARK  status: ('A' for Active; 'I' for Inactive)
REMARK    1  A    between atoms: C_2  and  C_4
REMARK    2  A    between atoms: C_4  and  C_5
REMARK    3  A    between atoms: C_4  and  N_12
REMARK    4  A    between atoms: C_5  and  C_6
REMARK    5  A    between atoms: C_13  and  C_15
REMARK    6  A    between atoms: C_21  and  C_23
REMARK    7  A    between atoms: C_29  and  C_31
REMARK                            x       y       z     vdW  Elec       q    Type
REMARK                         _______ _______ _______ _____ _____    ______ ____
ROOT
ATOM     15  C   UNL     1      -1.426   0.734  24.550  0.00  0.00    +0.174 C 
ATOM     16  C   UNL     1      -1.007   0.126  24.183  0.00  0.00    +0.123 C 
ATOM     17  N   UNL     1      -0.270   0.279  23.844  0.00  0.00    -0.272 N 
ATOM     18  C   UNL     1       0.047   1.039  23.871  0.00  0.00    +0.115 C 
ATOM     19  C   UNL     1      -0.372   1.648  24.238  0.00  0.00    +0.115 C 
ATOM     20  N   UNL     1      -1.108   1.496  24.578  0.00  0.00    -0.270 N 
ATOM     21  C   UNL     1      -1.528   2.104  24.945  0.00  0.00    +0.226 C 
ATOM     22  O   UNL     1      -2.263   1.952  25.284  0.00  0.00    -0.275 OA
ATOM     29  C   UNL     1       0.148  -0.329  23.477  0.00  0.00    +0.249 C 
ATOM     30  O   UNL     1      -0.169  -1.091  23.449  0.00  0.00    -0.270 OA
ENDROOT
BRANCH  29  31
ATOM     31  C   UNL     1       0.885  -0.177  23.137  0.00  0.00    +0.056 A 
ATOM     32  C   UNL     1       1.518   0.057  23.613  0.00  0.00    +0.005 A 
ATOM     33  C   UNL     1       2.254   0.209  23.274  0.00  0.00    +0.002 A 
ATOM     34  C   UNL     1       2.358   0.128  22.458  0.00  0.00    +0.030 A 
ATOM     35  C   UNL     1       1.725  -0.105  21.984  0.00  0.00    +0.140 A 
ATOM     36  F   UNL     1       1.829  -0.186  21.170  0.00  0.00    -0.204 F 
ATOM     37  C   UNL     1       0.989  -0.258  22.323  0.00  0.00    +0.034 A 
ENDBRANCH  29  31
BRANCH  21  23
ATOM     23  C   UNL     1      -1.210   2.866  24.972  0.00  0.00    +0.080 C 
ATOM     24  C   UNL     1      -0.698   3.077  25.584  0.00  0.00    +0.028 C 
ATOM     25  C   UNL     1      -0.381   3.838  25.611  0.00  0.00    +0.089 C 
ATOM     26  N   UNL     1      -0.575   4.388  25.027  0.00  0.00    -0.218 NA
ATOM     27  C   UNL     1      -1.087   4.176  24.416  0.00  0.00    +0.089 C 
ATOM     28  C   UNL     1      -1.405   3.414  24.388  0.00  0.00    +0.028 C 
ENDBRANCH  21  23
BRANCH  15  13
ATOM     12  N   UNL     1      -2.760   0.233  24.439  0.00  0.00    -0.196 NA
ATOM     13  C   UNL     1      -2.162   0.582  24.889  0.00  0.00    +0.262 C 
ATOM     14  O   UNL     1      -2.301   0.778  25.678  0.00  0.00    -0.271 OA
BRANCH  12   4
ATOM      4  C   UNL     1      -3.496   0.081  24.778  0.00  0.00    +0.174 C 
BRANCH   4   2
ATOM      1  N   UNL     1      -4.625   0.807  25.267  0.00  0.00    -0.086 NA
ATOM      2  C   UNL     1      -4.125   0.598  24.646  0.00  0.00    +0.281 C 
ATOM      3  O   UNL     1      -4.255   0.905  23.890  0.00  0.00    -0.270 OA
ENDBRANCH   4   2
BRANCH   4   5
ATOM      5  C   UNL     1      -3.602  -0.587  25.249  0.00  0.00    +0.031 C 
BRANCH   5   6
ATOM      6  C   UNL     1      -3.690  -1.330  24.898  0.00  0.00    +0.002 C 
ATOM      7  C   UNL     1      -3.309  -1.986  25.222  0.00  0.00    +0.000 C 
ATOM      8  C   UNL     1      -3.397  -2.728  24.872  0.00  0.00    +0.000 C 
ATOM      9  C   UNL     1      -3.866  -2.813  24.197  0.00  0.00    +0.000 C 
ATOM     10  C   UNL     1      -4.246  -2.156  23.874  0.00  0.00    +0.000 C 
ATOM     11  C   UNL     1      -4.158  -1.415  24.225  0.00  0.00    +0.000 C 
ENDBRANCH   5   6
ENDBRANCH   4   5
ENDBRANCH  12   4
ENDBRANCH  15  13
TORSDOF 7
ENDMDL
MODEL 6
REMARK VINA RESULT:     -10.3      1.493      3.683
REMARK  Name = 
REMARK  7 active torsions:
REMARK  status: ('A' for Active; 'I' for Inactive)
REMARK    1  A    between atoms: C_2  and  C_4
REMARK    2  A    between atoms: C_4  and  C_5
REMARK    3  A    between atoms: C_4  and  N_12
REMARK    4  A    between atoms: C_5  and  C_6
REMARK    5  A    between atoms: C_13  and  C_15
REMARK    6  A    between atoms: C_21  and  C_23
REMARK    7  A    between atoms: C_29  and  C_31
REMARK                            x       y       z     vdW  Elec       q    Type
REMARK                         _______ _______ _______ _____ _____    ______ ____
ROOT
ATOM     15  C   UNL     1      -2.615   0.750  24.603  0.00  0.00    +0.174 C 
ATOM     16  C   UNL     1      -1.873   1.059  24.419  0.00  0.00    +0.123 C 
ATOM     17  N   UNL     1      -1.277   0.563  24.137  0.00  0.00    -0.272 N 
ATOM     18  C   UNL     1      -1.423  -0.242  24.038  0.00  0.00    +0.115 C 
ATOM     19  C   UNL     1      -2.166  -0.553  24.221  0.00  0.00    +0.115 C 
ATOM     20  N   UNL     1      -2.761  -0.057  24.503  0.00  0.00    -0.270 N 
ATOM     21  C   UNL     1      -3.504  -0.366  24.687  0.00  0.00    +0.226 C 
ATOM     22  O   UNL     1      -4.099   0.129  24.969  0.00  0.00    -0.275 OA
ATOM     29  C   UNL     1      -0.535   0.873  23.953  0.00  0.00    +0.249 C 
ATOM     30  O   UNL     1      -0.388   1.679  24.053  0.00  0.00    -0.270 OA
ENDROOT
BRANCH  29  31
ATOM     31  C   UNL     1       0.061   0.377  23.671  0.00  0.00    +0.056 A 
ATOM     32  C   UNL     1       0.457  -0.129  24.189  0.00  0.00    +0.005 A 
ATOM     33  C   UNL     1       1.052  -0.625  23.906  0.00  0.00    +0.002 A 
ATOM     34  C   UNL     1       1.253  -0.615  23.105  0.00  0.00    +0.030 A 
ATOM     35  C   UNL     1       0.857  -0.109  22.588  0.00  0.00    +0.140 A 
ATOM     36  F   UNL     1       1.057  -0.099  21.788  0.00  0.00    -0.204 F 
ATOM     37  C   UNL     1       0.261   0.387  22.871  0.00  0.00    +0.034 A 
ENDBRANCH  29  31
BRANCH  21  23
ATOM     23  C   UNL     1      -3.650  -1.173  24.587  0.00  0.00    +0.080 C 
ATOM     24  C   UNL     1      -4.035  -1.442  23.909  0.00  0.00    +0.028 C 
ATOM     25  C   UNL     1      -4.181  -2.247  23.810  0.00  0.00    +0.089 C 
ATOM     26  N   UNL     1      -3.943  -2.785  24.389  0.00  0.00    -0.218 NA
ATOM     27  C   UNL     1      -3.558  -2.515  25.068  0.00  0.00    +0.089 C 
ATOM     28  C   UNL     1      -3.412  -1.709  25.167  0.00  0.00    +0.028 C 
ENDBRANCH  21  23
BRANCH  15  13
ATOM     12  N   UNL     1      -3.309   1.998  24.561  0.00  0.00    -0.196 NA
ATOM     13  C   UNL     1      -3.210   1.245  24.885  0.00  0.00    +0.262 C 
ATOM     14  O   UNL     1      -3.707   0.989  25.492  0.00  0.00    -0.271 OA
BRANCH  12   4
ATOM      4  C   UNL     1      -3.905   2.493  24.843  0.00  0.00    +0.174 C 
BRANCH   4   2
ATOM      1  N   UNL     1      -5.333   2.502  24.896  0.00  0.00    -0.086 NA
ATOM      2  C   UNL     1      -4.635   2.521  24.459  0.00  0.00    +0.281 C 
ATOM      3  O   UNL     1      -4.665   2.568  23.635  0.00  0.00    -0.270 OA
ENDBRANCH   4   2
BRANCH   4   5
ATOM      5  C   UNL     1      -3.771   2.960  25.509  0.00  0.00    +0.031 C 
BRANCH   5   6
ATOM      6  C   UNL     1      -3.241   3.593  25.470  0.00  0.00    +0.002 C 
ATOM      7  C   UNL     1      -3.241   4.090  24.811  0.00  0.00    +0.000 C 
ATOM      8  C   UNL     1      -2.712   4.722  24.772  0.00  0.00    +0.000 C 
ATOM      9  C   UNL     1      -2.183   4.856  25.392  0.00  0.00    +0.000 C 
ATOM     10  C   UNL     1      -2.184   4.359  26.050  0.00  0.00    +0.000 C 
ATOM     11  C   UNL     1      -2.713   3.727  26.089  0.00  0.00    +0.000 C 
ENDBRANCH   5   6
ENDBRANCH   4   5
ENDBRANCH  12   4
ENDBRANCH  15  13
TORSDOF 7
ENDMDL
