MODEL 1
REMARK VINA RESULT:     -10.0      0.000      0.000
REMARK  Name = 
REMARK  6 active torsions:
REMARK  status: ('A' for Active; 'I' for Inactive)
REMARK    1  A    between atoms: C_2  and  C_5
REMARK    2  A    between atoms: C_5  and  N_6
REMARK    3  A    between atoms: N_6  and  C_7
REMARK    4  A    between atoms: C_10  and  C_11
REMARK    5  A    between atoms: C_11  and  N_12
REMARK    6  A    between atoms: C_13  and  C_15
REMARK                            x       y       z     vdW  Elec       q    Type
REMARK                         _______ _______ _______ _____ _____    ______ ____
ROOT
ATOM      7  C   UNL     1      -2.374   2.490  24.765  0.00  0.00    +0.135 C 
ATOM      8  C   UNL     1      -1.899   1.904  25.098  0.00  0.00    +0.162 C 
ATOM      9  O   UNL     1      -2.300   1.185  25.037  0.00  0.00    -0.350 OA
ATOM     10  C   UNL     1      -3.023   1.327  24.665  0.00  0.00    +0.169 C 
ATOM     20  C   UNL     1      -3.068   2.134  24.498  0.00  0.00    +0.199 C 
ATOM     21  O   UNL     1      -3.698   2.516  24.127  0.00  0.00    -0.219 OA
ENDROOT
BRANCH   7   6
ATOM      6  N   UNL     1      -2.188   3.292  24.708  0.00  0.00    -0.214 NA
BRANCH   6   5
ATOM      5  C   UNL     1      -1.613   3.617  25.201  0.00  0.00    +0.089 C 
BRANCH   5   2
ATOM      1  C   UNL     1      -1.209   5.211  25.059  0.00  0.00    +0.001 C 
ATOM      2  C   UNL     1      -1.411   4.414  25.130  0.00  0.00    +0.016 C 
ATOM      3  C   UNL     1      -0.752   4.207  24.678  0.00  0.00    +0.001 C 
ATOM      4  C   UNL     1      -2.069   4.621  25.582  0.00  0.00    +0.001 C 
ENDBRANCH   5   2
ENDBRANCH   6   5
ENDBRANCH   7   6
BRANCH  10  11
ATOM     11  C   UNL     1      -3.598   0.762  24.493  0.00  0.00    +0.147 C 
BRANCH  11  12
ATOM     12  N   UNL     1      -3.420  -0.040  24.554  0.00  0.00    -0.203 NA
ATOM     13  C   UNL     1      -4.021  -0.603  24.487  0.00  0.00    +0.241 C 
ATOM     14  O   UNL     1      -4.799  -0.361  24.359  0.00  0.00    -0.273 OA
BRANCH  13  15
ATOM     15  C   UNL     1      -3.842  -1.405  24.548  0.00  0.00    +0.078 C 
ATOM     16  C   UNL     1      -3.958  -1.973  23.961  0.00  0.00    +0.009 C 
ATOM     17  C   UNL     1      -3.703  -2.701  24.256  0.00  0.00    +0.001 C 
ATOM     18  C   UNL     1      -3.430  -2.582  25.026  0.00  0.00    +0.001 C 
ATOM     19  C   UNL     1      -3.515  -1.782  25.205  0.00  0.00    +0.009 C 
ENDBRANCH  13  15
ENDBRANCH  11  12
ENDBRANCH  10  11
TORSDOF 6
ENDMDL
MODEL 2
REMARK VINA RESULT:      -9.8      0.984      5.390
REMARK  Name = 
REMARK  6 active torsions:
REMARK  status: ('A' for Active; 'I' for Inactive)
REMARK    1  A    between atoms: C_2  and  C_5
REMARK    2  A    between atoms: C_5  and  N_6
REMARK    3  A    between atoms: N_6  and  C_7
REMARK    4  A    between atoms: C_10  and  C_11
REMARK    5  A    between atoms: C_11  and  N_12
REMARK    6  A    between atoms: C_13  and  C_15
REMARK                            x       y       z     vdW  Elec       q    Type
REMARK                         _______ _______ _______ _____ _____    ______ ____
ROOT
ATOM      7  C   UNL     1      -2.672  -0.082  24.781  0.00  0.00    +0.135 C 
ATOM      8  C   UNL     1      -3.241   0.515  24.799  0.00  0.00    +0.162 C 
ATOM      9  O   UNL     1      -2.860   1.224  24.981  0.00  0.00    -0.350 OA
ATOM     10  C   UNL     1      -2.056   1.065  25.076  0.00  0.00    +0.169 C 
ATOM     20  C   UNL     1      -1.941   0.258  24.952  0.00  0.00    +0.199 C 
ATOM     21  O   UNL     1      -1.219  -0.140  24.993  0.00  0.00    -0.219 OA
ENDROOT
BRANCH   7   6
ATOM      6  N   UNL     1      -2.811  -0.879  24.621  0.00  0.00    -0.214 NA
BRANCH   6   5
ATOM      5  C   UNL     1      -3.570  -1.190  24.704  0.00  0.00    +0.089 C 
BRANCH   5   2
ATOM      1  C   UNL     1      -3.877  -2.749  24.259  0.00  0.00    +0.001 C 
ATOM      2  C   UNL     1      -3.724  -1.970  24.482  0.00  0.00    +0.016 C 
ATOM      3  C   UNL     1      -3.387  -2.237  25.186  0.00  0.00    +0.001 C 
ATOM      4  C   UNL     1      -4.061  -1.703  23.777  0.00  0.00    +0.001 C 
ENDBRANCH   5   2
ENDBRANCH   6   5
ENDBRANCH   7   6
BRANCH  10  11
ATOM     11  C   UNL     1      -1.471   1.616  25.261  0.00  0.00    +0.147 C 
BRANCH  11  12
ATOM     12  N   UNL     1      -1.609   2.420  25.144  0.00  0.00    -0.203 NA
ATOM     13  C   UNL     1      -1.069   2.978  25.426  0.00  0.00    +0.241 C 
ATOM     14  O   UNL     1      -0.392   2.729  25.825  0.00  0.00    -0.273 OA
BRANCH  13  15
ATOM     15  C   UNL     1      -1.209   3.782  25.308  0.00  0.00    +0.078 C 
ATOM     16  C   UNL     1      -0.731   4.297  24.876  0.00  0.00    +0.009 C 
ATOM     17  C   UNL     1      -1.076   5.047  24.901  0.00  0.00    +0.001 C 
ATOM     18  C   UNL     1      -1.767   4.994  25.349  0.00  0.00    +0.001 C 
ATOM     19  C   UNL     1      -1.849   4.212  25.600  0.00  0.00    +0.009 C 
ENDBRANCH  13  15
ENDBRANCH  11  12
ENDBRANCH  10  11
TORSDOF 6
ENDMDL
