REMARK  Name = 
REMARK  5 active torsions:
REMARK  status: ('A' for Active; 'I' for Inactive)
REMARK    1  A    between atoms: C_3  and  N_4
REMARK    2  A    between atoms: N_7  and  C_8
REMARK    3  A    between atoms: C_8  and  C_9
REMARK    4  A    between atoms: C_16  and  N_17
REMARK    5  A    between atoms: N_20  and  C_23
REMARK                            x       y       z     vdW  Elec       q    Type
REMARK                         _______ _______ _______ _____ _____    ______ ____
ROOT
ATOM      1  O   UNL     1       2.539  -2.074   0.000  0.00  0.00    -0.220 OA
ATOM      2  C   UNL     1       2.127  -1.359   0.000  0.00  0.00    +0.194 C 
ATOM      3  C   UNL     1       1.989  -0.542   0.000  0.00  0.00    +0.158 C 
ATOM     11  C   UNL     1       1.060  -0.557   0.000  0.00  0.00    +0.170 C 
ATOM     12  C   UNL     1       0.740  -1.266   0.000  0.00  0.00    +0.176 C 
ATOM     13  O   UNL     1       0.120  -1.643   0.000  0.00  0.00    -0.327 OA
ATOM     14  C   UNL     1       0.640  -0.930   0.000  0.00  0.00    +0.253 C 
ATOM     15  O   UNL     1       0.500  -0.117   0.000  0.00  0.00    -0.327 OA
ATOM     16  C   UNL     1       1.611  -0.930   0.000  0.00  0.00    +0.147 C 
ENDROOT
BRANCH  16  17
ATOM     17  N   UNL     1       1.331  -1.706   0.000  0.00  0.00    -0.265 NA
ATOM     18  C   UNL     1       1.863  -2.337   0.000  0.00  0.00    +0.094 C 
ATOM     19  C   UNL     1       1.583  -3.113   0.000  0.00  0.00    +0.108 C 
ATOM     20  N   UNL     1       0.771  -3.258   0.000  0.00  0.00    -0.305 N 
ATOM     21  C   UNL     1       0.239  -2.628   0.000  0.00  0.00    +0.108 C 
ATOM     22  C   UNL     1       0.519  -1.852   0.000  0.00  0.00    +0.094 C 
BRANCH  20  23
ATOM     23  C   UNL     1       0.490  -4.034   0.000  0.00  0.00    +0.048 A 
ATOM     24  C   UNL     1       1.022  -4.665   0.000  0.00  0.00    +0.015 A 
ATOM     25  C   UNL     1       0.742  -5.441   0.000  0.00  0.00    +0.001 A 
ATOM     26  C   UNL     1      -0.070  -5.586   0.000  0.00  0.00    +0.000 A 
ATOM     27  C   UNL     1      -0.602  -4.955   0.000  0.00  0.00    +0.001 A 
ATOM     28  C   UNL     1      -0.322  -4.180   0.000  0.00  0.00    +0.015 A 
ENDBRANCH  20  23
ENDBRANCH  16  17
BRANCH   3   4
ATOM      4  N   UNL     1       2.517   0.093   0.000  0.00  0.00    -0.184 NA
ATOM      5  C   UNL     1       2.231   0.867   0.000  0.00  0.00    +0.340 C 
ATOM      6  O   UNL     1       1.417   1.006   0.000  0.00  0.00    -0.249 OA
ATOM      7  N   UNL     1       2.758   1.501   0.000  0.00  0.00    -0.182 NA
BRANCH   7   8
ATOM      8  C   UNL     1       2.472   2.275   0.000  0.00  0.00    +0.143 C 
BRANCH   8   9
ATOM      9  C   UNL     1       2.999   2.910   0.000  0.00  0.00    -0.003 C 
ATOM     10  C   UNL     1       2.713   3.683   0.000  0.00  0.00    -0.003 C 
ENDBRANCH   8   9
ENDBRANCH   7   8
ENDBRANCH   3   4
TORSDOF 5
