MODEL 1
REMARK VINA RESULT:     -14.4      0.000      0.000
REMARK  Name = 
REMARK  5 active torsions:
REMARK  status: ('A' for Active; 'I' for Inactive)
REMARK    1  A    between atoms: C_4  and  C_20
REMARK    2  A    between atoms: N_5  and  C_6
REMARK    3  A    between atoms: C_6  and  C_7
REMARK    4  A    between atoms: C_10  and  C_13
REMARK    5  A    between atoms: C_22  and  C_25
REMARK                            x       y       z     vdW  Elec       q    Type
REMARK                         _______ _______ _______ _____ _____    ______ ____
ROOT
ATOM      1  O   UNL     1      -6.568   2.245  24.988  0.00  0.00    -0.222 OA
ATOM      2  C   UNL     1      -5.748   2.304  25.062  0.00  0.00    +0.170 C 
ATOM      3  C   UNL     1      -5.334   2.955  25.355  0.00  0.00    +0.060 C 
ATOM      4  C   UNL     1      -4.529   2.776  25.330  0.00  0.00    +0.140 C 
ATOM      5  N   UNL     1      -4.446   2.015  25.023  0.00  0.00    -0.260 NA
ATOM     19  C   UNL     1      -5.200   1.724  24.858  0.00  0.00    +0.106 C 
ENDROOT
BRANCH   4  20
ATOM     20  C   UNL     1      -3.915   3.271  25.571  0.00  0.00    +0.251 A 
ATOM     21  N   UNL     1      -3.258   3.484  25.120  0.00  0.00    -0.190 NA
ATOM     22  C   UNL     1      -2.787   3.985  25.576  0.00  0.00    +0.203 A 
ATOM     23  N   UNL     1      -3.152   4.083  26.308  0.00  0.00    -0.056 NA
ATOM     24  O   UNL     1      -3.850   3.642  26.306  0.00  0.00    -0.336 OA
BRANCH  22  25
ATOM     25  C   UNL     1      -2.074   4.329  25.340  0.00  0.00    +0.039 A 
ATOM     26  C   UNL     1      -1.405   3.859  25.233  0.00  0.00    +0.003 A 
ATOM     27  C   UNL     1      -0.693   4.202  24.997  0.00  0.00    +0.000 A 
ATOM     28  C   UNL     1      -0.650   5.016  24.868  0.00  0.00    +0.000 A 
ATOM     29  C   UNL     1      -1.320   5.486  24.975  0.00  0.00    +0.000 A 
ATOM     30  C   UNL     1      -2.032   5.143  25.211  0.00  0.00    +0.003 A 
ENDBRANCH  22  25
ENDBRANCH   4  20
BRANCH   5   6
ATOM      6  C   UNL     1      -3.735   1.615  24.903  0.00  0.00    +0.100 C 
BRANCH   6   7
ATOM      7  C   UNL     1      -3.736   0.800  24.779  0.00  0.00    -0.006 A 
ATOM      8  C   UNL     1      -3.660   0.499  24.014  0.00  0.00    -0.003 A 
ATOM      9  C   UNL     1      -3.661  -0.318  23.891  0.00  0.00    +0.001 A 
ATOM     10  C   UNL     1      -3.737  -0.831  24.532  0.00  0.00    +0.018 A 
ATOM     11  C   UNL     1      -3.812  -0.530  25.296  0.00  0.00    +0.001 A 
ATOM     12  C   UNL     1      -3.812   0.286  25.419  0.00  0.00    -0.003 A 
BRANCH  10  13
ATOM     13  C   UNL     1      -3.738  -1.647  24.408  0.00  0.00    +0.081 A 
ATOM     14  N   UNL     1      -3.185  -2.124  24.792  0.00  0.00    -0.244 NA
ATOM     15  C   UNL     1      -3.186  -2.939  24.668  0.00  0.00    +0.099 A 
ATOM     16  C   UNL     1      -3.740  -3.279  24.159  0.00  0.00    +0.021 A 
ATOM     17  C   UNL     1      -4.293  -2.802  23.775  0.00  0.00    +0.003 A 
ATOM     18  C   UNL     1      -4.292  -1.986  23.899  0.00  0.00    +0.019 A 
ENDBRANCH  10  13
ENDBRANCH   6   7
ENDBRANCH   5   6
TORSDOF 5
ENDMDL
MODEL 2
REMARK VINA RESULT:     -13.1      2.639      6.323
REMARK  Name = 
REMARK  5 active torsions:
REMARK  status: ('A' for Active; 'I' for Inactive)
REMARK    1  A    between atoms: C_4  and  C_20
REMARK    2  A    between atoms: N_5  and  C_6
REMARK    3  A    between atoms: C_6  and  C_7
REMARK    4  A    between atoms: C_10  and  C_13
REMARK    5  A    between atoms: C_22  and  C_25
REMARK                            x       y       z     vdW  Elec       q    Type
REMARK                         _______ _______ _______ _____ _____    ______ ____
ROOT
ATOM      1  O   UNL     1       1.230   0.254  23.082  0.00  0.00    -0.222 OA
ATOM      2  C   UNL     1       0.599   0.146  23.601  0.00  0.00    +0.170 C 
ATOM      3  C   UNL     1       0.139  -0.535  23.668  0.00  0.00    +0.060 C 
ATOM      4  C   UNL     1      -0.428  -0.402  24.254  0.00  0.00    +0.140 C 
ATOM      5  N   UNL     1      -0.317   0.361  24.547  0.00  0.00    -0.260 NA
ATOM     19  C   UNL     1       0.318   0.700  24.143  0.00  0.00    +0.106 C 
ENDROOT
BRANCH   4  20
ATOM     20  C   UNL     1      -1.004  -0.938  24.501  0.00  0.00    +0.251 A 
ATOM     21  N   UNL     1      -1.738  -1.061  24.145  0.00  0.00    -0.190 NA
ATOM     22  C   UNL     1      -2.134  -1.645  24.573  0.00  0.00    +0.203 A 
ATOM     23  N   UNL     1      -1.646  -1.883  25.193  0.00  0.00    -0.056 NA
ATOM     24  O   UNL     1      -0.947  -1.447  25.149  0.00  0.00    -0.336 OA
BRANCH  22  25
ATOM     25  C   UNL     1      -2.888  -1.939  24.408  0.00  0.00    +0.039 A 
ATOM     26  C   UNL     1      -3.032  -2.750  24.451  0.00  0.00    +0.003 A 
ATOM     27  C   UNL     1      -3.785  -3.044  24.287  0.00  0.00    +0.000 A 
ATOM     28  C   UNL     1      -4.394  -2.527  24.080  0.00  0.00    +0.000 A 
ATOM     29  C   UNL     1      -4.250  -1.716  24.038  0.00  0.00    +0.000 A 
ATOM     30  C   UNL     1      -3.496  -1.422  24.202  0.00  0.00    +0.003 A 
ENDBRANCH  22  25
ENDBRANCH   4  20
BRANCH   5   6
ATOM      6  C   UNL     1      -0.763   0.722  25.140  0.00  0.00    +0.100 C 
BRANCH   6   7
ATOM      7  C   UNL     1      -0.879   1.538  25.130  0.00  0.00    -0.006 A 
ATOM      8  C   UNL     1      -0.432   2.024  25.625  0.00  0.00    -0.003 A 
ATOM      9  C   UNL     1      -0.549   2.842  25.615  0.00  0.00    +0.001 A 
ATOM     10  C   UNL     1      -1.111   3.172  25.110  0.00  0.00    +0.018 A 
ATOM     11  C   UNL     1      -1.557   2.685  24.614  0.00  0.00    +0.001 A 
ATOM     12  C   UNL     1      -1.441   1.869  24.625  0.00  0.00    -0.003 A 
BRANCH  10  13
ATOM     13  C   UNL     1      -1.226   3.989  25.100  0.00  0.00    +0.081 A 
ATOM     14  N   UNL     1      -0.650   4.484  24.779  0.00  0.00    -0.244 NA
ATOM     15  C   UNL     1      -0.766   5.300  24.769  0.00  0.00    +0.099 A 
ATOM     16  C   UNL     1      -1.459   5.622  25.080  0.00  0.00    +0.021 A 
ATOM     17  C   UNL     1      -2.036   5.127  25.401  0.00  0.00    +0.003 A 
ATOM     18  C   UNL     1      -1.920   4.310  25.411  0.00  0.00    +0.019 A 
ENDBRANCH  10  13
ENDBRANCH   6   7
ENDBRANCH   5   6
TORSDOF 5
ENDMDL
MODEL 3
REMARK VINA RESULT:     -13.1      2.504      3.323
REMARK  Name = 
REMARK  5 active torsions:
REMARK  status: ('A' for Active; 'I' for Inactive)
REMARK    1  A    between atoms: C_4  and  C_20
REMARK    2  A    between atoms: N_5  and  C_6
REMARK    3  A    between atoms: C_6  and  C_7
REMARK    4  A    between atoms: C_10  and  C_13
REMARK    5  A    between atoms: C_22  and  C_25
REMARK                            x       y       z     vdW  Elec       q    Type
REMARK                         _______ _______ _______ _____ _____    ______ ____
ROOT
ATOM      1  O   UNL     1       1.047   0.223  22.988  0.00  0.00    -0.222 OA
ATOM      2  C   UNL     1       0.582   0.540  23.592  0.00  0.00    +0.170 C 
ATOM      3  C   UNL     1       0.606   1.319  23.862  0.00  0.00    +0.060 C 
ATOM      4  C   UNL     1       0.050   1.394  24.468  0.00  0.00    +0.140 C 
ATOM      5  N   UNL     1      -0.316   0.662  24.571  0.00  0.00    -0.260 NA
ATOM     19  C   UNL     1       0.014   0.134  24.029  0.00  0.00    +0.106 C 
ENDROOT
BRANCH   4  20
ATOM     20  C   UNL     1      -0.111   2.081  24.895  0.00  0.00    +0.251 A 
ATOM     21  N   UNL     1      -0.624   2.685  24.667  0.00  0.00    -0.190 NA
ATOM     22  C   UNL     1      -0.617   3.262  25.257  0.00  0.00    +0.203 A 
ATOM     23  N   UNL     1      -0.100   3.014  25.850  0.00  0.00    -0.056 NA
ATOM     24  O   UNL     1       0.213   2.284  25.627  0.00  0.00    -0.336 OA
BRANCH  22  25
ATOM     25  C   UNL     1      -1.052   3.964  25.255  0.00  0.00    +0.039 A 
ATOM     26  C   UNL     1      -0.718   4.655  24.951  0.00  0.00    +0.003 A 
ATOM     27  C   UNL     1      -1.152   5.355  24.949  0.00  0.00    +0.000 A 
ATOM     28  C   UNL     1      -1.920   5.367  25.250  0.00  0.00    +0.000 A 
ATOM     29  C   UNL     1      -2.254   4.676  25.553  0.00  0.00    +0.000 A 
ATOM     30  C   UNL     1      -1.820   3.974  25.556  0.00  0.00    +0.003 A 
ENDBRANCH  22  25
ENDBRANCH   4  20
BRANCH   5   6
ATOM      6  C   UNL     1      -0.907   0.487  25.119  0.00  0.00    +0.100 C 
BRANCH   6   7
ATOM      7  C   UNL     1      -1.465  -0.096  24.952  0.00  0.00    -0.006 A 
ATOM      8  C   UNL     1      -1.311  -0.883  25.148  0.00  0.00    -0.003 A 
ATOM      9  C   UNL     1      -1.871  -1.466  24.981  0.00  0.00    +0.001 A 
ATOM     10  C   UNL     1      -2.583  -1.262  24.619  0.00  0.00    +0.018 A 
ATOM     11  C   UNL     1      -2.737  -0.475  24.423  0.00  0.00    +0.001 A 
ATOM     12  C   UNL     1      -2.178   0.107  24.590  0.00  0.00    -0.003 A 
BRANCH  10  13
ATOM     13  C   UNL     1      -3.142  -1.846  24.452  0.00  0.00    +0.081 A 
ATOM     14  N   UNL     1      -3.039  -2.611  24.742  0.00  0.00    -0.244 NA
ATOM     15  C   UNL     1      -3.598  -3.195  24.575  0.00  0.00    +0.099 A 
ATOM     16  C   UNL     1      -4.261  -3.013  24.117  0.00  0.00    +0.021 A 
ATOM     17  C   UNL     1      -4.364  -2.247  23.827  0.00  0.00    +0.003 A 
ATOM     18  C   UNL     1      -3.804  -1.664  23.994  0.00  0.00    +0.019 A 
ENDBRANCH  10  13
ENDBRANCH   6   7
ENDBRANCH   5   6
TORSDOF 5
ENDMDL
MODEL 4
REMARK VINA RESULT:     -12.2      1.247      5.397
REMARK  Name = 
REMARK  5 active torsions:
REMARK  status: ('A' for Active; 'I' for Inactive)
REMARK    1  A    between atoms: C_4  and  C_20
REMARK    2  A    between atoms: N_5  and  C_6
REMARK    3  A    between atoms: C_6  and  C_7
REMARK    4  A    between atoms: C_10  and  C_13
REMARK    5  A    between atoms: C_22  and  C_25
REMARK                            x       y       z     vdW  Elec       q    Type
REMARK                         _______ _______ _______ _____ _____    ______ ____
ROOT
ATOM      1  O   UNL     1      -5.983   2.019  26.099  0.00  0.00    -0.222 OA
ATOM      2  C   UNL     1      -5.445   1.643  25.600  0.00  0.00    +0.170 C 
ATOM      3  C   UNL     1      -5.408   0.832  25.451  0.00  0.00    +0.060 C 
ATOM      4  C   UNL     1      -4.790   0.699  24.921  0.00  0.00    +0.140 C 
ATOM      5  N   UNL     1      -4.445   1.427  24.743  0.00  0.00    -0.260 NA
ATOM     19  C   UNL     1      -4.851   2.011  25.163  0.00  0.00    +0.106 C 
ENDROOT
BRANCH   4  20
ATOM     20  C   UNL     1      -4.557  -0.033  24.622  0.00  0.00    +0.251 A 
ATOM     21  N   UNL     1      -3.956  -0.512  24.923  0.00  0.00    -0.190 NA
ATOM     22  C   UNL     1      -3.912  -1.191  24.456  0.00  0.00    +0.203 A 
ATOM     23  N   UNL     1      -4.486  -1.132  23.866  0.00  0.00    -0.056 NA
ATOM     24  O   UNL     1      -4.885  -0.417  23.969  0.00  0.00    -0.336 OA
BRANCH  22  25
ATOM     25  C   UNL     1      -3.386  -1.818  24.560  0.00  0.00    +0.039 A 
ATOM     26  C   UNL     1      -3.667  -2.594  24.576  0.00  0.00    +0.003 A 
ATOM     27  C   UNL     1      -3.141  -3.220  24.680  0.00  0.00    +0.000 A 
ATOM     28  C   UNL     1      -2.334  -3.072  24.769  0.00  0.00    +0.000 A 
ATOM     29  C   UNL     1      -2.053  -2.297  24.753  0.00  0.00    +0.000 A 
ATOM     30  C   UNL     1      -2.579  -1.669  24.649  0.00  0.00    +0.003 A 
ENDBRANCH  22  25
ENDBRANCH   4  20
BRANCH   5   6
ATOM      6  C   UNL     1      -3.808   1.551  24.235  0.00  0.00    +0.100 C 
BRANCH   6   7
ATOM      7  C   UNL     1      -3.293   2.182  24.365  0.00  0.00    -0.006 A 
ATOM      8  C   UNL     1      -3.397   2.891  23.955  0.00  0.00    -0.003 A 
ATOM      9  C   UNL     1      -2.881   3.522  24.086  0.00  0.00    +0.001 A 
ATOM     10  C   UNL     1      -2.263   3.444  24.625  0.00  0.00    +0.018 A 
ATOM     11  C   UNL     1      -2.158   2.735  25.034  0.00  0.00    +0.001 A 
ATOM     12  C   UNL     1      -2.674   2.105  24.904  0.00  0.00    -0.003 A 
BRANCH  10  13
ATOM     13  C   UNL     1      -1.747   4.076  24.755  0.00  0.00    +0.081 A 
ATOM     14  N   UNL     1      -0.949   4.003  24.563  0.00  0.00    -0.244 NA
ATOM     15  C   UNL     1      -0.434   4.634  24.693  0.00  0.00    +0.099 A 
ATOM     16  C   UNL     1      -0.718   5.339  25.015  0.00  0.00    +0.021 A 
ATOM     17  C   UNL     1      -1.517   5.412  25.206  0.00  0.00    +0.003 A 
ATOM     18  C   UNL     1      -2.032   4.780  25.077  0.00  0.00    +0.019 A 
ENDBRANCH  10  13
ENDBRANCH   6   7
ENDBRANCH   5   6
TORSDOF 5
ENDMDL
MODEL 5
REMARK VINA RESULT:     -10.7      2.617      4.379
REMARK  Name = 
REMARK  5 active torsions:
REMARK  status: ('A' for Active; 'I' for Inactive)
REMARK    1  A    between atoms: C_4  and  C_20
REMARK    2  A    between atoms: N_5  and  C_6
REMARK    3  A    between atoms: C_6  and  C_7
REMARK    4  A    between atoms: C_10  and  C_13
REMARK    5  A    between atoms: C_22  and  C_25
REMARK                            x       y       z     vdW  Elec       q    Type
REMARK                         _______ _______ _______ _____ _____    ______ ____
ROOT
ATOM      1  O   UNL     1      -0.681   5.543  24.771  0.00  0.00    -0.222 OA
ATOM      2  C   UNL     1      -1.122   4.891  25.019  0.00  0.00    +0.170 C 
ATOM      3  C   UNL     1      -1.921   4.897  25.225  0.00  0.00    +0.060 C 
ATOM      4  C   UNL     1      -2.134   4.129  25.439  0.00  0.00    +0.140 C 
ATOM      5  N   UNL     1      -1.467   3.649  25.364  0.00  0.00    -0.260 NA
ATOM     19  C   UNL     1      -0.841   4.121  25.105  0.00  0.00    +0.106 C 
ENDROOT
BRANCH   4  20
ATOM     20  C   UNL     1      -2.882   3.884  25.683  0.00  0.00    +0.251 A 
ATOM     21  N   UNL     1      -3.411   3.428  25.244  0.00  0.00    -0.190 NA
ATOM     22  C   UNL     1      -4.090   3.314  25.700  0.00  0.00    +0.203 A 
ATOM     23  N   UNL     1      -3.981   3.700  26.420  0.00  0.00    -0.056 NA
ATOM     24  O   UNL     1      -3.234   4.052  26.411  0.00  0.00    -0.336 OA
BRANCH  22  25
ATOM     25  C   UNL     1      -4.760   2.889  25.474  0.00  0.00    +0.039 A 
ATOM     26  C   UNL     1      -5.477   3.012  25.864  0.00  0.00    +0.003 A 
ATOM     27  C   UNL     1      -6.147   2.587  25.638  0.00  0.00    +0.000 A 
ATOM     28  C   UNL     1      -6.100   2.039  25.022  0.00  0.00    +0.000 A 
ATOM     29  C   UNL     1      -5.384   1.917  24.633  0.00  0.00    +0.000 A 
ATOM     30  C   UNL     1      -4.713   2.342  24.859  0.00  0.00    +0.003 A 
ENDBRANCH  22  25
ENDBRANCH   4  20
BRANCH   5   6
ATOM      6  C   UNL     1      -1.431   2.840  25.521  0.00  0.00    +0.100 C 
BRANCH   6   7
ATOM      7  C   UNL     1      -0.932   2.356  25.078  0.00  0.00    -0.006 A 
ATOM      8  C   UNL     1      -1.169   2.089  24.334  0.00  0.00    -0.003 A 
ATOM      9  C   UNL     1      -0.669   1.603  23.892  0.00  0.00    +0.001 A 
ATOM     10  C   UNL     1       0.067   1.386  24.193  0.00  0.00    +0.018 A 
ATOM     11  C   UNL     1       0.304   1.653  24.937  0.00  0.00    +0.001 A 
ATOM     12  C   UNL     1      -0.196   2.138  25.379  0.00  0.00    -0.003 A 
BRANCH  10  13
ATOM     13  C   UNL     1       0.567   0.901  23.750  0.00  0.00    +0.081 A 
ATOM     14  N   UNL     1       1.331   1.152  23.567  0.00  0.00    -0.244 NA
ATOM     15  C   UNL     1       1.830   0.667  23.125  0.00  0.00    +0.099 A 
ATOM     16  C   UNL     1       1.565  -0.070  22.864  0.00  0.00    +0.021 A 
ATOM     17  C   UNL     1       0.801  -0.321  23.046  0.00  0.00    +0.003 A 
ATOM     18  C   UNL     1       0.301   0.164  23.489  0.00  0.00    +0.019 A 
ENDBRANCH  10  13
ENDBRANCH   6   7
ENDBRANCH   5   6
TORSDOF 5
ENDMDL
MODEL 6
REMARK VINA RESULT:     -10.5      4.341      6.198
REMARK  Name = 
REMARK  5 active torsions:
REMARK  status: ('A' for Active; 'I' for Inactive)
REMARK    1  A    between atoms: C_4  and  C_20
REMARK    2  A    between atoms: N_5  and  C_6
REMARK    3  A    between atoms: C_6  and  C_7
REMARK    4  A    between atoms: C_10  and  C_13
REMARK    5  A    between atoms: C_22  and  C_25
REMARK                            x       y       z     vdW  Elec       q    Type
REMARK                         _______ _______ _______ _____ _____    ______ ____
ROOT
ATOM      1  O   UNL     1      -1.140  -1.368  24.596  0.00  0.00    -0.222 OA
ATOM      2  C   UNL     1      -0.635  -0.803  24.271  0.00  0.00    +0.170 C 
ATOM      3  C   UNL     1       0.046  -0.958  23.831  0.00  0.00    +0.060 C 
ATOM      4  C   UNL     1       0.380  -0.235  23.616  0.00  0.00    +0.140 C 
ATOM      5  N   UNL     1      -0.094   0.366  23.924  0.00  0.00    -0.260 NA
ATOM     19  C   UNL     1      -0.721   0.014  24.329  0.00  0.00    +0.106 C 
ENDROOT
BRANCH   4  20
ATOM     20  C   UNL     1       1.067  -0.132  23.172  0.00  0.00    +0.251 A 
ATOM     21  N   UNL     1       1.825  -0.006  23.473  0.00  0.00    -0.190 NA
ATOM     22  C   UNL     1       2.343   0.067  22.835  0.00  0.00    +0.203 A 
ATOM     23  N   UNL     1       1.906  -0.012  22.140  0.00  0.00    -0.056 NA
ATOM     24  O   UNL     1       1.117  -0.135  22.348  0.00  0.00    -0.336 OA
BRANCH  22  25
ATOM     25  C   UNL     1       3.157   0.198  22.884  0.00  0.00    +0.039 A 
ATOM     26  C   UNL     1       3.476   0.915  22.630  0.00  0.00    +0.003 A 
ATOM     27  C   UNL     1       4.288   1.045  22.679  0.00  0.00    +0.000 A 
ATOM     28  C   UNL     1       4.783   0.458  22.981  0.00  0.00    +0.000 A 
ATOM     29  C   UNL     1       4.465  -0.259  23.235  0.00  0.00    +0.000 A 
ATOM     30  C   UNL     1       3.651  -0.389  23.186  0.00  0.00    +0.003 A 
ENDBRANCH  22  25
ENDBRANCH   4  20
BRANCH   5   6
ATOM      6  C   UNL     1       0.036   1.176  23.841  0.00  0.00    +0.100 C 
BRANCH   6   7
ATOM      7  C   UNL     1      -0.482   1.715  24.190  0.00  0.00    -0.006 A 
ATOM      8  C   UNL     1      -0.343   1.983  24.958  0.00  0.00    -0.003 A 
ATOM      9  C   UNL     1      -0.862   2.523  25.307  0.00  0.00    +0.001 A 
ATOM     10  C   UNL     1      -1.518   2.793  24.888  0.00  0.00    +0.018 A 
ATOM     11  C   UNL     1      -1.658   2.524  24.120  0.00  0.00    +0.001 A 
ATOM     12  C   UNL     1      -1.139   1.986  23.772  0.00  0.00    -0.003 A 
BRANCH  10  13
ATOM     13  C   UNL     1      -2.037   3.332  25.237  0.00  0.00    +0.081 A 
ATOM     14  N   UNL     1      -2.814   3.110  25.402  0.00  0.00    -0.244 NA
ATOM     15  C   UNL     1      -3.331   3.649  25.751  0.00  0.00    +0.099 A 
ATOM     16  C   UNL     1      -3.072   4.410  25.935  0.00  0.00    +0.021 A 
ATOM     17  C   UNL     1      -2.295   4.632  25.770  0.00  0.00    +0.003 A 
ATOM     18  C   UNL     1      -1.777   4.093  25.421  0.00  0.00    +0.019 A 
ENDBRANCH  10  13
ENDBRANCH   6   7
ENDBRANCH   5   6
TORSDOF 5
ENDMDL
