MODEL 1
REMARK VINA RESULT:     -11.1      0.000      0.000
REMARK  Name = 
REMARK  8 active torsions:
REMARK  status: ('A' for Active; 'I' for Inactive)
REMARK    1  A    between atoms: O_2  and  C_3
REMARK    2  A    between atoms: C_3  and  C_4
REMARK    3  A    between atoms: C_4  and  N_5
REMARK    4  A    between atoms: N_5  and  C_6
REMARK    5  A    between atoms: C_7  and  C_12
REMARK    6  A    between atoms: C_15  and  C_17
REMARK    7  A    between atoms: N_21  and  C_22
REMARK    8  A    between atoms: C_22  and  C_23
REMARK                            x       y       z     vdW  Elec       q    Type
REMARK                         _______ _______ _______ _____ _____    ______ ____
ROOT
ATOM     12  C   UNL     1      -2.816   3.100  24.509  0.00  0.00    +0.206 A 
ATOM     13  N   UNL     1      -3.136   3.046  23.750  0.00  0.00    -0.056 NA
ATOM     14  O   UNL     1      -3.786   2.538  23.783  0.00  0.00    -0.336 OA
ATOM     15  C   UNL     1      -3.868   2.278  24.562  0.00  0.00    +0.251 A 
ATOM     16  N   UNL     1      -3.268   2.626  25.010  0.00  0.00    -0.190 NA
ENDROOT
BRANCH  12   7
ATOM      6  C   UNL     1      -1.400   3.238  24.639  0.00  0.00    +0.151 A 
ATOM      7  C   UNL     1      -2.160   3.549  24.727  0.00  0.00    +0.072 A 
ATOM      8  C   UNL     1      -2.263   4.308  25.032  0.00  0.00    +0.008 A 
ATOM      9  C   UNL     1      -1.606   4.757  25.250  0.00  0.00    +0.021 A 
ATOM     10  C   UNL     1      -0.846   4.447  25.163  0.00  0.00    +0.100 A 
ATOM     11  N   UNL     1      -0.744   3.687  24.858  0.00  0.00    -0.228 NA
BRANCH   6   5
ATOM      5  N   UNL     1      -1.297   2.479  24.334  0.00  0.00    -0.218 NA
BRANCH   5   4
ATOM      4  C   UNL     1      -0.563   2.108  24.390  0.00  0.00    +0.146 C 
BRANCH   4   3
ATOM      3  C   UNL     1      -0.413   1.422  23.956  0.00  0.00    +0.166 C 
BRANCH   3   2
ATOM      1  C   UNL     1      -0.015   0.051  23.912  0.00  0.00    +0.174 C 
ATOM      2  O   UNL     1      -0.219   0.721  24.346  0.00  0.00    -0.349 OA
ENDBRANCH   3   2
ENDBRANCH   4   3
ENDBRANCH   5   4
ENDBRANCH   6   5
ENDBRANCH  12   7
BRANCH  15  17
ATOM     17  C   UNL     1      -4.446   1.763  24.843  0.00  0.00    +0.138 C 
ATOM     18  C   UNL     1      -5.140   1.979  25.234  0.00  0.00    +0.027 C 
ATOM     19  C   UNL     1      -5.556   1.289  25.416  0.00  0.00    +0.019 C 
ATOM     20  C   UNL     1      -5.119   0.648  25.137  0.00  0.00    +0.073 C 
ATOM     21  N   UNL     1      -4.433   0.940  24.783  0.00  0.00    -0.266 NA
BRANCH  21  22
ATOM     22  C   UNL     1      -3.840   0.488  24.431  0.00  0.00    +0.072 C 
BRANCH  22  23
ATOM     23  C   UNL     1      -3.830  -0.330  24.530  0.00  0.00    +0.016 C 
ATOM     24  C   UNL     1      -3.494  -0.660  25.208  0.00  0.00    +0.001 C 
ATOM     25  C   UNL     1      -3.485  -1.479  25.307  0.00  0.00    +0.000 C 
ATOM     26  C   UNL     1      -3.811  -1.968  24.729  0.00  0.00    +0.000 C 
ATOM     27  C   UNL     1      -4.148  -1.639  24.051  0.00  0.00    +0.000 C 
ATOM     28  C   UNL     1      -4.157  -0.819  23.952  0.00  0.00    +0.001 C 
ENDBRANCH  22  23
ENDBRANCH  21  22
ENDBRANCH  15  17
TORSDOF 8
ENDMDL
MODEL 2
REMARK VINA RESULT:     -10.7      1.327      2.933
REMARK  Name = 
REMARK  8 active torsions:
REMARK  status: ('A' for Active; 'I' for Inactive)
REMARK    1  A    between atoms: O_2  and  C_3
REMARK    2  A    between atoms: C_3  and  C_4
REMARK    3  A    between atoms: C_4  and  N_5
REMARK    4  A    between atoms: N_5  and  C_6
REMARK    5  A    between atoms: C_7  and  C_12
REMARK    6  A    between atoms: C_15  and  C_17
REMARK    7  A    between atoms: N_21  and  C_22
REMARK    8  A    between atoms: C_22  and  C_23
REMARK                            x       y       z     vdW  Elec       q    Type
REMARK                         _______ _______ _______ _____ _____    ______ ____
ROOT
ATOM     12  C   UNL     1      -3.724   2.064  24.523  0.00  0.00    +0.206 A 
ATOM     13  N   UNL     1      -3.604   2.010  23.708  0.00  0.00    -0.056 NA
ATOM     14  O   UNL     1      -3.078   1.389  23.569  0.00  0.00    -0.336 OA
ATOM     15  C   UNL     1      -2.873   1.060  24.297  0.00  0.00    +0.251 A 
ATOM     16  N   UNL     1      -3.273   1.477  24.887  0.00  0.00    -0.190 NA
ENDROOT
BRANCH  12   7
ATOM      6  C   UNL     1      -3.892   3.315  25.192  0.00  0.00    +0.151 A 
ATOM      7  C   UNL     1      -4.210   2.609  24.906  0.00  0.00    +0.072 A 
ATOM      8  C   UNL     1      -5.013   2.449  25.004  0.00  0.00    +0.008 A 
ATOM      9  C   UNL     1      -5.499   2.994  25.387  0.00  0.00    +0.021 A 
ATOM     10  C   UNL     1      -5.182   3.700  25.673  0.00  0.00    +0.100 A 
ATOM     11  N   UNL     1      -4.378   3.861  25.575  0.00  0.00    -0.228 NA
BRANCH   6   5
ATOM      5  N   UNL     1      -3.089   3.476  25.094  0.00  0.00    -0.218 NA
BRANCH   5   4
ATOM      4  C   UNL     1      -2.779   4.199  25.344  0.00  0.00    +0.146 C 
BRANCH   4   3
ATOM      3  C   UNL     1      -1.964   4.323  25.338  0.00  0.00    +0.166 C 
BRANCH   3   2
ATOM      1  C   UNL     1      -0.935   5.237  24.955  0.00  0.00    +0.174 C 
ATOM      2  O   UNL     1      -1.663   5.091  25.312  0.00  0.00    -0.349 OA
ENDBRANCH   3   2
ENDBRANCH   4   3
ENDBRANCH   5   4
ENDBRANCH   6   5
ENDBRANCH  12   7
BRANCH  15  17
ATOM     17  C   UNL     1      -2.360   0.425  24.415  0.00  0.00    +0.138 C 
ATOM     18  C   UNL     1      -1.536   0.453  24.370  0.00  0.00    +0.027 C 
ATOM     19  C   UNL     1      -1.247  -0.304  24.527  0.00  0.00    +0.019 C 
ATOM     20  C   UNL     1      -1.891  -0.799  24.667  0.00  0.00    +0.073 C 
ATOM     21  N   UNL     1      -2.579  -0.348  24.599  0.00  0.00    -0.266 NA
BRANCH  21  22
ATOM     22  C   UNL     1      -3.351  -0.624  24.696  0.00  0.00    +0.072 C 
BRANCH  22  23
ATOM     23  C   UNL     1      -3.521  -1.423  24.586  0.00  0.00    +0.016 C 
ATOM     24  C   UNL     1      -3.892  -1.675  23.894  0.00  0.00    +0.001 C 
ATOM     25  C   UNL     1      -4.062  -2.474  23.784  0.00  0.00    +0.000 C 
ATOM     26  C   UNL     1      -3.861  -3.022  24.366  0.00  0.00    +0.000 C 
ATOM     27  C   UNL     1      -3.489  -2.772  25.059  0.00  0.00    +0.000 C 
ATOM     28  C   UNL     1      -3.319  -1.971  25.168  0.00  0.00    +0.001 C 
ENDBRANCH  22  23
ENDBRANCH  21  22
ENDBRANCH  15  17
TORSDOF 8
ENDMDL
MODEL 3
REMARK VINA RESULT:     -10.5      1.133      2.960
REMARK  Name = 
REMARK  8 active torsions:
REMARK  status: ('A' for Active; 'I' for Inactive)
REMARK    1  A    between atoms: O_2  and  C_3
REMARK    2  A    between atoms: C_3  and  C_4
REMARK    3  A    between atoms: C_4  and  N_5
REMARK    4  A    between atoms: N_5  and  C_6
REMARK    5  A    between atoms: C_7  and  C_12
REMARK    6  A    between atoms: C_15  and  C_17
REMARK    7  A    between atoms: N_21  and  C_22
REMARK    8  A    between atoms: C_22  and  C_23
REMARK                            x       y       z     vdW  Elec       q    Type
REMARK                         _______ _______ _______ _____ _____    ______ ____
ROOT
ATOM     12  C   UNL     1      -1.687   2.418  24.353  0.00  0.00    +0.206 A 
ATOM     13  N   UNL     1      -1.863   2.231  23.568  0.00  0.00    -0.056 NA
ATOM     14  O   UNL     1      -1.708   1.428  23.457  0.00  0.00    -0.336 OA
ATOM     15  C   UNL     1      -1.436   1.119  24.172  0.00  0.00    +0.251 A 
ATOM     16  N   UNL     1      -1.423   1.731  24.725  0.00  0.00    -0.190 NA
ENDROOT
BRANCH  12   7
ATOM      6  C   UNL     1      -2.503   3.428  24.948  0.00  0.00    +0.151 A 
ATOM      7  C   UNL     1      -1.762   3.161  24.702  0.00  0.00    +0.072 A 
ATOM      8  C   UNL     1      -1.097   3.637  24.806  0.00  0.00    +0.008 A 
ATOM      9  C   UNL     1      -1.172   4.380  25.155  0.00  0.00    +0.021 A 
ATOM     10  C   UNL     1      -1.912   4.648  25.401  0.00  0.00    +0.100 A 
ATOM     11  N   UNL     1      -2.578   4.172  25.298  0.00  0.00    -0.228 NA
BRANCH   6   5
ATOM      5  N   UNL     1      -3.168   2.953  24.845  0.00  0.00    -0.218 NA
BRANCH   5   4
ATOM      4  C   UNL     1      -3.892   3.177  25.171  0.00  0.00    +0.146 C 
BRANCH   4   3
ATOM      3  C   UNL     1      -4.584   2.790  24.947  0.00  0.00    +0.166 C 
BRANCH   3   2
ATOM      1  C   UNL     1      -5.781   2.095  25.303  0.00  0.00    +0.174 C 
ATOM      2  O   UNL     1      -5.122   2.539  25.521  0.00  0.00    -0.349 OA
ENDBRANCH   3   2
ENDBRANCH   4   3
ENDBRANCH   5   4
ENDBRANCH   6   5
ENDBRANCH  12   7
BRANCH  15  17
ATOM     17  C   UNL     1      -1.215   0.336  24.310  0.00  0.00    +0.138 C 
ATOM     18  C   UNL     1      -0.451   0.031  24.253  0.00  0.00    +0.027 C 
ATOM     19  C   UNL     1      -0.483  -0.773  24.437  0.00  0.00    +0.019 C 
ATOM     20  C   UNL     1      -1.267  -0.964  24.607  0.00  0.00    +0.073 C 
ATOM     21  N   UNL     1      -1.720  -0.279  24.529  0.00  0.00    -0.266 NA
BRANCH  21  22
ATOM     22  C   UNL     1      -2.534  -0.219  24.648  0.00  0.00    +0.072 C 
BRANCH  22  23
ATOM     23  C   UNL     1      -2.999  -0.899  24.664  0.00  0.00    +0.016 C 
ATOM     24  C   UNL     1      -3.441  -1.112  24.000  0.00  0.00    +0.001 C 
ATOM     25  C   UNL     1      -3.907  -1.792  24.015  0.00  0.00    +0.000 C 
ATOM     26  C   UNL     1      -3.932  -2.260  24.693  0.00  0.00    +0.000 C 
ATOM     27  C   UNL     1      -3.491  -2.048  25.357  0.00  0.00    +0.000 C 
ATOM     28  C   UNL     1      -3.024  -1.367  25.342  0.00  0.00    +0.001 C 
ENDBRANCH  22  23
ENDBRANCH  21  22
ENDBRANCH  15  17
TORSDOF 8
ENDMDL
MODEL 4
REMARK VINA RESULT:     -10.3      1.231      4.080
REMARK  Name = 
REMARK  8 active torsions:
REMARK  status: ('A' for Active; 'I' for Inactive)
REMARK    1  A    between atoms: O_2  and  C_3
REMARK    2  A    between atoms: C_3  and  C_4
REMARK    3  A    between atoms: C_4  and  N_5
REMARK    4  A    between atoms: N_5  and  C_6
REMARK    5  A    between atoms: C_7  and  C_12
REMARK    6  A    between atoms: C_15  and  C_17
REMARK    7  A    between atoms: N_21  and  C_22
REMARK    8  A    between atoms: C_22  and  C_23
REMARK                            x       y       z     vdW  Elec       q    Type
REMARK                         _______ _______ _______ _____ _____    ______ ____
ROOT
ATOM     12  C   UNL     1      -3.661  -0.260  24.346  0.00  0.00    +0.206 A 
ATOM     13  N   UNL     1      -3.711   0.116  23.613  0.00  0.00    -0.056 NA
ATOM     14  O   UNL     1      -3.994   0.881  23.737  0.00  0.00    -0.336 OA
ATOM     15  C   UNL     1      -4.120   0.978  24.547  0.00  0.00    +0.251 A 
ATOM     16  N   UNL     1      -3.914   0.273  24.923  0.00  0.00    -0.190 NA
ENDROOT
BRANCH  12   7
ATOM      6  C   UNL     1      -2.599  -1.186  24.583  0.00  0.00    +0.151 A 
ATOM      7  C   UNL     1      -3.403  -1.032  24.478  0.00  0.00    +0.072 A 
ATOM      8  C   UNL     1      -3.949  -1.649  24.505  0.00  0.00    +0.008 A 
ATOM      9  C   UNL     1      -3.692  -2.422  24.637  0.00  0.00    +0.021 A 
ATOM     10  C   UNL     1      -2.888  -2.578  24.742  0.00  0.00    +0.100 A 
ATOM     11  N   UNL     1      -2.342  -1.959  24.715  0.00  0.00    -0.228 NA
BRANCH   6   5
ATOM      5  N   UNL     1      -2.054  -0.569  24.555  0.00  0.00    -0.218 NA
BRANCH   5   4
ATOM      4  C   UNL     1      -1.245  -0.732  24.558  0.00  0.00    +0.146 C 
BRANCH   4   3
ATOM      3  C   UNL     1      -0.700  -0.120  24.651  0.00  0.00    +0.166 C 
BRANCH   3   2
ATOM      1  C   UNL     1       0.191   0.807  24.028  0.00  0.00    +0.174 C 
ATOM      2  O   UNL     1      -0.191   0.077  24.032  0.00  0.00    -0.349 OA
ENDBRANCH   3   2
ENDBRANCH   4   3
ENDBRANCH   5   4
ENDBRANCH   6   5
ENDBRANCH  12   7
BRANCH  15  17
ATOM     17  C   UNL     1      -4.402   1.659  24.916  0.00  0.00    +0.138 C 
ATOM     18  C   UNL     1      -5.142   1.749  25.269  0.00  0.00    +0.027 C 
ATOM     19  C   UNL     1      -5.191   2.516  25.569  0.00  0.00    +0.019 C 
ATOM     20  C   UNL     1      -4.481   2.901  25.401  0.00  0.00    +0.073 C 
ATOM     21  N   UNL     1      -3.993   2.371  24.998  0.00  0.00    -0.266 NA
BRANCH  21  22
ATOM     22  C   UNL     1      -3.231   2.527  24.724  0.00  0.00    +0.072 C 
BRANCH  22  23
ATOM     23  C   UNL     1      -2.811   3.173  25.018  0.00  0.00    +0.016 C 
ATOM     24  C   UNL     1      -2.292   3.073  25.653  0.00  0.00    +0.001 C 
ATOM     25  C   UNL     1      -1.872   3.719  25.947  0.00  0.00    +0.000 C 
ATOM     26  C   UNL     1      -1.970   4.464  25.608  0.00  0.00    +0.000 C 
ATOM     27  C   UNL     1      -2.488   4.565  24.974  0.00  0.00    +0.000 C 
ATOM     28  C   UNL     1      -2.909   3.918  24.679  0.00  0.00    +0.001 C 
ENDBRANCH  22  23
ENDBRANCH  21  22
ENDBRANCH  15  17
TORSDOF 8
ENDMDL
MODEL 5
REMARK VINA RESULT:     -10.0      1.278      5.043
REMARK  Name = 
REMARK  8 active torsions:
REMARK  status: ('A' for Active; 'I' for Inactive)
REMARK    1  A    between atoms: O_2  and  C_3
REMARK    2  A    between atoms: C_3  and  C_4
REMARK    3  A    between atoms: C_4  and  N_5
REMARK    4  A    between atoms: N_5  and  C_6
REMARK    5  A    between atoms: C_7  and  C_12
REMARK    6  A    between atoms: C_15  and  C_17
REMARK    7  A    between atoms: N_21  and  C_22
REMARK    8  A    between atoms: C_22  and  C_23
REMARK                            x       y       z     vdW  Elec       q    Type
REMARK                         _______ _______ _______ _____ _____    ______ ____
ROOT
ATOM     12  C   UNL     1      -2.066   0.129  24.783  0.00  0.00    +0.206 A 
ATOM     13  N   UNL     1      -1.752   0.416  24.076  0.00  0.00    -0.056 NA
ATOM     14  O   UNL     1      -1.233   1.032  24.259  0.00  0.00    -0.336 OA
ATOM     15  C   UNL     1      -1.227   1.125  25.078  0.00  0.00    +0.251 A 
ATOM     16  N   UNL     1      -1.741   0.567  25.402  0.00  0.00    -0.190 NA
ENDROOT
BRANCH  12   7
ATOM      6  C   UNL     1      -3.417  -0.324  24.891  0.00  0.00    +0.151 A 
ATOM      7  C   UNL     1      -2.608  -0.488  24.858  0.00  0.00    +0.072 A 
ATOM      8  C   UNL     1      -2.343  -1.267  24.899  0.00  0.00    +0.008 A 
ATOM      9  C   UNL     1      -2.886  -1.884  24.973  0.00  0.00    +0.021 A 
ATOM     10  C   UNL     1      -3.694  -1.721  25.006  0.00  0.00    +0.100 A 
ATOM     11  N   UNL     1      -3.959  -0.941  24.965  0.00  0.00    -0.228 NA
BRANCH   6   5
ATOM      5  N   UNL     1      -3.682   0.456  24.850  0.00  0.00    -0.218 NA
BRANCH   5   4
ATOM      4  C   UNL     1      -4.477   0.630  24.986  0.00  0.00    +0.146 C 
BRANCH   4   3
ATOM      3  C   UNL     1      -4.766   1.386  24.834  0.00  0.00    +0.166 C 
BRANCH   3   2
ATOM      1  C   UNL     1      -5.622   2.470  25.201  0.00  0.00    +0.174 C 
ATOM      2  O   UNL     1      -5.224   1.776  25.399  0.00  0.00    -0.349 OA
ENDBRANCH   3   2
ENDBRANCH   4   3
ENDBRANCH   5   4
ENDBRANCH   6   5
ENDBRANCH  12   7
BRANCH  15  17
ATOM     17  C   UNL     1      -0.784   1.678  25.500  0.00  0.00    +0.138 C 
ATOM     18  C   UNL     1      -0.210   1.508  26.069  0.00  0.00    +0.027 C 
ATOM     19  C   UNL     1       0.091   2.224  26.348  0.00  0.00    +0.019 C 
ATOM     20  C   UNL     1      -0.295   2.836  25.952  0.00  0.00    +0.073 C 
ATOM     21  N   UNL     1      -0.837   2.498  25.428  0.00  0.00    -0.266 NA
BRANCH  21  22
ATOM     22  C   UNL     1      -1.341   2.909  24.922  0.00  0.00    +0.072 C 
BRANCH  22  23
ATOM     23  C   UNL     1      -1.450   3.721  25.017  0.00  0.00    +0.016 C 
ATOM     24  C   UNL     1      -2.114   4.005  25.417  0.00  0.00    +0.001 C 
ATOM     25  C   UNL     1      -2.222   4.816  25.512  0.00  0.00    +0.000 C 
ATOM     26  C   UNL     1      -1.668   5.346  25.207  0.00  0.00    +0.000 C 
ATOM     27  C   UNL     1      -1.004   5.063  24.807  0.00  0.00    +0.000 C 
ATOM     28  C   UNL     1      -0.896   4.250  24.712  0.00  0.00    +0.001 C 
ENDBRANCH  22  23
ENDBRANCH  21  22
ENDBRANCH  15  17
TORSDOF 8
ENDMDL
MODEL 6
REMARK VINA RESULT:      -9.7      1.177      2.408
REMARK  Name = 
REMARK  8 active torsions:
REMARK  status: ('A' for Active; 'I' for Inactive)
REMARK    1  A    between atoms: O_2  and  C_3
REMARK    2  A    between atoms: C_3  and  C_4
REMARK    3  A    between atoms: C_4  and  N_5
REMARK    4  A    between atoms: N_5  and  C_6
REMARK    5  A    between atoms: C_7  and  C_12
REMARK    6  A    between atoms: C_15  and  C_17
REMARK    7  A    between atoms: N_21  and  C_22
REMARK    8  A    between atoms: C_22  and  C_23
REMARK                            x       y       z     vdW  Elec       q    Type
REMARK                         _______ _______ _______ _____ _____    ______ ____
ROOT
ATOM     12  C   UNL     1      -1.655   1.497  23.910  0.00  0.00    +0.206 A 
ATOM     13  N   UNL     1      -2.091   1.758  23.259  0.00  0.00    -0.056 NA
ATOM     14  O   UNL     1      -2.877   1.533  23.371  0.00  0.00    -0.336 OA
ATOM     15  C   UNL     1      -2.927   1.132  24.091  0.00  0.00    +0.251 A 
ATOM     16  N   UNL     1      -2.172   1.110  24.423  0.00  0.00    -0.190 NA
ENDROOT
BRANCH  12   7
ATOM      6  C   UNL     1      -0.565   2.311  24.344  0.00  0.00    +0.151 A 
ATOM      7  C   UNL     1      -0.845   1.604  24.026  0.00  0.00    +0.072 A 
ATOM      8  C   UNL     1      -0.318   1.003  23.824  0.00  0.00    +0.008 A 
ATOM      9  C   UNL     1       0.492   1.110  23.940  0.00  0.00    +0.021 A 
ATOM     10  C   UNL     1       0.774   1.817  24.258  0.00  0.00    +0.100 A 
ATOM     11  N   UNL     1       0.245   2.418  24.460  0.00  0.00    -0.228 NA
BRANCH   6   5
ATOM      5  N   UNL     1      -1.093   2.911  24.546  0.00  0.00    -0.218 NA
BRANCH   5   4
ATOM      4  C   UNL     1      -0.810   3.631  24.833  0.00  0.00    +0.146 C 
BRANCH   4   3
ATOM      3  C   UNL     1      -1.337   4.203  25.105  0.00  0.00    +0.166 C 
BRANCH   3   2
ATOM      1  C   UNL     1      -1.684   5.589  25.151  0.00  0.00    +0.174 C 
ATOM      2  O   UNL     1      -1.111   4.997  25.129  0.00  0.00    -0.349 OA
ENDBRANCH   3   2
ENDBRANCH   4   3
ENDBRANCH   5   4
ENDBRANCH   6   5
ENDBRANCH  12   7
BRANCH  15  17
ATOM     17  C   UNL     1      -3.611   0.810  24.420  0.00  0.00    +0.138 C 
ATOM     18  C   UNL     1      -4.179   1.221  24.855  0.00  0.00    +0.027 C 
ATOM     19  C   UNL     1      -4.767   0.685  25.076  0.00  0.00    +0.019 C 
ATOM     20  C   UNL     1      -4.562  -0.056  24.778  0.00  0.00    +0.073 C 
ATOM     21  N   UNL     1      -3.847   0.021  24.372  0.00  0.00    -0.266 NA
BRANCH  21  22
ATOM     22  C   UNL     1      -3.441  -0.585  23.987  0.00  0.00    +0.072 C 
BRANCH  22  23
ATOM     23  C   UNL     1      -3.591  -1.372  24.182  0.00  0.00    +0.016 C 
ATOM     24  C   UNL     1      -4.146  -1.805  23.753  0.00  0.00    +0.001 C 
ATOM     25  C   UNL     1      -4.296  -2.592  23.948  0.00  0.00    +0.000 C 
ATOM     26  C   UNL     1      -3.891  -2.946  24.573  0.00  0.00    +0.000 C 
ATOM     27  C   UNL     1      -3.336  -2.514  25.003  0.00  0.00    +0.000 C 
ATOM     28  C   UNL     1      -3.186  -1.726  24.808  0.00  0.00    +0.001 C 
ENDBRANCH  22  23
ENDBRANCH  21  22
ENDBRANCH  15  17
TORSDOF 8
ENDMDL
MODEL 7
REMARK VINA RESULT:      -9.5      1.997      3.640
REMARK  Name = 
REMARK  8 active torsions:
REMARK  status: ('A' for Active; 'I' for Inactive)
REMARK    1  A    between atoms: O_2  and  C_3
REMARK    2  A    between atoms: C_3  and  C_4
REMARK    3  A    between atoms: C_4  and  N_5
REMARK    4  A    between atoms: N_5  and  C_6
REMARK    5  A    between atoms: C_7  and  C_12
REMARK    6  A    between atoms: C_15  and  C_17
REMARK    7  A    between atoms: N_21  and  C_22
REMARK    8  A    between atoms: C_22  and  C_23
REMARK                            x       y       z     vdW  Elec       q    Type
REMARK                         _______ _______ _______ _____ _____    ______ ____
ROOT
ATOM     12  C   UNL     1      -1.433   0.604  24.810  0.00  0.00    +0.206 A 
ATOM     13  N   UNL     1      -1.111   1.311  25.089  0.00  0.00    -0.056 NA
ATOM     14  O   UNL     1      -1.555   1.933  24.777  0.00  0.00    -0.336 OA
ATOM     15  C   UNL     1      -2.150   1.611  24.305  0.00  0.00    +0.251 A 
ATOM     16  N   UNL     1      -2.074   0.789  24.325  0.00  0.00    -0.190 NA
ENDROOT
BRANCH  12   7
ATOM      6  C   UNL     1      -0.522  -0.470  24.566  0.00  0.00    +0.151 A 
ATOM      7  C   UNL     1      -1.160  -0.155  24.984  0.00  0.00    +0.072 A 
ATOM      8  C   UNL     1      -1.525  -0.598  25.576  0.00  0.00    +0.008 A 
ATOM      9  C   UNL     1      -1.252  -1.357  25.751  0.00  0.00    +0.021 A 
ATOM     10  C   UNL     1      -0.614  -1.672  25.333  0.00  0.00    +0.100 A 
ATOM     11  N   UNL     1      -0.249  -1.228  24.741  0.00  0.00    -0.228 NA
BRANCH   6   5
ATOM      5  N   UNL     1      -0.157  -0.027  23.974  0.00  0.00    -0.218 NA
BRANCH   5   4
ATOM      4  C   UNL     1       0.447  -0.360  23.521  0.00  0.00    +0.146 C 
BRANCH   4   3
ATOM      3  C   UNL     1       0.938   0.123  23.068  0.00  0.00    +0.166 C 
BRANCH   3   2
ATOM      1  C   UNL     1       2.228   0.140  22.454  0.00  0.00    +0.174 C 
ATOM      2  O   UNL     1       1.490  -0.214  22.556  0.00  0.00    -0.349 OA
ENDBRANCH   3   2
ENDBRANCH   4   3
ENDBRANCH   5   4
ENDBRANCH   6   5
ENDBRANCH  12   7
BRANCH  15  17
ATOM     17  C   UNL     1      -2.720   2.035  23.886  0.00  0.00    +0.138 C 
ATOM     18  C   UNL     1      -2.675   2.254  23.092  0.00  0.00    +0.027 C 
ATOM     19  C   UNL     1      -3.363   2.669  22.903  0.00  0.00    +0.019 C 
ATOM     20  C   UNL     1      -3.832   2.706  23.580  0.00  0.00    +0.073 C 
ATOM     21  N   UNL     1      -3.435   2.314  24.188  0.00  0.00    -0.266 NA
BRANCH  21  22
ATOM     22  C   UNL     1      -3.706   2.219  24.961  0.00  0.00    +0.072 C 
BRANCH  22  23
ATOM     23  C   UNL     1      -4.493   2.382  25.145  0.00  0.00    +0.016 C 
ATOM     24  C   UNL     1      -5.066   1.794  25.062  0.00  0.00    +0.001 C 
ATOM     25  C   UNL     1      -5.853   1.956  25.247  0.00  0.00    +0.000 C 
ATOM     26  C   UNL     1      -6.068   2.706  25.515  0.00  0.00    +0.000 C 
ATOM     27  C   UNL     1      -5.496   3.294  25.598  0.00  0.00    +0.000 C 
ATOM     28  C   UNL     1      -4.708   3.131  25.413  0.00  0.00    +0.001 C 
ENDBRANCH  22  23
ENDBRANCH  21  22
ENDBRANCH  15  17
TORSDOF 8
ENDMDL
MODEL 8
REMARK VINA RESULT:      -9.5      1.170      3.735
REMARK  Name = 
REMARK  8 active torsions:
REMARK  status: ('A' for Active; 'I' for Inactive)
REMARK    1  A    between atoms: O_2  and  C_3
REMARK    2  A    between atoms: C_3  and  C_4
REMARK    3  A    between atoms: C_4  and  N_5
REMARK    4  A    between atoms: N_5  and  C_6
REMARK    5  A    between atoms: C_7  and  C_12
REMARK    6  A    between atoms: C_15  and  C_17
REMARK    7  A    between atoms: N_21  and  C_22
REMARK    8  A    between atoms: C_22  and  C_23
REMARK                            x       y       z     vdW  Elec       q    Type
REMARK                         _______ _______ _______ _____ _____    ______ ____
ROOT
ATOM     12  C   UNL     1      -3.481   2.663  24.825  0.00  0.00    +0.206 A 
ATOM     13  N   UNL     1      -3.233   2.933  24.085  0.00  0.00    -0.056 NA
ATOM     14  O   UNL     1      -2.409   2.898  24.064  0.00  0.00    -0.336 OA
ATOM     15  C   UNL     1      -2.147   2.606  24.789  0.00  0.00    +0.251 A 
ATOM     16  N   UNL     1      -2.810   2.461  25.260  0.00  0.00    -0.190 NA
ENDROOT
BRANCH  12   7
ATOM      6  C   UNL     1      -4.667   1.890  25.016  0.00  0.00    +0.151 A 
ATOM      7  C   UNL     1      -4.262   2.606  25.084  0.00  0.00    +0.072 A 
ATOM      8  C   UNL     1      -4.638   3.263  25.410  0.00  0.00    +0.008 A 
ATOM      9  C   UNL     1      -5.419   3.206  25.669  0.00  0.00    +0.021 A 
ATOM     10  C   UNL     1      -5.825   2.491  25.601  0.00  0.00    +0.100 A 
ATOM     11  N   UNL     1      -5.448   1.833  25.274  0.00  0.00    -0.228 NA
BRANCH   6   5
ATOM      5  N   UNL     1      -4.292   1.233  24.690  0.00  0.00    -0.218 NA
BRANCH   5   4
ATOM      4  C   UNL     1      -4.646   0.489  24.736  0.00  0.00    +0.146 C 
BRANCH   4   3
ATOM      3  C   UNL     1      -4.381  -0.125  24.254  0.00  0.00    +0.166 C 
BRANCH   3   2
ATOM      1  C   UNL     1      -4.197  -1.531  24.070  0.00  0.00    +0.174 C 
ATOM      2  O   UNL     1      -4.268  -0.879  24.570  0.00  0.00    -0.349 OA
ENDBRANCH   3   2
ENDBRANCH   4   3
ENDBRANCH   5   4
ENDBRANCH   6   5
ENDBRANCH  12   7
BRANCH  15  17
ATOM     17  C   UNL     1      -1.362   2.481  25.007  0.00  0.00    +0.138 C 
ATOM     18  C   UNL     1      -0.929   2.935  25.543  0.00  0.00    +0.027 C 
ATOM     19  C   UNL     1      -0.170   2.615  25.595  0.00  0.00    +0.019 C 
ATOM     20  C   UNL     1      -0.134   1.963  25.091  0.00  0.00    +0.073 C 
ATOM     21  N   UNL     1      -0.871   1.880  24.727  0.00  0.00    -0.266 NA
BRANCH  21  22
ATOM     22  C   UNL     1      -1.079   1.299  24.181  0.00  0.00    +0.072 C 
BRANCH  22  23
ATOM     23  C   UNL     1      -0.648   0.597  24.141  0.00  0.00    +0.016 C 
ATOM     24  C   UNL     1      -0.029   0.522  23.600  0.00  0.00    +0.001 C 
ATOM     25  C   UNL     1       0.401  -0.180  23.560  0.00  0.00    +0.000 C 
ATOM     26  C   UNL     1       0.214  -0.808  24.061  0.00  0.00    +0.000 C 
ATOM     27  C   UNL     1      -0.404  -0.734  24.603  0.00  0.00    +0.000 C 
ATOM     28  C   UNL     1      -0.835  -0.031  24.642  0.00  0.00    +0.001 C 
ENDBRANCH  22  23
ENDBRANCH  21  22
ENDBRANCH  15  17
TORSDOF 8
ENDMDL
