MODEL 1
REMARK VINA RESULT:     -11.1      0.000      0.000
REMARK  Name = 
REMARK  5 active torsions:
REMARK  status: ('A' for Active; 'I' for Inactive)
REMARK    1  A    between atoms: O_2  and  C_3
REMARK    2  A    between atoms: C_6  and  C_9
REMARK    3  A    between atoms: C_13  and  C_15
REMARK    4  A    between atoms: C_22  and  C_23
REMARK    5  A    between atoms: C_23  and  N_24
REMARK                            x       y       z     vdW  Elec       q    Type
REMARK                         _______ _______ _______ _____ _____    ______ ____
ROOT
ATOM      9  C   UNL     1      -4.156   0.061  24.755  0.00  0.00    +0.102 A 
ATOM     10  N   UNL     1      -4.874   0.433  24.918  0.00  0.00    -0.170 NA
ATOM     11  N   UNL     1      -4.735   1.244  24.970  0.00  0.00    -0.253 N 
ATOM     12  C   UNL     1      -5.301   1.824  25.126  0.00  0.00    +0.153 C 
ATOM     13  C   UNL     1      -3.931   1.374  24.839  0.00  0.00    +0.058 A 
ATOM     14  C   UNL     1      -3.573   0.643  24.706  0.00  0.00    +0.035 A 
ENDROOT
BRANCH  13  15
ATOM     15  C   UNL     1      -3.552   2.108  24.840  0.00  0.00    +0.056 C 
ATOM     16  C   UNL     1      -3.500   2.481  25.521  0.00  0.00    +0.078 C 
ATOM     17  N   UNL     1      -3.211   2.748  24.796  0.00  0.00    -0.272 NA
ATOM     18  C   UNL     1      -3.441   2.016  24.082  0.00  0.00    +0.072 C 
ATOM     19  C   UNL     1      -3.426   1.799  23.466  0.00  0.00    +0.018 C 
ATOM     20  C   UNL     1      -3.265   2.377  24.132  0.00  0.00    +0.010 C 
ATOM     21  C   UNL     1      -2.839   3.112  23.912  0.00  0.00    +0.018 C 
ATOM     22  C   UNL     1      -2.767   3.510  24.559  0.00  0.00    +0.079 C 
BRANCH  22  23
ATOM     23  C   UNL     1      -2.466   4.214  24.864  0.00  0.00    +0.131 C 
BRANCH  23  24
ATOM     24  N   UNL     1      -1.670   4.401  24.760  0.00  0.00    -0.204 NA
ATOM     25  C   UNL     1      -1.376   5.123  25.030  0.00  0.00    +0.242 C 
ATOM     26  C   UNL     1      -0.580   5.310  24.925  0.00  0.00    +0.096 C 
ATOM     27  O   UNL     1      -1.880   5.659  25.404  0.00  0.00    -0.273 OA
ENDBRANCH  23  24
ENDBRANCH  22  23
ENDBRANCH  13  15
BRANCH   9   6
ATOM      3  C   UNL     1      -3.810  -2.372  24.464  0.00  0.00    +0.139 A 
ATOM      4  C   UNL     1      -4.214  -1.941  23.888  0.00  0.00    +0.037 A 
ATOM      5  C   UNL     1      -4.329  -1.130  23.985  0.00  0.00    +0.005 A 
ATOM      6  C   UNL     1      -4.041  -0.750  24.658  0.00  0.00    +0.020 A 
ATOM      7  C   UNL     1      -3.637  -1.181  25.234  0.00  0.00    +0.005 A 
ATOM      8  C   UNL     1      -3.522  -1.993  25.137  0.00  0.00    +0.037 A 
BRANCH   3   2
ATOM      1  C   UNL     1      -2.930  -3.486  24.301  0.00  0.00    +0.252 C 
ATOM      2  O   UNL     1      -3.695  -3.183  24.367  0.00  0.00    -0.471 OA
ENDBRANCH   3   2
ENDBRANCH   9   6
TORSDOF 5
ENDMDL
MODEL 2
REMARK VINA RESULT:     -10.2      0.919      5.329
REMARK  Name = 
REMARK  5 active torsions:
REMARK  status: ('A' for Active; 'I' for Inactive)
REMARK    1  A    between atoms: O_2  and  C_3
REMARK    2  A    between atoms: C_6  and  C_9
REMARK    3  A    between atoms: C_13  and  C_15
REMARK    4  A    between atoms: C_22  and  C_23
REMARK    5  A    between atoms: C_23  and  N_24
REMARK                            x       y       z     vdW  Elec       q    Type
REMARK                         _______ _______ _______ _____ _____    ______ ____
ROOT
ATOM      9  C   UNL     1      -3.460   2.846  25.060  0.00  0.00    +0.102 A 
ATOM     10  N   UNL     1      -4.273   2.871  25.198  0.00  0.00    -0.170 NA
ATOM     11  N   UNL     1      -4.577   2.114  25.070  0.00  0.00    -0.253 N 
ATOM     12  C   UNL     1      -5.367   1.889  25.145  0.00  0.00    +0.153 C 
ATOM     13  C   UNL     1      -3.951   1.622  24.853  0.00  0.00    +0.058 A 
ATOM     14  C   UNL     1      -3.261   2.074  24.847  0.00  0.00    +0.035 A 
ENDROOT
BRANCH  13  15
ATOM     15  C   UNL     1      -4.007   0.818  24.674  0.00  0.00    +0.056 C 
ATOM     16  C   UNL     1      -4.326   0.354  25.211  0.00  0.00    +0.078 C 
ATOM     17  N   UNL     1      -4.036   0.119  24.475  0.00  0.00    -0.272 NA
ATOM     18  C   UNL     1      -3.675   0.979  23.995  0.00  0.00    +0.072 C 
ATOM     19  C   UNL     1      -3.394   1.266  23.480  0.00  0.00    +0.018 C 
ATOM     20  C   UNL     1      -3.723   0.579  23.953  0.00  0.00    +0.010 C 
ATOM     21  C   UNL     1      -3.684  -0.208  23.568  0.00  0.00    +0.018 C 
ATOM     22  C   UNL     1      -3.991  -0.697  24.068  0.00  0.00    +0.079 C 
BRANCH  22  23
ATOM     23  C   UNL     1      -4.174  -1.493  24.177  0.00  0.00    +0.131 C 
BRANCH  23  24
ATOM     24  N   UNL     1      -3.598  -2.015  24.454  0.00  0.00    -0.204 NA
ATOM     25  C   UNL     1      -3.700  -2.828  24.363  0.00  0.00    +0.242 C 
ATOM     26  C   UNL     1      -3.124  -3.350  24.640  0.00  0.00    +0.096 C 
ATOM     27  O   UNL     1      -4.378  -3.120  23.994  0.00  0.00    -0.273 OA
ENDBRANCH  23  24
ENDBRANCH  22  23
ENDBRANCH  13  15
BRANCH   9   6
ATOM      3  C   UNL     1      -1.892   4.751  25.254  0.00  0.00    +0.139 A 
ATOM      4  C   UNL     1      -2.546   4.804  24.753  0.00  0.00    +0.037 A 
ATOM      5  C   UNL     1      -3.069   4.169  24.689  0.00  0.00    +0.005 A 
ATOM      6  C   UNL     1      -2.938   3.481  25.124  0.00  0.00    +0.020 A 
ATOM      7  C   UNL     1      -2.284   3.428  25.625  0.00  0.00    +0.005 A 
ATOM      8  C   UNL     1      -1.761   4.064  25.689  0.00  0.00    +0.037 A 
BRANCH   3   2
ATOM      1  C   UNL     1      -0.678   5.398  24.869  0.00  0.00    +0.252 C 
ATOM      2  O   UNL     1      -1.370   5.386  25.318  0.00  0.00    -0.471 OA
ENDBRANCH   3   2
ENDBRANCH   9   6
TORSDOF 5
ENDMDL
MODEL 3
REMARK VINA RESULT:      -9.4      2.225      2.642
REMARK  Name = 
REMARK  5 active torsions:
REMARK  status: ('A' for Active; 'I' for Inactive)
REMARK    1  A    between atoms: O_2  and  C_3
REMARK    2  A    between atoms: C_6  and  C_9
REMARK    3  A    between atoms: C_13  and  C_15
REMARK    4  A    between atoms: C_22  and  C_23
REMARK    5  A    between atoms: C_23  and  N_24
REMARK                            x       y       z     vdW  Elec       q    Type
REMARK                         _______ _______ _______ _____ _____    ______ ____
ROOT
ATOM      9  C   UNL     1      -1.537  -0.486  24.469  0.00  0.00    +0.102 A 
ATOM     10  N   UNL     1      -0.803  -0.511  24.095  0.00  0.00    -0.170 NA
ATOM     11  N   UNL     1      -0.476   0.246  24.124  0.00  0.00    -0.253 N 
ATOM     12  C   UNL     1       0.255   0.471  23.815  0.00  0.00    +0.153 C 
ATOM     13  C   UNL     1      -1.009   0.738  24.517  0.00  0.00    +0.058 A 
ATOM     14  C   UNL     1      -1.665   0.286  24.730  0.00  0.00    +0.035 A 
ENDROOT
BRANCH  13  15
ATOM     15  C   UNL     1      -0.904   1.543  24.669  0.00  0.00    +0.056 C 
ATOM     16  C   UNL     1      -0.952   2.030  24.064  0.00  0.00    +0.078 C 
ATOM     17  N   UNL     1      -0.805   2.241  24.848  0.00  0.00    -0.272 NA
ATOM     18  C   UNL     1      -0.804   1.357  25.412  0.00  0.00    +0.072 C 
ATOM     19  C   UNL     1      -0.743   1.049  25.985  0.00  0.00    +0.018 C 
ATOM     20  C   UNL     1      -0.759   1.758  25.437  0.00  0.00    +0.010 C 
ATOM     21  C   UNL     1      -0.621   2.539  25.812  0.00  0.00    +0.018 C 
ATOM     22  C   UNL     1      -0.660   3.049  25.246  0.00  0.00    +0.079 C 
BRANCH  22  23
ATOM     23  C   UNL     1      -0.604   3.856  25.087  0.00  0.00    +0.131 C 
BRANCH  23  24
ATOM     24  N   UNL     1      -1.249   4.350  25.231  0.00  0.00    -0.204 NA
ATOM     25  C   UNL     1      -1.206   5.152  25.043  0.00  0.00    +0.242 C 
ATOM     26  C   UNL     1      -1.851   5.646  25.187  0.00  0.00    +0.096 C 
ATOM     27  O   UNL     1      -0.517   5.460  24.710  0.00  0.00    -0.273 OA
ENDBRANCH  23  24
ENDBRANCH  22  23
ENDBRANCH  13  15
BRANCH   9   6
ATOM      3  C   UNL     1      -3.088  -2.393  24.760  0.00  0.00    +0.139 A 
ATOM      4  C   UNL     1      -2.275  -2.526  24.710  0.00  0.00    +0.037 A 
ATOM      5  C   UNL     1      -1.759  -1.891  24.613  0.00  0.00    +0.005 A 
ATOM      6  C   UNL     1      -2.054  -1.122  24.566  0.00  0.00    +0.020 A 
ATOM      7  C   UNL     1      -2.867  -0.989  24.616  0.00  0.00    +0.005 A 
ATOM      8  C   UNL     1      -3.384  -1.625  24.713  0.00  0.00    +0.037 A 
BRANCH   3   2
ATOM      1  C   UNL     1      -4.010  -3.334  24.205  0.00  0.00    +0.252 C 
ATOM      2  O   UNL     1      -3.605  -3.029  24.856  0.00  0.00    -0.471 OA
ENDBRANCH   3   2
ENDBRANCH   9   6
TORSDOF 5
ENDMDL
MODEL 4
REMARK VINA RESULT:      -9.0      3.671      4.402
REMARK  Name = 
REMARK  5 active torsions:
REMARK  status: ('A' for Active; 'I' for Inactive)
REMARK    1  A    between atoms: O_2  and  C_3
REMARK    2  A    between atoms: C_6  and  C_9
REMARK    3  A    between atoms: C_13  and  C_15
REMARK    4  A    between atoms: C_22  and  C_23
REMARK    5  A    between atoms: C_23  and  N_24
REMARK                            x       y       z     vdW  Elec       q    Type
REMARK                         _______ _______ _______ _____ _____    ______ ____
ROOT
ATOM      9  C   UNL     1      -2.676   0.525  24.836  0.00  0.00    +0.102 A 
ATOM     10  N   UNL     1      -2.378  -0.007  25.391  0.00  0.00    -0.170 NA
ATOM     11  N   UNL     1      -1.597  -0.177  25.187  0.00  0.00    -0.253 N 
ATOM     12  C   UNL     1      -1.089  -0.685  25.593  0.00  0.00    +0.153 C 
ATOM     13  C   UNL     1      -1.413   0.250  24.506  0.00  0.00    +0.058 A 
ATOM     14  C   UNL     1      -2.080   0.684  24.289  0.00  0.00    +0.035 A 
ENDROOT
BRANCH  13  15
ATOM     15  C   UNL     1      -0.687   0.244  24.111  0.00  0.00    +0.056 C 
ATOM     16  C   UNL     1      -0.501  -0.402  23.718  0.00  0.00    +0.078 C 
ATOM     17  N   UNL     1      -0.042   0.282  23.779  0.00  0.00    -0.272 NA
ATOM     18  C   UNL     1      -0.574   0.961  24.374  0.00  0.00    +0.072 C 
ATOM     19  C   UNL     1      -0.624   1.544  24.664  0.00  0.00    +0.018 C 
ATOM     20  C   UNL     1      -0.231   0.911  24.166  0.00  0.00    +0.010 C 
ATOM     21  C   UNL     1       0.555   1.114  23.833  0.00  0.00    +0.018 C 
ATOM     22  C   UNL     1       0.775   0.500  23.436  0.00  0.00    +0.079 C 
BRANCH  22  23
ATOM     23  C   UNL     1       1.390   0.208  22.971  0.00  0.00    +0.131 C 
BRANCH  23  24
ATOM     24  N   UNL     1       2.157   0.490  23.077  0.00  0.00    -0.204 NA
ATOM     25  C   UNL     1       2.736   0.336  22.511  0.00  0.00    +0.242 C 
ATOM     26  C   UNL     1       3.504   0.619  22.617  0.00  0.00    +0.096 C 
ATOM     27  O   UNL     1       2.548  -0.101  21.837  0.00  0.00    -0.273 OA
ENDBRANCH  23  24
ENDBRANCH  22  23
ENDBRANCH  13  15
BRANCH   9   6
ATOM      3  C   UNL     1      -4.960   1.479  24.816  0.00  0.00    +0.139 A 
ATOM      4  C   UNL     1      -4.855   0.661  24.800  0.00  0.00    +0.037 A 
ATOM      5  C   UNL     1      -4.093   0.343  24.807  0.00  0.00    +0.005 A 
ATOM      6  C   UNL     1      -3.437   0.843  24.830  0.00  0.00    +0.020 A 
ATOM      7  C   UNL     1      -3.543   1.661  24.846  0.00  0.00    +0.005 A 
ATOM      8  C   UNL     1      -4.305   1.979  24.839  0.00  0.00    +0.037 A 
BRANCH   3   2
ATOM      1  C   UNL     1      -6.039   2.121  25.498  0.00  0.00    +0.252 C 
ATOM      2  O   UNL     1      -5.721   1.797  24.809  0.00  0.00    -0.471 OA
ENDBRANCH   3   2
ENDBRANCH   9   6
TORSDOF 5
ENDMDL
MODEL 5
REMARK VINA RESULT:      -8.9      1.630      5.730
REMARK  Name = 
REMARK  5 active torsions:
REMARK  status: ('A' for Active; 'I' for Inactive)
REMARK    1  A    between atoms: O_2  and  C_3
REMARK    2  A    between atoms: C_6  and  C_9
REMARK    3  A    between atoms: C_13  and  C_15
REMARK    4  A    between atoms: C_22  and  C_23
REMARK    5  A    between atoms: C_23  and  N_24
REMARK                            x       y       z     vdW  Elec       q    Type
REMARK                         _______ _______ _______ _____ _____    ______ ____
ROOT
ATOM      9  C   UNL     1      -1.250   2.455  24.795  0.00  0.00    +0.102 A 
ATOM     10  N   UNL     1      -0.592   1.997  24.599  0.00  0.00    -0.170 NA
ATOM     11  N   UNL     1      -0.836   1.211  24.550  0.00  0.00    -0.253 N 
ATOM     12  C   UNL     1      -0.356   0.564  24.368  0.00  0.00    +0.153 C 
ATOM     13  C   UNL     1      -1.644   1.183  24.716  0.00  0.00    +0.058 A 
ATOM     14  C   UNL     1      -1.900   1.952  24.867  0.00  0.00    +0.035 A 
ENDROOT
BRANCH  13  15
ATOM     15  C   UNL     1      -2.114   0.504  24.728  0.00  0.00    +0.056 C 
ATOM     16  C   UNL     1      -1.922  -0.053  25.237  0.00  0.00    +0.078 C 
ATOM     17  N   UNL     1      -2.553  -0.075  24.705  0.00  0.00    -0.272 NA
ATOM     18  C   UNL     1      -2.535   0.824  24.166  0.00  0.00    +0.072 C 
ATOM     19  C   UNL     1      -2.785   1.216  23.707  0.00  0.00    +0.018 C 
ATOM     20  C   UNL     1      -2.734   0.474  24.209  0.00  0.00    +0.010 C 
ATOM     21  C   UNL     1      -3.345  -0.137  24.057  0.00  0.00    +0.018 C 
ATOM     22  C   UNL     1      -3.191  -0.706  24.541  0.00  0.00    +0.079 C 
BRANCH  22  23
ATOM     23  C   UNL     1      -3.450  -1.453  24.778  0.00  0.00    +0.131 C 
BRANCH  23  24
ATOM     24  N   UNL     1      -3.696  -2.001  24.213  0.00  0.00    -0.204 NA
ATOM     25  C   UNL     1      -3.794  -2.793  24.421  0.00  0.00    +0.242 C 
ATOM     26  C   UNL     1      -4.040  -3.342  23.856  0.00  0.00    +0.096 C 
ATOM     27  O   UNL     1      -3.644  -3.037  25.195  0.00  0.00    -0.273 OA
ENDBRANCH  23  24
ENDBRANCH  22  23
ENDBRANCH  13  15
BRANCH   9   6
ATOM      3  C   UNL     1      -1.270   4.910  25.111  0.00  0.00    +0.139 A 
ATOM      4  C   UNL     1      -0.707   4.562  24.618  0.00  0.00    +0.037 A 
ATOM      5  C   UNL     1      -0.700   3.744  24.513  0.00  0.00    +0.005 A 
ATOM      6  C   UNL     1      -1.256   3.273  24.900  0.00  0.00    +0.020 A 
ATOM      7  C   UNL     1      -1.819   3.621  25.393  0.00  0.00    +0.005 A 
ATOM      8  C   UNL     1      -1.825   4.441  25.498  0.00  0.00    +0.037 A 
BRANCH   3   2
ATOM      1  C   UNL     1      -1.955   6.162  25.037  0.00  0.00    +0.252 C 
ATOM      2  O   UNL     1      -1.276   5.728  25.216  0.00  0.00    -0.471 OA
ENDBRANCH   3   2
ENDBRANCH   9   6
TORSDOF 5
ENDMDL
