MODEL 1
REMARK VINA RESULT:     -11.3      0.000      0.000
REMARK  Name = 
REMARK  7 active torsions:
REMARK  status: ('A' for Active; 'I' for Inactive)
REMARK    1  A    between atoms: O_2  and  C_3
REMARK    2  A    between atoms: C_3  and  C_5
REMARK    3  A    between atoms: C_5  and  N_7
REMARK    4  A    between atoms: C_8  and  C_10
REMARK    5  A    between atoms: N_12  and  S_24
REMARK    6  A    between atoms: C_16  and  C_18
REMARK    7  A    between atoms: S_24  and  C_27
REMARK                            x       y       z     vdW  Elec       q    Type
REMARK                         _______ _______ _______ _____ _____    ______ ____
ROOT
ATOM     10  C   UNL     1      -2.818   1.421  24.633  0.00  0.00    +0.171 C 
ATOM     11  C   UNL     1      -3.136   0.667  24.530  0.00  0.00    +0.125 C 
ATOM     12  N   UNL     1      -2.687   0.000  24.713  0.00  0.00    -0.152 NA
ATOM     13  C   UNL     1      -1.919   0.087  25.001  0.00  0.00    +0.117 C 
ATOM     14  C   UNL     1      -1.600   0.842  25.105  0.00  0.00    +0.113 C 
ATOM     15  N   UNL     1      -2.050   1.508  24.921  0.00  0.00    -0.270 N 
ATOM     16  C   UNL     1      -1.731   2.261  25.025  0.00  0.00    +0.226 C 
ATOM     17  O   UNL     1      -2.181   2.929  24.841  0.00  0.00    -0.275 OA
ENDROOT
BRANCH  16  18
ATOM     18  C   UNL     1      -0.963   2.348  25.312  0.00  0.00    +0.080 C 
ATOM     19  C   UNL     1      -0.322   2.305  24.796  0.00  0.00    +0.028 C 
ATOM     20  C   UNL     1       0.447   2.392  25.083  0.00  0.00    +0.089 C 
ATOM     21  N   UNL     1       0.573   2.522  25.888  0.00  0.00    -0.218 NA
ATOM     22  C   UNL     1      -0.068   2.565  26.405  0.00  0.00    +0.089 C 
ATOM     23  C   UNL     1      -0.836   2.478  26.118  0.00  0.00    +0.028 C 
ENDBRANCH  16  18
BRANCH  10   8
ATOM      7  N   UNL     1      -3.974   2.232  24.850  0.00  0.00    -0.194 NA
ATOM      8  C   UNL     1      -3.267   2.087  24.450  0.00  0.00    +0.261 C 
ATOM      9  O   UNL     1      -3.010   2.610  23.865  0.00  0.00    -0.271 OA
BRANCH   7   5
ATOM      5  C   UNL     1      -4.424   2.899  24.666  0.00  0.00    +0.194 C 
ATOM      6  C   UNL     1      -4.278   3.317  23.969  0.00  0.00    +0.035 C 
BRANCH   5   3
ATOM      3  C   UNL     1      -5.020   3.149  25.178  0.00  0.00    +0.337 C 
ATOM      4  O   UNL     1      -4.986   3.902  25.514  0.00  0.00    -0.248 OA
BRANCH   3   2
ATOM      1  C   UNL     1      -6.138   2.808  26.000  0.00  0.00    +0.256 C 
ATOM      2  O   UNL     1      -5.650   2.647  25.355  0.00  0.00    -0.443 OA
ENDBRANCH   3   2
ENDBRANCH   5   3
ENDBRANCH   7   5
ENDBRANCH  10   8
BRANCH  12  24
ATOM     24  S   UNL     1      -3.005  -0.753  24.610  0.00  0.00    +0.063 S 
ATOM     25  O   UNL     1      -3.346  -0.714  25.360  0.00  0.00    -0.153 OA
ATOM     26  O   UNL     1      -2.665  -0.794  23.859  0.00  0.00    -0.153 OA
BRANCH  24  27
ATOM     27  C   UNL     1      -3.324  -1.508  24.505  0.00  0.00    +0.122 A 
ATOM     28  C   UNL     1      -3.026  -2.145  24.937  0.00  0.00    +0.020 A 
ATOM     29  C   UNL     1      -3.344  -2.899  24.833  0.00  0.00    +0.001 A 
ATOM     30  C   UNL     1      -3.961  -3.016  24.297  0.00  0.00    +0.000 A 
ATOM     31  C   UNL     1      -4.259  -2.379  23.866  0.00  0.00    +0.001 A 
ATOM     32  C   UNL     1      -3.941  -1.624  23.970  0.00  0.00    +0.020 A 
ENDBRANCH  24  27
ENDBRANCH  12  24
TORSDOF 7
ENDMDL
MODEL 2
REMARK VINA RESULT:     -11.0      1.075      3.219
REMARK  Name = 
REMARK  7 active torsions:
REMARK  status: ('A' for Active; 'I' for Inactive)
REMARK    1  A    between atoms: O_2  and  C_3
REMARK    2  A    between atoms: C_3  and  C_5
REMARK    3  A    between atoms: C_5  and  N_7
REMARK    4  A    between atoms: C_8  and  C_10
REMARK    5  A    between atoms: N_12  and  S_24
REMARK    6  A    between atoms: C_16  and  C_18
REMARK    7  A    between atoms: S_24  and  C_27
REMARK                            x       y       z     vdW  Elec       q    Type
REMARK                         _______ _______ _______ _____ _____    ______ ____
ROOT
ATOM     10  C   UNL     1      -2.869   1.493  24.581  0.00  0.00    +0.171 C 
ATOM     11  C   UNL     1      -2.907   0.674  24.496  0.00  0.00    +0.125 C 
ATOM     12  N   UNL     1      -3.608   0.273  24.668  0.00  0.00    -0.152 NA
ATOM     13  C   UNL     1      -4.270   0.693  24.924  0.00  0.00    +0.117 C 
ATOM     14  C   UNL     1      -4.232   1.513  25.009  0.00  0.00    +0.113 C 
ATOM     15  N   UNL     1      -3.531   1.913  24.837  0.00  0.00    -0.270 N 
ATOM     16  C   UNL     1      -3.493   2.732  24.922  0.00  0.00    +0.226 C 
ATOM     17  O   UNL     1      -2.791   3.132  24.750  0.00  0.00    -0.275 OA
ENDROOT
BRANCH  16  18
ATOM     18  C   UNL     1      -4.154   3.152  25.178  0.00  0.00    +0.080 C 
ATOM     19  C   UNL     1      -4.720   3.404  24.633  0.00  0.00    +0.028 C 
ATOM     20  C   UNL     1      -5.382   3.824  24.890  0.00  0.00    +0.089 C 
ATOM     21  N   UNL     1      -5.479   3.991  25.691  0.00  0.00    -0.218 NA
ATOM     22  C   UNL     1      -4.914   3.739  26.237  0.00  0.00    +0.089 C 
ATOM     23  C   UNL     1      -4.252   3.319  25.981  0.00  0.00    +0.028 C 
ENDBRANCH  16  18
BRANCH  10   8
ATOM      7  N   UNL     1      -1.500   1.775  24.878  0.00  0.00    -0.194 NA
ATOM      8  C   UNL     1      -2.168   1.893  24.409  0.00  0.00    +0.261 C 
ATOM      9  O   UNL     1      -2.136   2.411  23.767  0.00  0.00    -0.271 OA
BRANCH   7   5
ATOM      5  C   UNL     1      -0.799   2.175  24.707  0.00  0.00    +0.194 C 
ATOM      6  C   UNL     1      -0.711   2.563  23.983  0.00  0.00    +0.035 C 
BRANCH   5   3
ATOM      3  C   UNL     1      -0.185   2.188  25.258  0.00  0.00    +0.337 C 
ATOM      4  O   UNL     1       0.550   1.870  25.063  0.00  0.00    -0.248 OA
BRANCH   3   2
ATOM      1  C   UNL     1       0.291   2.488  26.571  0.00  0.00    +0.256 C 
ATOM      2  O   UNL     1      -0.307   2.519  26.003  0.00  0.00    -0.443 OA
ENDBRANCH   3   2
ENDBRANCH   5   3
ENDBRANCH   7   5
ENDBRANCH  10   8
BRANCH  12  24
ATOM     24  S   UNL     1      -3.647  -0.546  24.583  0.00  0.00    +0.063 S 
ATOM     25  O   UNL     1      -3.539  -0.636  25.396  0.00  0.00    -0.153 OA
ATOM     26  O   UNL     1      -3.755  -0.457  23.770  0.00  0.00    -0.153 OA
BRANCH  24  27
ATOM     27  C   UNL     1      -3.686  -1.366  24.498  0.00  0.00    +0.122 A 
ATOM     28  C   UNL     1      -3.249  -1.854  25.000  0.00  0.00    +0.020 A 
ATOM     29  C   UNL     1      -3.288  -2.674  24.915  0.00  0.00    +0.001 A 
ATOM     30  C   UNL     1      -3.763  -3.006  24.327  0.00  0.00    +0.000 A 
ATOM     31  C   UNL     1      -4.200  -2.518  23.825  0.00  0.00    +0.001 A 
ATOM     32  C   UNL     1      -4.161  -1.697  23.911  0.00  0.00    +0.020 A 
ENDBRANCH  24  27
ENDBRANCH  12  24
TORSDOF 7
ENDMDL
MODEL 3
REMARK VINA RESULT:     -10.9      1.253      3.378
REMARK  Name = 
REMARK  7 active torsions:
REMARK  status: ('A' for Active; 'I' for Inactive)
REMARK    1  A    between atoms: O_2  and  C_3
REMARK    2  A    between atoms: C_3  and  C_5
REMARK    3  A    between atoms: C_5  and  N_7
REMARK    4  A    between atoms: C_8  and  C_10
REMARK    5  A    between atoms: N_12  and  S_24
REMARK    6  A    between atoms: C_16  and  C_18
REMARK    7  A    between atoms: S_24  and  C_27
REMARK                            x       y       z     vdW  Elec       q    Type
REMARK                         _______ _______ _______ _____ _____    ______ ____
ROOT
ATOM     10  C   UNL     1      -2.408   1.213  24.957  0.00  0.00    +0.171 C 
ATOM     11  C   UNL     1      -2.559   0.409  24.856  0.00  0.00    +0.125 C 
ATOM     12  N   UNL     1      -3.327   0.148  24.708  0.00  0.00    -0.152 NA
ATOM     13  C   UNL     1      -3.945   0.693  24.661  0.00  0.00    +0.117 C 
ATOM     14  C   UNL     1      -3.795   1.498  24.762  0.00  0.00    +0.113 C 
ATOM     15  N   UNL     1      -3.026   1.758  24.910  0.00  0.00    -0.270 N 
ATOM     16  C   UNL     1      -2.876   2.563  25.011  0.00  0.00    +0.226 C 
ATOM     17  O   UNL     1      -2.107   2.823  25.159  0.00  0.00    -0.275 OA
ENDROOT
BRANCH  16  18
ATOM     18  C   UNL     1      -3.494   3.106  24.964  0.00  0.00    +0.080 C 
ATOM     19  C   UNL     1      -3.678   3.461  24.242  0.00  0.00    +0.028 C 
ATOM     20  C   UNL     1      -4.296   4.005  24.195  0.00  0.00    +0.089 C 
ATOM     21  N   UNL     1      -4.730   4.195  24.869  0.00  0.00    -0.218 NA
ATOM     22  C   UNL     1      -4.547   3.842  25.592  0.00  0.00    +0.089 C 
ATOM     23  C   UNL     1      -3.929   3.297  25.639  0.00  0.00    +0.028 C 
ENDBRANCH  16  18
BRANCH  10   8
ATOM      7  N   UNL     1      -1.029   1.273  24.590  0.00  0.00    -0.194 NA
ATOM      8  C   UNL     1      -1.640   1.474  25.106  0.00  0.00    +0.261 C 
ATOM      9  O   UNL     1      -1.482   1.937  25.771  0.00  0.00    -0.271 OA
BRANCH   7   5
ATOM      5  C   UNL     1      -0.260   1.533  24.737  0.00  0.00    +0.194 C 
ATOM      6  C   UNL     1      -0.077   1.889  25.460  0.00  0.00    +0.035 C 
BRANCH   5   3
ATOM      3  C   UNL     1       0.326   1.438  24.165  0.00  0.00    +0.337 C 
ATOM      4  O   UNL     1       0.857   2.051  24.012  0.00  0.00    -0.248 OA
BRANCH   3   2
ATOM      1  C   UNL     1       1.032   0.589  23.257  0.00  0.00    +0.256 C 
ATOM      2  O   UNL     1       0.382   0.730  23.746  0.00  0.00    -0.443 OA
ENDBRANCH   3   2
ENDBRANCH   5   3
ENDBRANCH   7   5
ENDBRANCH  10   8
BRANCH  12  24
ATOM     24  S   UNL     1      -3.478  -0.656  24.607  0.00  0.00    +0.063 S 
ATOM     25  O   UNL     1      -3.558  -0.744  25.423  0.00  0.00    -0.153 OA
ATOM     26  O   UNL     1      -3.398  -0.569  23.790  0.00  0.00    -0.153 OA
BRANCH  24  27
ATOM     27  C   UNL     1      -3.629  -1.461  24.506  0.00  0.00    +0.122 A 
ATOM     28  C   UNL     1      -3.259  -2.015  24.993  0.00  0.00    +0.020 A 
ATOM     29  C   UNL     1      -3.410  -2.820  24.892  0.00  0.00    +0.001 A 
ATOM     30  C   UNL     1      -3.930  -3.071  24.303  0.00  0.00    +0.000 A 
ATOM     31  C   UNL     1      -4.300  -2.517  23.815  0.00  0.00    +0.001 A 
ATOM     32  C   UNL     1      -4.149  -1.712  23.917  0.00  0.00    +0.020 A 
ENDBRANCH  24  27
ENDBRANCH  12  24
TORSDOF 7
ENDMDL
MODEL 4
REMARK VINA RESULT:     -10.1      2.191      5.465
REMARK  Name = 
REMARK  7 active torsions:
REMARK  status: ('A' for Active; 'I' for Inactive)
REMARK    1  A    between atoms: O_2  and  C_3
REMARK    2  A    between atoms: C_3  and  C_5
REMARK    3  A    between atoms: C_5  and  N_7
REMARK    4  A    between atoms: C_8  and  C_10
REMARK    5  A    between atoms: N_12  and  S_24
REMARK    6  A    between atoms: C_16  and  C_18
REMARK    7  A    between atoms: S_24  and  C_27
REMARK                            x       y       z     vdW  Elec       q    Type
REMARK                         _______ _______ _______ _____ _____    ______ ____
ROOT
ATOM     10  C   UNL     1      -1.225   0.660  24.566  0.00  0.00    +0.171 C 
ATOM     11  C   UNL     1      -1.114   1.473  24.651  0.00  0.00    +0.125 C 
ATOM     12  N   UNL     1      -1.759   1.964  24.803  0.00  0.00    -0.152 NA
ATOM     13  C   UNL     1      -2.516   1.642  24.870  0.00  0.00    +0.117 C 
ATOM     14  C   UNL     1      -2.627   0.828  24.785  0.00  0.00    +0.113 C 
ATOM     15  N   UNL     1      -1.981   0.338  24.633  0.00  0.00    -0.270 N 
ATOM     16  C   UNL     1      -2.093  -0.475  24.548  0.00  0.00    +0.226 C 
ATOM     17  O   UNL     1      -1.447  -0.966  24.396  0.00  0.00    -0.275 OA
ENDROOT
BRANCH  16  18
ATOM     18  C   UNL     1      -2.848  -0.797  24.615  0.00  0.00    +0.080 C 
ATOM     19  C   UNL     1      -3.113  -1.080  25.343  0.00  0.00    +0.028 C 
ATOM     20  C   UNL     1      -3.870  -1.403  25.410  0.00  0.00    +0.089 C 
ATOM     21  N   UNL     1      -4.361  -1.442  24.749  0.00  0.00    -0.218 NA
ATOM     22  C   UNL     1      -4.097  -1.159  24.020  0.00  0.00    +0.089 C 
ATOM     23  C   UNL     1      -3.341  -0.836  23.953  0.00  0.00    +0.028 C 
ENDBRANCH  16  18
BRANCH  10   8
ATOM      7  N   UNL     1      -0.129   0.279  23.731  0.00  0.00    -0.194 NA
ATOM      8  C   UNL     1      -0.580   0.170  24.414  0.00  0.00    +0.261 C 
ATOM      9  O   UNL     1      -0.384  -0.432  24.945  0.00  0.00    -0.271 OA
BRANCH   7   5
ATOM      5  C   UNL     1       0.516  -0.212  23.579  0.00  0.00    +0.194 C 
ATOM      6  C   UNL     1       0.690  -0.836  24.091  0.00  0.00    +0.035 C 
BRANCH   5   3
ATOM      3  C   UNL     1       0.988  -0.080  22.915  0.00  0.00    +0.337 C 
ATOM      4  O   UNL     1       0.694  -0.244  22.162  0.00  0.00    -0.248 OA
BRANCH   3   2
ATOM      1  C   UNL     1       2.296   0.148  22.388  0.00  0.00    +0.256 C 
ATOM      2  O   UNL     1       1.752   0.216  23.004  0.00  0.00    -0.443 OA
ENDBRANCH   3   2
ENDBRANCH   5   3
ENDBRANCH   7   5
ENDBRANCH  10   8
BRANCH  12  24
ATOM     24  S   UNL     1      -1.649   2.776  24.888  0.00  0.00    +0.063 S 
ATOM     25  O   UNL     1      -1.400   2.662  25.666  0.00  0.00    -0.153 OA
ATOM     26  O   UNL     1      -1.897   2.892  24.110  0.00  0.00    -0.153 OA
BRANCH  24  27
ATOM     27  C   UNL     1      -1.538   3.590  24.973  0.00  0.00    +0.122 A 
ATOM     28  C   UNL     1      -0.820   3.934  24.756  0.00  0.00    +0.020 A 
ATOM     29  C   UNL     1      -0.709   4.747  24.840  0.00  0.00    +0.001 A 
ATOM     30  C   UNL     1      -1.317   5.217  25.142  0.00  0.00    +0.000 A 
ATOM     31  C   UNL     1      -2.035   4.873  25.359  0.00  0.00    +0.001 A 
ATOM     32  C   UNL     1      -2.146   4.059  25.275  0.00  0.00    +0.020 A 
ENDBRANCH  24  27
ENDBRANCH  12  24
TORSDOF 7
ENDMDL
MODEL 5
REMARK VINA RESULT:      -9.8      1.362      4.112
REMARK  Name = 
REMARK  7 active torsions:
REMARK  status: ('A' for Active; 'I' for Inactive)
REMARK    1  A    between atoms: O_2  and  C_3
REMARK    2  A    between atoms: C_3  and  C_5
REMARK    3  A    between atoms: C_5  and  N_7
REMARK    4  A    between atoms: C_8  and  C_10
REMARK    5  A    between atoms: N_12  and  S_24
REMARK    6  A    between atoms: C_16  and  C_18
REMARK    7  A    between atoms: S_24  and  C_27
REMARK                            x       y       z     vdW  Elec       q    Type
REMARK                         _______ _______ _______ _____ _____    ______ ____
ROOT
ATOM     10  C   UNL     1      -3.700   1.134  24.789  0.00  0.00    +0.171 C 
ATOM     11  C   UNL     1      -3.132   1.731  24.750  0.00  0.00    +0.125 C 
ATOM     12  N   UNL     1      -2.330   1.537  24.720  0.00  0.00    -0.152 NA
ATOM     13  C   UNL     1      -2.097   0.746  24.728  0.00  0.00    +0.117 C 
ATOM     14  C   UNL     1      -2.665   0.148  24.766  0.00  0.00    +0.113 C 
ATOM     15  N   UNL     1      -3.466   0.343  24.797  0.00  0.00    -0.270 N 
ATOM     16  C   UNL     1      -4.033  -0.255  24.835  0.00  0.00    +0.226 C 
ATOM     17  O   UNL     1      -4.835  -0.060  24.866  0.00  0.00    -0.275 OA
ENDROOT
BRANCH  16  18
ATOM     18  C   UNL     1      -3.800  -1.045  24.843  0.00  0.00    +0.080 C 
ATOM     19  C   UNL     1      -3.564  -1.399  25.550  0.00  0.00    +0.028 C 
ATOM     20  C   UNL     1      -3.330  -2.190  25.558  0.00  0.00    +0.089 C 
ATOM     21  N   UNL     1      -3.333  -2.628  24.859  0.00  0.00    -0.218 NA
ATOM     22  C   UNL     1      -3.570  -2.275  24.151  0.00  0.00    +0.089 C 
ATOM     23  C   UNL     1      -3.803  -1.483  24.143  0.00  0.00    +0.028 C 
ENDBRANCH  16  18
BRANCH  10   8
ATOM      7  N   UNL     1      -4.766   1.905  25.346  0.00  0.00    -0.194 NA
ATOM      8  C   UNL     1      -4.500   1.328  24.820  0.00  0.00    +0.261 C 
ATOM      9  O   UNL     1      -5.037   0.944  24.323  0.00  0.00    -0.271 OA
BRANCH   7   5
ATOM      5  C   UNL     1      -5.568   2.099  25.377  0.00  0.00    +0.194 C 
ATOM      6  C   UNL     1      -6.124   1.614  25.007  0.00  0.00    +0.035 C 
BRANCH   5   3
ATOM      3  C   UNL     1      -5.813   2.777  25.777  0.00  0.00    +0.337 C 
ATOM      4  O   UNL     1      -6.023   2.732  26.574  0.00  0.00    -0.248 OA
BRANCH   3   2
ATOM      1  C   UNL     1      -5.854   4.205  25.809  0.00  0.00    +0.256 C 
ATOM      2  O   UNL     1      -5.849   3.499  25.381  0.00  0.00    -0.443 OA
ENDBRANCH   3   2
ENDBRANCH   5   3
ENDBRANCH   7   5
ENDBRANCH  10   8
BRANCH  12  24
ATOM     24  S   UNL     1      -1.763   2.134  24.681  0.00  0.00    +0.063 S 
ATOM     25  O   UNL     1      -1.600   2.032  25.483  0.00  0.00    -0.153 OA
ATOM     26  O   UNL     1      -1.925   2.237  23.878  0.00  0.00    -0.153 OA
BRANCH  24  27
ATOM     27  C   UNL     1      -1.195   2.732  24.642  0.00  0.00    +0.122 A 
ATOM     28  C   UNL     1      -0.481   2.597  24.251  0.00  0.00    +0.020 A 
ATOM     29  C   UNL     1       0.088   3.194  24.212  0.00  0.00    +0.001 A 
ATOM     30  C   UNL     1      -0.059   3.926  24.565  0.00  0.00    +0.000 A 
ATOM     31  C   UNL     1      -0.773   4.061  24.955  0.00  0.00    +0.001 A 
ATOM     32  C   UNL     1      -1.341   3.463  24.994  0.00  0.00    +0.020 A 
ENDBRANCH  24  27
ENDBRANCH  12  24
TORSDOF 7
ENDMDL
MODEL 6
REMARK VINA RESULT:      -9.8      1.348      4.668
REMARK  Name = 
REMARK  7 active torsions:
REMARK  status: ('A' for Active; 'I' for Inactive)
REMARK    1  A    between atoms: O_2  and  C_3
REMARK    2  A    between atoms: C_3  and  C_5
REMARK    3  A    between atoms: C_5  and  N_7
REMARK    4  A    between atoms: C_8  and  C_10
REMARK    5  A    between atoms: N_12  and  S_24
REMARK    6  A    between atoms: C_16  and  C_18
REMARK    7  A    between atoms: S_24  and  C_27
REMARK                            x       y       z     vdW  Elec       q    Type
REMARK                         _______ _______ _______ _____ _____    ______ ____
ROOT
ATOM     10  C   UNL     1      -2.758   0.721  24.571  0.00  0.00    +0.171 C 
ATOM     11  C   UNL     1      -3.183   1.412  24.713  0.00  0.00    +0.125 C 
ATOM     12  N   UNL     1      -3.983   1.372  24.914  0.00  0.00    -0.152 NA
ATOM     13  C   UNL     1      -4.356   0.638  24.971  0.00  0.00    +0.117 C 
ATOM     14  C   UNL     1      -3.930  -0.055  24.829  0.00  0.00    +0.113 C 
ATOM     15  N   UNL     1      -3.131  -0.012  24.629  0.00  0.00    -0.270 N 
ATOM     16  C   UNL     1      -2.705  -0.705  24.486  0.00  0.00    +0.226 C 
ATOM     17  O   UNL     1      -1.905  -0.663  24.286  0.00  0.00    -0.275 OA
ENDROOT
BRANCH  16  18
ATOM     18  C   UNL     1      -3.078  -1.437  24.544  0.00  0.00    +0.080 C 
ATOM     19  C   UNL     1      -3.529  -1.722  23.915  0.00  0.00    +0.028 C 
ATOM     20  C   UNL     1      -3.902  -2.455  23.973  0.00  0.00    +0.089 C 
ATOM     21  N   UNL     1      -3.824  -2.904  24.660  0.00  0.00    -0.218 NA
ATOM     22  C   UNL     1      -3.374  -2.620  25.290  0.00  0.00    +0.089 C 
ATOM     23  C   UNL     1      -3.000  -1.887  25.232  0.00  0.00    +0.028 C 
ENDBRANCH  16  18
BRANCH  10   8
ATOM      7  N   UNL     1      -1.427   1.148  24.870  0.00  0.00    -0.194 NA
ATOM      8  C   UNL     1      -1.959   0.762  24.370  0.00  0.00    +0.261 C 
ATOM      9  O   UNL     1      -1.691   0.418  23.669  0.00  0.00    -0.271 OA
BRANCH   7   5
ATOM      5  C   UNL     1      -0.628   1.190  24.670  0.00  0.00    +0.194 C 
ATOM      6  C   UNL     1      -0.327   0.708  24.070  0.00  0.00    +0.035 C 
BRANCH   5   3
ATOM      3  C   UNL     1      -0.129   1.712  25.068  0.00  0.00    +0.337 C 
ATOM      4  O   UNL     1       0.464   2.110  24.656  0.00  0.00    -0.248 OA
BRANCH   3   2
ATOM      1  C   UNL     1       0.155   2.471  26.245  0.00  0.00    +0.256 C 
ATOM      2  O   UNL     1      -0.223   1.836  25.877  0.00  0.00    -0.443 OA
ENDBRANCH   3   2
ENDBRANCH   5   3
ENDBRANCH   7   5
ENDBRANCH  10   8
BRANCH  12  24
ATOM     24  S   UNL     1      -4.409   2.063  25.056  0.00  0.00    +0.063 S 
ATOM     25  O   UNL     1      -4.682   2.056  24.278  0.00  0.00    -0.153 OA
ATOM     26  O   UNL     1      -4.136   2.071  25.835  0.00  0.00    -0.153 OA
BRANCH  24  27
ATOM     27  C   UNL     1      -4.835   2.755  25.199  0.00  0.00    +0.122 A 
ATOM     28  C   UNL     1      -4.484   3.490  25.068  0.00  0.00    +0.020 A 
ATOM     29  C   UNL     1      -4.910   4.182  25.211  0.00  0.00    +0.001 A 
ATOM     30  C   UNL     1      -5.688   4.139  25.485  0.00  0.00    +0.000 A 
ATOM     31  C   UNL     1      -6.039   3.404  25.616  0.00  0.00    +0.001 A 
ATOM     32  C   UNL     1      -5.612   2.711  25.473  0.00  0.00    +0.020 A 
ENDBRANCH  24  27
ENDBRANCH  12  24
TORSDOF 7
ENDMDL
