REMARK  Name = 
REMARK  9 active torsions:
REMARK  status: ('A' for Active; 'I' for Inactive)
REMARK    1  A    between atoms: S_2  and  C_3
REMARK    2  A    between atoms: C_7  and  N_8
REMARK    3  A    between atoms: N_11  and  C_12
REMARK    4  A    between atoms: C_16  and  C_17
REMARK    5  A    between atoms: N_19  and  C_20
REMARK    6  A    between atoms: C_20  and  C_21
REMARK    7  A    between atoms: C_20  and  C_27
REMARK    8  A    between atoms: C_21  and  C_22
REMARK    9  A    between atoms: C_30  and  C_32
REMARK                            x       y       z     vdW  Elec       q    Type
REMARK                         _______ _______ _______ _____ _____    ______ ____
ROOT
ATOM     12  C   UNL     1      -0.608  -1.299   0.000  0.00  0.00    +0.126 C 
ATOM     13  C   UNL     1       0.060  -1.784   0.000  0.00  0.00    +0.045 C 
ATOM     14  C   UNL     1      -0.195  -2.569   0.000  0.00  0.00    +0.096 C 
ATOM     15  N   UNL     1      -1.020  -2.569   0.000  0.00  0.00    -0.267 N 
ATOM     16  C   UNL     1      -1.275  -1.784   0.000  0.00  0.00    +0.174 C 
ATOM     30  C   UNL     1      -1.505  -3.236   0.000  0.00  0.00    +0.269 C 
ATOM     31  O   UNL     1      -2.326  -3.150   0.000  0.00  0.00    -0.268 OA
ENDROOT
BRANCH  30  32
ATOM     32  C   UNL     1      -1.170  -3.990   0.000  0.00  0.00    +0.154 A 
ATOM     33  C   UNL     1      -0.349  -4.076   0.000  0.00  0.00    +0.123 A 
ATOM     34  N   UNL     1      -0.014  -4.830   0.000  0.00  0.00    -0.239 NA
ATOM     35  C   UNL     1      -0.498  -5.497   0.000  0.00  0.00    +0.120 A 
ATOM     36  C   UNL     1      -1.319  -5.411   0.000  0.00  0.00    +0.120 A 
ATOM     37  N   UNL     1      -1.655  -4.657   0.000  0.00  0.00    -0.236 NA
ENDBRANCH  30  32
BRANCH  12  11
ATOM      8  N   UNL     1       0.107   0.763   0.000  0.00  0.00    -0.161 NA
ATOM      9  C   UNL     1       0.107  -0.062   0.000  0.00  0.00    +0.344 C 
ATOM     10  O   UNL     1       0.821  -0.474   0.000  0.00  0.00    -0.249 OA
ATOM     11  N   UNL     1      -0.608  -0.474   0.000  0.00  0.00    -0.186 NA
BRANCH   8   7
ATOM      3  C   UNL     1       1.536   2.413   0.000  0.00  0.00    +0.027 A 
ATOM      4  C   UNL     1       2.250   2.001   0.000  0.00  0.00    +0.006 A 
ATOM      5  C   UNL     1       2.250   1.176   0.000  0.00  0.00    +0.002 A 
ATOM      6  C   UNL     1       1.536   0.763   0.000  0.00  0.00    +0.017 A 
ATOM      7  C   UNL     1       0.821   1.176   0.000  0.00  0.00    +0.075 A 
ATOM     38  C   UNL     1       0.821   2.001   0.000  0.00  0.00    +0.023 A 
BRANCH   3   2
ATOM      1  C   UNL     1       2.250   3.651   0.000  0.00  0.00    +0.074 C 
ATOM      2  S   UNL     1       1.536   3.238   0.000  0.00  0.00    -0.113 S 
ENDBRANCH   3   2
ENDBRANCH   8   7
ENDBRANCH  12  11
BRANCH  16  17
ATOM     17  C   UNL     1      -2.060  -1.529   0.000  0.00  0.00    +0.262 C 
ATOM     18  O   UNL     1      -2.231  -0.722   0.000  0.00  0.00    -0.271 OA
ATOM     19  N   UNL     1      -2.673  -2.081   0.000  0.00  0.00    -0.196 NA
BRANCH  19  20
ATOM     20  C   UNL     1      -3.458  -1.826   0.000  0.00  0.00    +0.179 C 
BRANCH  20  27
ATOM     27  C   UNL     1      -3.629  -1.019   0.000  0.00  0.00    +0.281 C 
ATOM     28  N   UNL     1      -4.414  -0.764   0.000  0.00  0.00    -0.086 NA
ATOM     29  O   UNL     1      -3.016  -0.467   0.000  0.00  0.00    -0.270 OA
ENDBRANCH  20  27
BRANCH  20  21
ATOM     21  C   UNL     1      -4.071  -2.378   0.000  0.00  0.00    +0.064 C 
BRANCH  21  22
ATOM     22  C   UNL     1      -4.855  -2.123   0.000  0.00  0.00    +0.010 A 
ATOM     23  C   UNL     1      -5.523  -2.608   0.000  0.00  0.00    +0.003 A 
ATOM     24  C   UNL     1      -6.190  -2.123   0.000  0.00  0.00    +0.007 A 
ATOM     25  C   UNL     1      -5.935  -1.339   0.000  0.00  0.00    +0.035 A 
ATOM     26  S   UNL     1      -5.110  -1.339   0.000  0.00  0.00    -0.091 S 
ENDBRANCH  21  22
ENDBRANCH  20  21
ENDBRANCH  19  20
ENDBRANCH  16  17
TORSDOF 9
