MODEL 1
REMARK VINA RESULT:     -10.7      0.000      0.000
REMARK  Name = 
REMARK  5 active torsions:
REMARK  status: ('A' for Active; 'I' for Inactive)
REMARK    1  A    between atoms: C_2  and  C_4
REMARK    2  A    between atoms: C_6  and  C_7
REMARK    3  A    between atoms: C_7  and  C_8
REMARK    4  A    between atoms: C_25  and  C_26
REMARK    5  A    between atoms: C_26  and  C_27
REMARK                            x       y       z     vdW  Elec       q    Type
REMARK                         _______ _______ _______ _____ _____    ______ ____
ROOT
ATOM      7  C   UNL     1      -3.382   2.230  25.103  0.00  0.00    +0.089 C 
ENDROOT
BRANCH   7   8
ATOM      8  C   UNL     1      -3.509   1.791  24.416  0.00  0.00    +0.226 C 
ATOM      9  O   UNL     1      -3.611   2.175  23.693  0.00  0.00    -0.275 OA
ATOM     10  N   UNL     1      -3.534   0.967  24.451  0.00  0.00    -0.276 N 
ATOM     11  C   UNL     1      -3.432   0.583  25.175  0.00  0.00    +0.115 C 
ATOM     12  C   UNL     1      -3.456  -0.241  25.210  0.00  0.00    +0.115 C 
ATOM     13  N   UNL     1      -3.583  -0.680  24.524  0.00  0.00    -0.275 N 
ATOM     14  C   UNL     1      -3.685  -0.296  23.801  0.00  0.00    +0.115 C 
ATOM     15  C   UNL     1      -3.660   0.529  23.765  0.00  0.00    +0.115 C 
ATOM     16  C   UNL     1      -3.608  -1.504  24.560  0.00  0.00    +0.220 A 
ATOM     17  N   UNL     1      -3.506  -1.888  25.283  0.00  0.00    -0.212 NA
ATOM     18  C   UNL     1      -3.531  -2.713  25.319  0.00  0.00    +0.103 A 
ATOM     19  C   UNL     1      -3.658  -3.152  24.632  0.00  0.00    +0.041 A 
ATOM     20  C   UNL     1      -3.760  -2.767  23.910  0.00  0.00    +0.103 A 
ATOM     21  N   UNL     1      -3.735  -1.944  23.873  0.00  0.00    -0.212 NA
ENDBRANCH   7   8
BRANCH   7   6
ATOM      4  C   UNL     1      -1.426   3.197  25.037  0.00  0.00    +0.005 C 
ATOM      5  C   UNL     1      -2.007   2.611  25.024  0.00  0.00    +0.005 C 
ATOM      6  C   UNL     1      -2.801   2.816  25.116  0.00  0.00    +0.027 C 
ATOM     22  C   UNL     1      -3.014   3.606  25.222  0.00  0.00    -0.048 C 
ATOM     23  C   UNL     1      -3.807   3.811  25.314  0.00  0.00    +0.026 C 
ATOM     24  C   UNL     1      -2.433   4.192  25.236  0.00  0.00    -0.034 C 
ATOM     25  C   UNL     1      -1.638   3.987  25.143  0.00  0.00    +0.037 C 
BRANCH   4   2
ATOM      1  C   UNL     1      -0.292   2.984  24.192  0.00  0.00    +0.000 C 
ATOM      2  C   UNL     1      -0.632   2.992  24.945  0.00  0.00    +0.000 C 
ATOM      3  C   UNL     1      -0.177   2.796  25.605  0.00  0.00    +0.000 C 
ENDBRANCH   4   2
BRANCH  25  26
ATOM     26  C   UNL     1      -1.057   4.572  25.157  0.00  0.00    +0.110 C 
BRANCH  26  27
ATOM     27  C   UNL     1      -1.268   5.364  25.067  0.00  0.00    +0.073 C 
ATOM     28  N   UNL     1      -1.478   6.158  24.977  0.00  0.00    -0.196 NA
ENDBRANCH  26  27
ENDBRANCH  25  26
ENDBRANCH   7   6
TORSDOF 5
ENDMDL
MODEL 2
REMARK VINA RESULT:     -10.3      2.709      4.488
REMARK  Name = 
REMARK  5 active torsions:
REMARK  status: ('A' for Active; 'I' for Inactive)
REMARK    1  A    between atoms: C_2  and  C_4
REMARK    2  A    between atoms: C_6  and  C_7
REMARK    3  A    between atoms: C_7  and  C_8
REMARK    4  A    between atoms: C_25  and  C_26
REMARK    5  A    between atoms: C_26  and  C_27
REMARK                            x       y       z     vdW  Elec       q    Type
REMARK                         _______ _______ _______ _____ _____    ______ ____
ROOT
ATOM      7  C   UNL     1      -2.269   0.801  24.607  0.00  0.00    +0.089 C 
ENDROOT
BRANCH   7   8
ATOM      8  C   UNL     1      -1.583   1.207  24.817  0.00  0.00    +0.226 C 
ATOM      9  O   UNL     1      -1.608   1.778  25.412  0.00  0.00    -0.275 OA
ATOM     10  N   UNL     1      -0.871   1.043  24.434  0.00  0.00    -0.276 N 
ATOM     11  C   UNL     1      -0.846   0.472  23.839  0.00  0.00    +0.115 C 
ATOM     12  C   UNL     1      -0.134   0.308  23.456  0.00  0.00    +0.115 C 
ATOM     13  N   UNL     1       0.551   0.714  23.666  0.00  0.00    -0.275 N 
ATOM     14  C   UNL     1       0.526   1.285  24.261  0.00  0.00    +0.115 C 
ATOM     15  C   UNL     1      -0.186   1.450  24.645  0.00  0.00    +0.115 C 
ATOM     16  C   UNL     1       1.263   0.549  23.282  0.00  0.00    +0.220 A 
ATOM     17  N   UNL     1       1.288  -0.022  22.688  0.00  0.00    -0.212 NA
ATOM     18  C   UNL     1       2.000  -0.186  22.304  0.00  0.00    +0.103 A 
ATOM     19  C   UNL     1       2.686   0.220  22.515  0.00  0.00    +0.041 A 
ATOM     20  C   UNL     1       2.660   0.792  23.110  0.00  0.00    +0.103 A 
ATOM     21  N   UNL     1       1.949   0.956  23.493  0.00  0.00    -0.212 NA
ENDBRANCH   7   8
BRANCH   7   6
ATOM      4  C   UNL     1      -3.785   2.348  24.340  0.00  0.00    +0.005 C 
ATOM      5  C   UNL     1      -3.056   1.961  24.331  0.00  0.00    +0.005 C 
ATOM      6  C   UNL     1      -2.997   1.188  24.615  0.00  0.00    +0.027 C 
ATOM     22  C   UNL     1      -3.666   0.804  24.908  0.00  0.00    -0.048 C 
ATOM     23  C   UNL     1      -3.606   0.032  25.192  0.00  0.00    +0.026 C 
ATOM     24  C   UNL     1      -4.394   1.191  24.917  0.00  0.00    -0.034 C 
ATOM     25  C   UNL     1      -4.454   1.964  24.632  0.00  0.00    +0.037 C 
BRANCH   4   2
ATOM      1  C   UNL     1      -3.835   3.756  24.582  0.00  0.00    +0.000 C 
ATOM      2  C   UNL     1      -3.844   3.121  24.055  0.00  0.00    +0.000 C 
ATOM      3  C   UNL     1      -3.913   3.258  23.244  0.00  0.00    +0.000 C 
ENDBRANCH   4   2
BRANCH  25  26
ATOM     26  C   UNL     1      -5.182   2.352  24.641  0.00  0.00    +0.110 C 
BRANCH  26  27
ATOM     27  C   UNL     1      -5.848   1.972  24.944  0.00  0.00    +0.073 C 
ATOM     28  N   UNL     1      -6.515   1.591  25.247  0.00  0.00    -0.196 NA
ENDBRANCH  26  27
ENDBRANCH  25  26
ENDBRANCH   7   6
TORSDOF 5
ENDMDL
MODEL 3
REMARK VINA RESULT:      -9.8      1.189      5.571
REMARK  Name = 
REMARK  5 active torsions:
REMARK  status: ('A' for Active; 'I' for Inactive)
REMARK    1  A    between atoms: C_2  and  C_4
REMARK    2  A    between atoms: C_6  and  C_7
REMARK    3  A    between atoms: C_7  and  C_8
REMARK    4  A    between atoms: C_25  and  C_26
REMARK    5  A    between atoms: C_26  and  C_27
REMARK                            x       y       z     vdW  Elec       q    Type
REMARK                         _______ _______ _______ _____ _____    ______ ____
ROOT
ATOM      7  C   UNL     1      -3.436   0.654  24.016  0.00  0.00    +0.089 C 
ENDROOT
BRANCH   7   8
ATOM      8  C   UNL     1      -3.701   1.273  24.492  0.00  0.00    +0.226 C 
ATOM      9  O   UNL     1      -4.423   1.211  24.886  0.00  0.00    -0.275 OA
ATOM     10  N   UNL     1      -3.245   1.956  24.574  0.00  0.00    -0.276 N 
ATOM     11  C   UNL     1      -2.523   2.018  24.179  0.00  0.00    +0.115 C 
ATOM     12  C   UNL     1      -2.067   2.701  24.261  0.00  0.00    +0.115 C 
ATOM     13  N   UNL     1      -2.332   3.320  24.736  0.00  0.00    -0.275 N 
ATOM     14  C   UNL     1      -3.054   3.257  25.130  0.00  0.00    +0.115 C 
ATOM     15  C   UNL     1      -3.511   2.574  25.049  0.00  0.00    +0.115 C 
ATOM     16  C   UNL     1      -1.875   4.003  24.817  0.00  0.00    +0.220 A 
ATOM     17  N   UNL     1      -1.153   4.065  24.423  0.00  0.00    -0.212 NA
ATOM     18  C   UNL     1      -0.697   4.748  24.505  0.00  0.00    +0.103 A 
ATOM     19  C   UNL     1      -0.962   5.367  24.980  0.00  0.00    +0.041 A 
ATOM     20  C   UNL     1      -1.684   5.304  25.374  0.00  0.00    +0.103 A 
ATOM     21  N   UNL     1      -2.141   4.622  25.293  0.00  0.00    -0.212 NA
ENDBRANCH   7   8
BRANCH   7   6
ATOM      4  C   UNL     1      -3.112  -1.070  25.316  0.00  0.00    +0.005 C 
ATOM      5  C   UNL     1      -3.100  -0.296  25.030  0.00  0.00    +0.005 C 
ATOM      6  C   UNL     1      -3.448  -0.120  24.302  0.00  0.00    +0.027 C 
ATOM     22  C   UNL     1      -3.807  -0.718  23.861  0.00  0.00    -0.048 C 
ATOM     23  C   UNL     1      -4.154  -0.542  23.134  0.00  0.00    +0.026 C 
ATOM     24  C   UNL     1      -3.819  -1.492  24.147  0.00  0.00    -0.034 C 
ATOM     25  C   UNL     1      -3.471  -1.668  24.876  0.00  0.00    +0.037 C 
BRANCH   4   2
ATOM      1  C   UNL     1      -3.240  -1.404  26.700  0.00  0.00    +0.000 C 
ATOM      2  C   UNL     1      -2.765  -1.246  26.044  0.00  0.00    +0.000 C 
ATOM      3  C   UNL     1      -1.943  -1.264  26.115  0.00  0.00    +0.000 C 
ENDBRANCH   4   2
BRANCH  25  26
ATOM     26  C   UNL     1      -3.483  -2.441  25.161  0.00  0.00    +0.110 C 
BRANCH  26  27
ATOM     27  C   UNL     1      -3.586  -3.072  24.641  0.00  0.00    +0.073 C 
ATOM     28  N   UNL     1      -3.689  -3.704  24.120  0.00  0.00    -0.196 NA
ENDBRANCH  26  27
ENDBRANCH  25  26
ENDBRANCH   7   6
TORSDOF 5
ENDMDL
MODEL 4
REMARK VINA RESULT:      -9.3      1.649      5.728
REMARK  Name = 
REMARK  5 active torsions:
REMARK  status: ('A' for Active; 'I' for Inactive)
REMARK    1  A    between atoms: C_2  and  C_4
REMARK    2  A    between atoms: C_6  and  C_7
REMARK    3  A    between atoms: C_7  and  C_8
REMARK    4  A    between atoms: C_25  and  C_26
REMARK    5  A    between atoms: C_26  and  C_27
REMARK                            x       y       z     vdW  Elec       q    Type
REMARK                         _______ _______ _______ _____ _____    ______ ____
ROOT
ATOM      7  C   UNL     1      -1.373   0.169  25.439  0.00  0.00    +0.089 C 
ENDROOT
BRANCH   7   8
ATOM      8  C   UNL     1      -0.967   0.588  24.856  0.00  0.00    +0.226 C 
ATOM      9  O   UNL     1      -0.549   0.183  24.272  0.00  0.00    -0.275 OA
ATOM     10  N   UNL     1      -0.979   1.413  24.856  0.00  0.00    -0.276 N 
ATOM     11  C   UNL     1      -1.397   1.819  25.440  0.00  0.00    +0.115 C 
ATOM     12  C   UNL     1      -1.409   2.644  25.440  0.00  0.00    +0.115 C 
ATOM     13  N   UNL     1      -1.003   3.062  24.858  0.00  0.00    -0.275 N 
ATOM     14  C   UNL     1      -0.585   2.657  24.274  0.00  0.00    +0.115 C 
ATOM     15  C   UNL     1      -0.573   1.831  24.273  0.00  0.00    +0.115 C 
ATOM     16  C   UNL     1      -1.015   3.888  24.858  0.00  0.00    +0.220 A 
ATOM     17  N   UNL     1      -1.433   4.293  25.442  0.00  0.00    -0.212 NA
ATOM     18  C   UNL     1      -1.445   5.119  25.442  0.00  0.00    +0.103 A 
ATOM     19  C   UNL     1      -1.039   5.538  24.859  0.00  0.00    +0.041 A 
ATOM     20  C   UNL     1      -0.621   5.131  24.275  0.00  0.00    +0.103 A 
ATOM     21  N   UNL     1      -0.609   4.307  24.275  0.00  0.00    -0.212 NA
ENDBRANCH   7   8
BRANCH   7   6
ATOM      4  C   UNL     1      -3.227  -0.681  24.662  0.00  0.00    +0.005 C 
ATOM      5  C   UNL     1      -2.652  -0.129  24.875  0.00  0.00    +0.005 C 
ATOM      6  C   UNL     1      -1.948  -0.382  25.226  0.00  0.00    +0.027 C 
ATOM     22  C   UNL     1      -1.821  -1.185  25.362  0.00  0.00    -0.048 C 
ATOM     23  C   UNL     1      -1.118  -1.438  25.713  0.00  0.00    +0.026 C 
ATOM     24  C   UNL     1      -2.397  -1.737  25.149  0.00  0.00    -0.034 C 
ATOM     25  C   UNL     1      -3.100  -1.485  24.798  0.00  0.00    +0.037 C 
BRANCH   4   2
ATOM      1  C   UNL     1      -3.996  -0.405  23.489  0.00  0.00    +0.000 C 
ATOM      2  C   UNL     1      -3.930  -0.428  24.311  0.00  0.00    +0.000 C 
ATOM      3  C   UNL     1      -4.568  -0.199  24.783  0.00  0.00    +0.000 C 
ENDBRANCH   4   2
BRANCH  25  26
ATOM     26  C   UNL     1      -3.675  -2.035  24.585  0.00  0.00    +0.110 C 
BRANCH  26  27
ATOM     27  C   UNL     1      -3.493  -2.839  24.577  0.00  0.00    +0.073 C 
ATOM     28  N   UNL     1      -3.311  -3.645  24.568  0.00  0.00    -0.196 NA
ENDBRANCH  26  27
ENDBRANCH  25  26
ENDBRANCH   7   6
TORSDOF 5
ENDMDL
MODEL 5
REMARK VINA RESULT:      -8.9      3.136      5.100
REMARK  Name = 
REMARK  5 active torsions:
REMARK  status: ('A' for Active; 'I' for Inactive)
REMARK    1  A    between atoms: C_2  and  C_4
REMARK    2  A    between atoms: C_6  and  C_7
REMARK    3  A    between atoms: C_7  and  C_8
REMARK    4  A    between atoms: C_25  and  C_26
REMARK    5  A    between atoms: C_26  and  C_27
REMARK                            x       y       z     vdW  Elec       q    Type
REMARK                         _______ _______ _______ _____ _____    ______ ____
ROOT
ATOM      7  C   UNL     1      -1.350   0.759  24.361  0.00  0.00    +0.089 C 
ENDROOT
BRANCH   7   8
ATOM      8  C   UNL     1      -0.989   0.189  23.886  0.00  0.00    +0.226 C 
ATOM      9  O   UNL     1      -1.418  -0.468  23.632  0.00  0.00    -0.275 OA
ATOM     10  N   UNL     1      -0.199   0.275  23.665  0.00  0.00    -0.276 N 
ATOM     11  C   UNL     1       0.231   0.932  23.919  0.00  0.00    +0.115 C 
ATOM     12  C   UNL     1       1.020   1.019  23.698  0.00  0.00    +0.115 C 
ATOM     13  N   UNL     1       1.380   0.450  23.223  0.00  0.00    -0.275 N 
ATOM     14  C   UNL     1       0.951  -0.207  22.969  0.00  0.00    +0.115 C 
ATOM     15  C   UNL     1       0.161  -0.294  23.190  0.00  0.00    +0.115 C 
ATOM     16  C   UNL     1       2.171   0.536  23.002  0.00  0.00    +0.220 A 
ATOM     17  N   UNL     1       2.600   1.193  23.256  0.00  0.00    -0.212 NA
ATOM     18  C   UNL     1       3.391   1.280  23.035  0.00  0.00    +0.103 A 
ATOM     19  C   UNL     1       3.751   0.710  22.560  0.00  0.00    +0.041 A 
ATOM     20  C   UNL     1       3.321   0.053  22.306  0.00  0.00    +0.103 A 
ATOM     21  N   UNL     1       2.532  -0.034  22.527  0.00  0.00    -0.212 NA
ENDBRANCH   7   8
BRANCH   7   6
ATOM      4  C   UNL     1      -3.272  -0.081  24.967  0.00  0.00    +0.005 C 
ATOM      5  C   UNL     1      -2.468  -0.022  24.789  0.00  0.00    +0.005 C 
ATOM      6  C   UNL     1      -2.153   0.699  24.539  0.00  0.00    +0.027 C 
ATOM     22  C   UNL     1      -2.642   1.360  24.467  0.00  0.00    -0.048 C 
ATOM     23  C   UNL     1      -2.327   2.080  24.217  0.00  0.00    +0.026 C 
ATOM     24  C   UNL     1      -3.445   1.301  24.644  0.00  0.00    -0.034 C 
ATOM     25  C   UNL     1      -3.761   0.580  24.894  0.00  0.00    +0.037 C 
BRANCH   4   2
ATOM      1  C   UNL     1      -3.517  -1.030  26.007  0.00  0.00    +0.000 C 
ATOM      2  C   UNL     1      -3.586  -0.801  25.217  0.00  0.00    +0.000 C 
ATOM      3  C   UNL     1      -3.971  -1.293  24.677  0.00  0.00    +0.000 C 
ENDBRANCH   4   2
BRANCH  25  26
ATOM     26  C   UNL     1      -4.564   0.521  25.072  0.00  0.00    +0.110 C 
BRANCH  26  27
ATOM     27  C   UNL     1      -5.035   1.197  25.081  0.00  0.00    +0.073 C 
ATOM     28  N   UNL     1      -5.507   1.874  25.089  0.00  0.00    -0.196 NA
ENDBRANCH  26  27
ENDBRANCH  25  26
ENDBRANCH   7   6
TORSDOF 5
ENDMDL
MODEL 6
REMARK VINA RESULT:      -6.8     17.398     19.584
REMARK  Name = 
REMARK  5 active torsions:
REMARK  status: ('A' for Active; 'I' for Inactive)
REMARK    1  A    between atoms: C_2  and  C_4
REMARK    2  A    between atoms: C_6  and  C_7
REMARK    3  A    between atoms: C_7  and  C_8
REMARK    4  A    between atoms: C_25  and  C_26
REMARK    5  A    between atoms: C_26  and  C_27
REMARK                            x       y       z     vdW  Elec       q    Type
REMARK                         _______ _______ _______ _____ _____    ______ ____
ROOT
ATOM      7  C   UNL     1      14.935   8.014  18.918  0.00  0.00    +0.089 C 
ENDROOT
BRANCH   7   8
ATOM      8  C   UNL     1      14.140   7.925  19.120  0.00  0.00    +0.226 C 
ATOM      9  O   UNL     1      13.933   7.656  19.872  0.00  0.00    -0.275 OA
ATOM     10  N   UNL     1      13.551   8.104  18.570  0.00  0.00    -0.276 N 
ATOM     11  C   UNL     1      13.758   8.372  17.818  0.00  0.00    +0.115 C 
ATOM     12  C   UNL     1      13.169   8.551  17.268  0.00  0.00    +0.115 C 
ATOM     13  N   UNL     1      12.376   8.462  17.470  0.00  0.00    -0.275 N 
ATOM     14  C   UNL     1      12.168   8.193  18.222  0.00  0.00    +0.115 C 
ATOM     15  C   UNL     1      12.757   8.014  18.772  0.00  0.00    +0.115 C 
ATOM     16  C   UNL     1      11.787   8.641  16.920  0.00  0.00    +0.220 A 
ATOM     17  N   UNL     1      11.994   8.909  16.168  0.00  0.00    -0.212 NA
ATOM     18  C   UNL     1      11.405   9.088  15.617  0.00  0.00    +0.103 A 
ATOM     19  C   UNL     1      10.610   8.999  15.819  0.00  0.00    +0.041 A 
ATOM     20  C   UNL     1      10.404   8.730  16.572  0.00  0.00    +0.103 A 
ATOM     21  N   UNL     1      10.992   8.551  17.122  0.00  0.00    -0.212 NA
ENDBRANCH   7   8
BRANCH   7   6
ATOM      4  C   UNL     1      16.312   8.218  20.599  0.00  0.00    +0.005 C 
ATOM      5  C   UNL     1      15.724   8.393  20.047  0.00  0.00    +0.005 C 
ATOM      6  C   UNL     1      15.522   7.839  19.469  0.00  0.00    +0.027 C 
ATOM     22  C   UNL     1      15.909   7.111  19.443  0.00  0.00    -0.048 C 
ATOM     23  C   UNL     1      15.707   6.557  18.866  0.00  0.00    +0.026 C 
ATOM     24  C   UNL     1      16.497   6.935  19.995  0.00  0.00    -0.034 C 
ATOM     25  C   UNL     1      16.699   7.489  20.573  0.00  0.00    +0.037 C 
BRANCH   4   2
ATOM      1  C   UNL     1      15.955   9.005  21.737  0.00  0.00    +0.000 C 
ATOM      2  C   UNL     1      16.514   8.771  21.176  0.00  0.00    +0.000 C 
ATOM      3  C   UNL     1      17.275   9.091  21.194  0.00  0.00    +0.000 C 
ENDBRANCH   4   2
BRANCH  25  26
ATOM     26  C   UNL     1      17.287   7.314  21.124  0.00  0.00    +0.110 C 
BRANCH  26  27
ATOM     27  C   UNL     1      17.346   6.554  21.436  0.00  0.00    +0.073 C 
ATOM     28  N   UNL     1      17.405   5.792  21.749  0.00  0.00    -0.196 NA
ENDBRANCH  26  27
ENDBRANCH  25  26
ENDBRANCH   7   6
TORSDOF 5
ENDMDL
