MODEL 1
REMARK VINA RESULT:      -9.8      0.000      0.000
REMARK  Name = 
REMARK  7 active torsions:
REMARK  status: ('A' for Active; 'I' for Inactive)
REMARK    1  A    between atoms: C_2  and  C_4
REMARK    2  A    between atoms: C_6  and  C_7
REMARK    3  A    between atoms: C_7  and  C_8
REMARK    4  A    between atoms: C_18  and  C_19
REMARK    5  A    between atoms: C_19  and  N_20
REMARK    6  A    between atoms: C_21  and  C_23
REMARK    7  A    between atoms: C_26  and  C_29
REMARK                            x       y       z     vdW  Elec       q    Type
REMARK                         _______ _______ _______ _____ _____    ______ ____
ROOT
ATOM      4  C   UNL     1      -3.471   2.617  24.775  0.00  0.00    +0.006 C 
ATOM      5  C   UNL     1      -2.878   3.165  24.944  0.00  0.00    +0.005 C 
ATOM      6  C   UNL     1      -2.147   2.907  25.227  0.00  0.00    +0.027 C 
ATOM     15  C   UNL     1      -2.009   2.101  25.341  0.00  0.00    -0.048 C 
ATOM     16  C   UNL     1      -1.279   1.844  25.623  0.00  0.00    +0.026 C 
ATOM     17  C   UNL     1      -2.602   1.554  25.172  0.00  0.00    -0.033 C 
ATOM     18  C   UNL     1      -3.334   1.812  24.889  0.00  0.00    +0.043 C 
ENDROOT
BRANCH   4   2
ATOM      1  C   UNL     1      -4.313   2.996  23.684  0.00  0.00    +0.000 C 
ATOM      2  C   UNL     1      -4.202   2.875  24.492  0.00  0.00    +0.000 C 
ATOM      3  C   UNL     1      -4.823   3.011  25.019  0.00  0.00    +0.000 C 
ENDBRANCH   4   2
BRANCH   6   7
ATOM      7  C   UNL     1      -1.554   3.455  25.396  0.00  0.00    +0.089 C 
BRANCH   7   8
ATOM      8  C   UNL     1      -1.746   4.249  25.513  0.00  0.00    +0.226 C 
ATOM      9  O   UNL     1      -2.370   4.452  26.013  0.00  0.00    -0.275 OA
ATOM     10  N   UNL     1      -1.315   4.839  25.130  0.00  0.00    -0.280 N 
ATOM     11  C   UNL     1      -0.681   4.719  24.615  0.00  0.00    +0.093 C 
ATOM     12  C   UNL     1      -0.417   5.458  24.361  0.00  0.00    +0.023 C 
ATOM     13  C   UNL     1      -0.887   6.034  24.718  0.00  0.00    +0.023 C 
ATOM     14  C   UNL     1      -1.443   5.651  25.192  0.00  0.00    +0.093 C 
ENDBRANCH   7   8
ENDBRANCH   6   7
BRANCH  18  19
ATOM     19  C   UNL     1      -3.927   1.264  24.720  0.00  0.00    +0.120 C 
BRANCH  19  20
ATOM     20  N   UNL     1      -3.736   0.470  24.609  0.00  0.00    -0.201 NA
ATOM     21  C   UNL     1      -4.314  -0.111  24.703  0.00  0.00    +0.265 C 
ATOM     22  O   UNL     1      -5.083   0.102  24.909  0.00  0.00    -0.268 OA
BRANCH  21  23
ATOM     23  C   UNL     1      -4.122  -0.906  24.592  0.00  0.00    +0.055 A 
ATOM     24  C   UNL     1      -3.737  -1.325  25.190  0.00  0.00    +0.005 A 
ATOM     25  C   UNL     1      -3.546  -2.119  25.079  0.00  0.00    +0.010 A 
ATOM     26  C   UNL     1      -3.739  -2.495  24.371  0.00  0.00    +0.068 A 
ATOM     27  C   UNL     1      -4.124  -2.076  23.773  0.00  0.00    +0.010 A 
ATOM     28  C   UNL     1      -4.316  -1.282  23.884  0.00  0.00    +0.005 A 
BRANCH  26  29
ATOM     29  C   UNL     1      -3.548  -3.290  24.259  0.00  0.00    +0.100 C 
ATOM     30  N   UNL     1      -3.358  -4.085  24.147  0.00  0.00    -0.191 NA
ENDBRANCH  26  29
ENDBRANCH  21  23
ENDBRANCH  19  20
ENDBRANCH  18  19
TORSDOF 7
ENDMDL
MODEL 2
REMARK VINA RESULT:      -9.4      1.188      5.878
REMARK  Name = 
REMARK  7 active torsions:
REMARK  status: ('A' for Active; 'I' for Inactive)
REMARK    1  A    between atoms: C_2  and  C_4
REMARK    2  A    between atoms: C_6  and  C_7
REMARK    3  A    between atoms: C_7  and  C_8
REMARK    4  A    between atoms: C_18  and  C_19
REMARK    5  A    between atoms: C_19  and  N_20
REMARK    6  A    between atoms: C_21  and  C_23
REMARK    7  A    between atoms: C_26  and  C_29
REMARK                            x       y       z     vdW  Elec       q    Type
REMARK                         _______ _______ _______ _____ _____    ______ ____
ROOT
ATOM      4  C   UNL     1      -4.793   1.232  25.011  0.00  0.00    +0.006 C 
ATOM      5  C   UNL     1      -4.778   0.436  24.796  0.00  0.00    +0.005 C 
ATOM      6  C   UNL     1      -4.088   0.105  24.489  0.00  0.00    +0.027 C 
ATOM     15  C   UNL     1      -3.412   0.569  24.397  0.00  0.00    -0.048 C 
ATOM     16  C   UNL     1      -2.722   0.238  24.091  0.00  0.00    +0.026 C 
ATOM     17  C   UNL     1      -3.427   1.366  24.613  0.00  0.00    -0.033 C 
ATOM     18  C   UNL     1      -4.118   1.697  24.920  0.00  0.00    +0.043 C 
ENDROOT
BRANCH   4   2
ATOM      1  C   UNL     1      -5.628   1.539  26.130  0.00  0.00    +0.000 C 
ATOM      2  C   UNL     1      -5.484   1.564  25.318  0.00  0.00    +0.000 C 
ATOM      3  C   UNL     1      -6.029   1.920  24.812  0.00  0.00    +0.000 C 
ENDBRANCH   4   2
BRANCH   6   7
ATOM      7  C   UNL     1      -4.073  -0.692  24.274  0.00  0.00    +0.089 C 
BRANCH   7   8
ATOM      8  C   UNL     1      -3.882  -1.267  24.835  0.00  0.00    +0.226 C 
ATOM      9  O   UNL     1      -3.753  -1.050  25.620  0.00  0.00    -0.275 OA
ATOM     10  N   UNL     1      -3.822  -2.058  24.609  0.00  0.00    -0.280 N 
ATOM     11  C   UNL     1      -3.935  -2.356  23.848  0.00  0.00    +0.093 C 
ATOM     12  C   UNL     1      -3.821  -3.172  23.873  0.00  0.00    +0.023 C 
ATOM     13  C   UNL     1      -3.636  -3.379  24.650  0.00  0.00    +0.023 C 
ATOM     14  C   UNL     1      -3.637  -2.691  25.105  0.00  0.00    +0.093 C 
ENDBRANCH   7   8
ENDBRANCH   6   7
BRANCH  18  19
ATOM     19  C   UNL     1      -4.133   2.494  25.135  0.00  0.00    +0.120 C 
BRANCH  19  20
ATOM     20  N   UNL     1      -3.481   2.974  24.981  0.00  0.00    -0.201 NA
ATOM     21  C   UNL     1      -3.322   3.621  25.468  0.00  0.00    +0.265 C 
ATOM     22  O   UNL     1      -3.815   3.788  26.108  0.00  0.00    -0.268 OA
BRANCH  21  23
ATOM     23  C   UNL     1      -2.669   4.103  25.314  0.00  0.00    +0.055 A 
ATOM     24  C   UNL     1      -2.773   4.834  24.945  0.00  0.00    +0.005 A 
ATOM     25  C   UNL     1      -2.121   5.314  24.792  0.00  0.00    +0.010 A 
ATOM     26  C   UNL     1      -1.365   5.065  25.008  0.00  0.00    +0.068 A 
ATOM     27  C   UNL     1      -1.262   4.335  25.377  0.00  0.00    +0.010 A 
ATOM     28  C   UNL     1      -1.913   3.853  25.530  0.00  0.00    +0.005 A 
BRANCH  26  29
ATOM     29  C   UNL     1      -0.712   5.546  24.854  0.00  0.00    +0.100 C 
ATOM     30  N   UNL     1      -0.060   6.026  24.700  0.00  0.00    -0.191 NA
ENDBRANCH  26  29
ENDBRANCH  21  23
ENDBRANCH  19  20
ENDBRANCH  18  19
TORSDOF 7
ENDMDL
MODEL 3
REMARK VINA RESULT:      -9.4      1.469      6.246
REMARK  Name = 
REMARK  7 active torsions:
REMARK  status: ('A' for Active; 'I' for Inactive)
REMARK    1  A    between atoms: C_2  and  C_4
REMARK    2  A    between atoms: C_6  and  C_7
REMARK    3  A    between atoms: C_7  and  C_8
REMARK    4  A    between atoms: C_18  and  C_19
REMARK    5  A    between atoms: C_19  and  N_20
REMARK    6  A    between atoms: C_21  and  C_23
REMARK    7  A    between atoms: C_26  and  C_29
REMARK                            x       y       z     vdW  Elec       q    Type
REMARK                         _______ _______ _______ _____ _____    ______ ____
ROOT
ATOM      4  C   UNL     1      -1.798  -0.151  25.009  0.00  0.00    +0.006 C 
ATOM      5  C   UNL     1      -2.394  -0.694  24.835  0.00  0.00    +0.005 C 
ATOM      6  C   UNL     1      -3.181  -0.451  24.822  0.00  0.00    +0.027 C 
ATOM     15  C   UNL     1      -3.374   0.335  24.983  0.00  0.00    -0.048 C 
ATOM     16  C   UNL     1      -4.162   0.578  24.970  0.00  0.00    +0.026 C 
ATOM     17  C   UNL     1      -2.778   0.878  25.157  0.00  0.00    -0.033 C 
ATOM     18  C   UNL     1      -1.989   0.635  25.170  0.00  0.00    +0.043 C 
ENDROOT
BRANCH   4   2
ATOM      1  C   UNL     1      -0.555  -0.359  24.334  0.00  0.00    +0.000 C 
ATOM      2  C   UNL     1      -1.009  -0.394  25.022  0.00  0.00    +0.000 C 
ATOM      3  C   UNL     1      -0.675  -0.671  25.724  0.00  0.00    +0.000 C 
ENDBRANCH   4   2
BRANCH   6   7
ATOM      7  C   UNL     1      -3.778  -0.994  24.648  0.00  0.00    +0.089 C 
BRANCH   7   8
ATOM      8  C   UNL     1      -3.718  -1.773  24.916  0.00  0.00    +0.226 C 
ATOM      9  O   UNL     1      -3.483  -1.924  25.692  0.00  0.00    -0.275 OA
ATOM     10  N   UNL     1      -3.892  -2.398  24.407  0.00  0.00    -0.280 N 
ATOM     11  C   UNL     1      -4.132  -2.331  23.620  0.00  0.00    +0.093 C 
ATOM     12  C   UNL     1      -4.246  -3.092  23.323  0.00  0.00    +0.023 C 
ATOM     13  C   UNL     1      -4.076  -3.629  23.926  0.00  0.00    +0.023 C 
ATOM     14  C   UNL     1      -3.858  -3.201  24.595  0.00  0.00    +0.093 C 
ENDBRANCH   7   8
ENDBRANCH   6   7
BRANCH  18  19
ATOM     19  C   UNL     1      -1.393   1.178  25.344  0.00  0.00    +0.120 C 
BRANCH  19  20
ATOM     20  N   UNL     1      -1.511   1.981  25.197  0.00  0.00    -0.201 NA
ATOM     21  C   UNL     1      -1.057   2.544  25.595  0.00  0.00    +0.265 C 
ATOM     22  O   UNL     1      -0.485   2.304  26.138  0.00  0.00    -0.268 OA
BRANCH  21  23
ATOM     23  C   UNL     1      -1.175   3.348  25.448  0.00  0.00    +0.055 A 
ATOM     24  C   UNL     1      -0.626   3.771  25.000  0.00  0.00    +0.005 A 
ATOM     25  C   UNL     1      -0.745   4.573  24.854  0.00  0.00    +0.010 A 
ATOM     26  C   UNL     1      -1.411   4.954  25.155  0.00  0.00    +0.068 A 
ATOM     27  C   UNL     1      -1.960   4.531  25.603  0.00  0.00    +0.010 A 
ATOM     28  C   UNL     1      -1.843   3.728  25.749  0.00  0.00    +0.005 A 
BRANCH  26  29
ATOM     29  C   UNL     1      -1.530   5.757  25.009  0.00  0.00    +0.100 C 
ATOM     30  N   UNL     1      -1.650   6.560  24.864  0.00  0.00    -0.191 NA
ENDBRANCH  26  29
ENDBRANCH  21  23
ENDBRANCH  19  20
ENDBRANCH  18  19
TORSDOF 7
ENDMDL
MODEL 4
REMARK VINA RESULT:      -9.2      3.012      4.752
REMARK  Name = 
REMARK  7 active torsions:
REMARK  status: ('A' for Active; 'I' for Inactive)
REMARK    1  A    between atoms: C_2  and  C_4
REMARK    2  A    between atoms: C_6  and  C_7
REMARK    3  A    between atoms: C_7  and  C_8
REMARK    4  A    between atoms: C_18  and  C_19
REMARK    5  A    between atoms: C_19  and  N_20
REMARK    6  A    between atoms: C_21  and  C_23
REMARK    7  A    between atoms: C_26  and  C_29
REMARK                            x       y       z     vdW  Elec       q    Type
REMARK                         _______ _______ _______ _____ _____    ______ ____
ROOT
ATOM      4  C   UNL     1      -1.219  -0.236  24.523  0.00  0.00    +0.006 C 
ATOM      5  C   UNL     1      -0.434  -0.127  24.292  0.00  0.00    +0.005 C 
ATOM      6  C   UNL     1      -0.208   0.571  23.918  0.00  0.00    +0.027 C 
ATOM     15  C   UNL     1      -0.766   1.162  23.774  0.00  0.00    -0.048 C 
ATOM     16  C   UNL     1      -0.540   1.861  23.399  0.00  0.00    +0.026 C 
ATOM     17  C   UNL     1      -1.550   1.053  24.005  0.00  0.00    -0.033 C 
ATOM     18  C   UNL     1      -1.777   0.354  24.380  0.00  0.00    +0.043 C 
ENDROOT
BRANCH   4   2
ATOM      1  C   UNL     1      -1.376  -1.006  25.718  0.00  0.00    +0.000 C 
ATOM      2  C   UNL     1      -1.446  -0.936  24.899  0.00  0.00    +0.000 C 
ATOM      3  C   UNL     1      -1.741  -1.565  24.454  0.00  0.00    +0.000 C 
ENDBRANCH   4   2
BRANCH   6   7
ATOM      7  C   UNL     1       0.576   0.680  23.687  0.00  0.00    +0.089 C 
BRANCH   7   8
ATOM      8  C   UNL     1       0.904   0.200  23.100  0.00  0.00    +0.226 C 
ATOM      9  O   UNL     1       0.431  -0.346  22.702  0.00  0.00    -0.275 OA
ATOM     10  N   UNL     1       1.704   0.268  22.911  0.00  0.00    -0.280 N 
ATOM     11  C   UNL     1       2.243   0.787  23.261  0.00  0.00    +0.093 C 
ATOM     12  C   UNL     1       2.978   0.668  22.906  0.00  0.00    +0.023 C 
ATOM     13  C   UNL     1       2.894   0.076  22.338  0.00  0.00    +0.023 C 
ATOM     14  C   UNL     1       2.107  -0.171  22.341  0.00  0.00    +0.093 C 
ENDBRANCH   7   8
ENDBRANCH   6   7
BRANCH  18  19
ATOM     19  C   UNL     1      -2.562   0.245  24.611  0.00  0.00    +0.120 C 
BRANCH  19  20
ATOM     20  N   UNL     1      -3.027   0.896  24.810  0.00  0.00    -0.201 NA
ATOM     21  C   UNL     1      -3.849   0.847  24.757  0.00  0.00    +0.265 C 
ATOM     22  O   UNL     1      -4.205   0.147  24.506  0.00  0.00    -0.268 OA
BRANCH  21  23
ATOM     23  C   UNL     1      -4.315   1.499  24.957  0.00  0.00    +0.055 A 
ATOM     24  C   UNL     1      -5.038   1.388  25.338  0.00  0.00    +0.005 A 
ATOM     25  C   UNL     1      -5.503   2.039  25.537  0.00  0.00    +0.010 A 
ATOM     26  C   UNL     1      -5.245   2.801  25.355  0.00  0.00    +0.068 A 
ATOM     27  C   UNL     1      -4.522   2.912  24.974  0.00  0.00    +0.010 A 
ATOM     28  C   UNL     1      -4.056   2.261  24.774  0.00  0.00    +0.005 A 
BRANCH  26  29
ATOM     29  C   UNL     1      -5.711   3.453  25.554  0.00  0.00    +0.100 C 
ATOM     30  N   UNL     1      -6.175   4.105  25.753  0.00  0.00    -0.191 NA
ENDBRANCH  26  29
ENDBRANCH  21  23
ENDBRANCH  19  20
ENDBRANCH  18  19
TORSDOF 7
ENDMDL
MODEL 5
REMARK VINA RESULT:      -9.2      2.962      4.751
REMARK  Name = 
REMARK  7 active torsions:
REMARK  status: ('A' for Active; 'I' for Inactive)
REMARK    1  A    between atoms: C_2  and  C_4
REMARK    2  A    between atoms: C_6  and  C_7
REMARK    3  A    between atoms: C_7  and  C_8
REMARK    4  A    between atoms: C_18  and  C_19
REMARK    5  A    between atoms: C_19  and  N_20
REMARK    6  A    between atoms: C_21  and  C_23
REMARK    7  A    between atoms: C_26  and  C_29
REMARK                            x       y       z     vdW  Elec       q    Type
REMARK                         _______ _______ _______ _____ _____    ______ ____
ROOT
ATOM      4  C   UNL     1      -2.746   0.217  24.666  0.00  0.00    +0.006 C 
ATOM      5  C   UNL     1      -3.394   0.728  24.676  0.00  0.00    +0.005 C 
ATOM      6  C   UNL     1      -3.377   1.423  24.233  0.00  0.00    +0.027 C 
ATOM     15  C   UNL     1      -2.713   1.608  23.779  0.00  0.00    -0.048 C 
ATOM     16  C   UNL     1      -2.696   2.303  23.336  0.00  0.00    +0.026 C 
ATOM     17  C   UNL     1      -2.065   1.097  23.769  0.00  0.00    -0.033 C 
ATOM     18  C   UNL     1      -2.082   0.401  24.213  0.00  0.00    +0.043 C 
ENDROOT
BRANCH   4   2
ATOM      1  C   UNL     1      -2.420  -0.498  25.860  0.00  0.00    +0.000 C 
ATOM      2  C   UNL     1      -2.763  -0.479  25.110  0.00  0.00    +0.000 C 
ATOM      3  C   UNL     1      -3.121  -1.155  24.802  0.00  0.00    +0.000 C 
ENDBRANCH   4   2
BRANCH   6   7
ATOM      7  C   UNL     1      -4.024   1.934  24.243  0.00  0.00    +0.089 C 
BRANCH   7   8
ATOM      8  C   UNL     1      -4.236   2.319  24.942  0.00  0.00    +0.226 C 
ATOM      9  O   UNL     1      -3.655   2.669  25.412  0.00  0.00    -0.275 OA
ATOM     10  N   UNL     1      -5.028   2.353  25.171  0.00  0.00    -0.280 N 
ATOM     11  C   UNL     1      -5.666   2.030  24.759  0.00  0.00    +0.093 C 
ATOM     12  C   UNL     1      -6.353   2.194  25.184  0.00  0.00    +0.023 C 
ATOM     13  C   UNL     1      -6.140   2.618  25.859  0.00  0.00    +0.023 C 
ATOM     14  C   UNL     1      -5.321   2.716  25.851  0.00  0.00    +0.093 C 
ENDBRANCH   7   8
ENDBRANCH   6   7
BRANCH  18  19
ATOM     19  C   UNL     1      -1.434  -0.110  24.203  0.00  0.00    +0.120 C 
BRANCH  19  20
ATOM     20  N   UNL     1      -0.716   0.141  23.887  0.00  0.00    -0.201 NA
ATOM     21  C   UNL     1      -0.089  -0.390  23.815  0.00  0.00    +0.265 C 
ATOM     22  O   UNL     1      -0.180  -1.173  24.058  0.00  0.00    -0.268 OA
BRANCH  21  23
ATOM     23  C   UNL     1       0.631  -0.138  23.498  0.00  0.00    +0.055 A 
ATOM     24  C   UNL     1       1.034   0.495  23.842  0.00  0.00    +0.005 A 
ATOM     25  C   UNL     1       1.753   0.746  23.525  0.00  0.00    +0.010 A 
ATOM     26  C   UNL     1       2.069   0.365  22.867  0.00  0.00    +0.068 A 
ATOM     27  C   UNL     1       1.667  -0.268  22.523  0.00  0.00    +0.010 A 
ATOM     28  C   UNL     1       0.947  -0.520  22.839  0.00  0.00    +0.005 A 
BRANCH  26  29
ATOM     29  C   UNL     1       2.789   0.616  22.550  0.00  0.00    +0.100 C 
ATOM     30  N   UNL     1       3.509   0.865  22.234  0.00  0.00    -0.191 NA
ENDBRANCH  26  29
ENDBRANCH  21  23
ENDBRANCH  19  20
ENDBRANCH  18  19
TORSDOF 7
ENDMDL
MODEL 6
REMARK VINA RESULT:      -5.9     14.015     16.105
REMARK  Name = 
REMARK  7 active torsions:
REMARK  status: ('A' for Active; 'I' for Inactive)
REMARK    1  A    between atoms: C_2  and  C_4
REMARK    2  A    between atoms: C_6  and  C_7
REMARK    3  A    between atoms: C_7  and  C_8
REMARK    4  A    between atoms: C_18  and  C_19
REMARK    5  A    between atoms: C_19  and  N_20
REMARK    6  A    between atoms: C_21  and  C_23
REMARK    7  A    between atoms: C_26  and  C_29
REMARK                            x       y       z     vdW  Elec       q    Type
REMARK                         _______ _______ _______ _____ _____    ______ ____
ROOT
ATOM      4  C   UNL     1      -5.989 -10.216  16.583  0.00  0.00    +0.006 C 
ATOM      5  C   UNL     1      -6.785 -10.151  16.790  0.00  0.00    +0.005 C 
ATOM      6  C   UNL     1      -7.370 -10.306  16.230  0.00  0.00    +0.027 C 
ATOM     15  C   UNL     1      -7.160 -10.525  15.462  0.00  0.00    -0.048 C 
ATOM     16  C   UNL     1      -7.745 -10.679  14.902  0.00  0.00    +0.026 C 
ATOM     17  C   UNL     1      -6.364 -10.589  15.255  0.00  0.00    -0.033 C 
ATOM     18  C   UNL     1      -5.778 -10.435  15.816  0.00  0.00    +0.043 C 
ENDROOT
BRANCH   4   2
ATOM      1  C   UNL     1      -5.055  -9.314  17.182  0.00  0.00    +0.000 C 
ATOM      2  C   UNL     1      -5.403 -10.061  17.143  0.00  0.00    +0.000 C 
ATOM      3  C   UNL     1      -5.165 -10.655  17.664  0.00  0.00    +0.000 C 
ENDBRANCH   4   2
BRANCH   6   7
ATOM      7  C   UNL     1      -8.166 -10.241  16.437  0.00  0.00    +0.089 C 
BRANCH   7   8
ATOM      8  C   UNL     1      -8.471  -9.515  16.684  0.00  0.00    +0.226 C 
ATOM      9  O   UNL     1      -8.100  -8.814  16.457  0.00  0.00    -0.275 OA
ATOM     10  N   UNL     1      -9.146  -9.490  17.157  0.00  0.00    -0.280 N 
ATOM     11  C   UNL     1      -9.574 -10.143  17.426  0.00  0.00    +0.093 C 
ATOM     12  C   UNL     1     -10.204  -9.865  17.879  0.00  0.00    +0.023 C 
ATOM     13  C   UNL     1     -10.166  -9.041  17.891  0.00  0.00    +0.023 C 
ATOM     14  C   UNL     1      -9.512  -8.810  17.445  0.00  0.00    +0.093 C 
ENDBRANCH   7   8
ENDBRANCH   6   7
BRANCH  18  19
ATOM     19  C   UNL     1      -4.982 -10.499  15.609  0.00  0.00    +0.120 C 
BRANCH  19  20
ATOM     20  N   UNL     1      -4.759 -10.475  14.816  0.00  0.00    -0.201 NA
ATOM     21  C   UNL     1      -3.974 -10.615  14.603  0.00  0.00    +0.265 C 
ATOM     22  O   UNL     1      -3.412 -10.780  15.184  0.00  0.00    -0.268 OA
BRANCH  21  23
ATOM     23  C   UNL     1      -3.751 -10.591  13.809  0.00  0.00    +0.055 A 
ATOM     24  C   UNL     1      -2.966 -10.438  13.605  0.00  0.00    +0.005 A 
ATOM     25  C   UNL     1      -2.743 -10.414  12.812  0.00  0.00    +0.010 A 
ATOM     26  C   UNL     1      -3.304 -10.542  12.222  0.00  0.00    +0.068 A 
ATOM     27  C   UNL     1      -4.089 -10.695  12.425  0.00  0.00    +0.010 A 
ATOM     28  C   UNL     1      -4.313 -10.720  13.219  0.00  0.00    +0.005 A 
BRANCH  26  29
ATOM     29  C   UNL     1      -3.082 -10.518  11.427  0.00  0.00    +0.100 C 
ATOM     30  N   UNL     1      -2.859 -10.493  10.634  0.00  0.00    -0.191 NA
ENDBRANCH  26  29
ENDBRANCH  21  23
ENDBRANCH  19  20
ENDBRANCH  18  19
TORSDOF 7
ENDMDL
