MODEL 1
REMARK VINA RESULT:      -9.3      0.000      0.000
REMARK  Name = 
REMARK  3 active torsions:
REMARK  status: ('A' for Active; 'I' for Inactive)
REMARK    1  A    between atoms: C_7  and  C_10
REMARK    2  A    between atoms: N_12  and  C_13
REMARK    3  A    between atoms: N_21  and  C_24
REMARK                            x       y       z     vdW  Elec       q    Type
REMARK                         _______ _______ _______ _____ _____    ______ ____
ROOT
ATOM     13  C   UNL     1      -0.611   0.468  24.406  0.00  0.00    +0.099 C 
ATOM     14  C   UNL     1      -0.813  -0.207  24.836  0.00  0.00    +0.043 C 
ATOM     15  C   UNL     1      -1.585  -0.307  25.107  0.00  0.00    +0.097 C 
ATOM     16  N   UNL     1      -2.156   0.268  24.949  0.00  0.00    -0.257 N 
ATOM     17  C   UNL     1      -1.954   0.943  24.519  0.00  0.00    +0.156 C 
ATOM     18  C   UNL     1      -1.181   1.043  24.248  0.00  0.00    +0.051 C 
ATOM     19  C   UNL     1      -2.629   1.411  24.449  0.00  0.00    +0.254 C 
ATOM     20  O   UNL     1      -2.676   2.138  24.060  0.00  0.00    -0.272 OA
ATOM     21  N   UNL     1      -3.248   1.027  24.834  0.00  0.00    -0.191 N 
ATOM     22  C   UNL     1      -2.956   0.320  25.143  0.00  0.00    +0.317 C 
ATOM     23  O   UNL     1      -3.388  -0.237  25.572  0.00  0.00    -0.252 OA
ENDROOT
BRANCH  21  24
ATOM     24  C   UNL     1      -4.023   1.301  24.900  0.00  0.00    +0.062 A 
ATOM     25  C   UNL     1      -4.185   1.982  25.337  0.00  0.00    +0.015 A 
ATOM     26  C   UNL     1      -4.961   2.256  25.403  0.00  0.00    -0.003 A 
ATOM     27  C   UNL     1      -5.574   1.849  25.030  0.00  0.00    -0.022 A 
ATOM     28  C   UNL     1      -6.350   2.122  25.096  0.00  0.00    +0.031 C 
ATOM     29  C   UNL     1      -5.413   1.169  24.593  0.00  0.00    -0.003 A 
ATOM     30  C   UNL     1      -4.638   0.895  24.528  0.00  0.00    +0.015 A 
ENDBRANCH  21  24
BRANCH  13  12
ATOM     10  C   UNL     1       0.415   0.173  23.456  0.00  0.00    +0.241 C 
ATOM     11  O   UNL     1      -0.104  -0.323  23.050  0.00  0.00    -0.273 OA
ATOM     12  N   UNL     1       0.162   0.569  24.134  0.00  0.00    -0.207 NA
BRANCH  10   7
ATOM      1  C   UNL     1       4.005   1.118  22.738  0.00  0.00    +0.095 C 
ATOM      2  C   UNL     1       3.505   0.574  22.370  0.00  0.00    +0.226 C 
ATOM      3  O   UNL     1       3.780   0.130  21.731  0.00  0.00    -0.275 OA
ATOM      4  N   UNL     1       2.734   0.474  22.642  0.00  0.00    -0.280 N 
ATOM      5  C   UNL     1       2.234  -0.070  22.274  0.00  0.00    +0.094 C 
ATOM      6  C   UNL     1       1.461  -0.171  22.545  0.00  0.00    +0.031 C 
ATOM      7  C   UNL     1       1.188   0.273  23.185  0.00  0.00    +0.082 C 
ATOM      8  C   UNL     1       1.687   0.818  23.553  0.00  0.00    +0.031 C 
ATOM      9  C   UNL     1       2.459   0.918  23.281  0.00  0.00    +0.094 C 
ENDBRANCH  10   7
ENDBRANCH  13  12
TORSDOF 3
ENDMDL
MODEL 2
REMARK VINA RESULT:      -9.1      1.163      6.335
REMARK  Name = 
REMARK  3 active torsions:
REMARK  status: ('A' for Active; 'I' for Inactive)
REMARK    1  A    between atoms: C_7  and  C_10
REMARK    2  A    between atoms: N_12  and  C_13
REMARK    3  A    between atoms: N_21  and  C_24
REMARK                            x       y       z     vdW  Elec       q    Type
REMARK                         _______ _______ _______ _____ _____    ______ ____
ROOT
ATOM     13  C   UNL     1      -1.855   0.624  24.736  0.00  0.00    +0.099 C 
ATOM     14  C   UNL     1      -1.792  -0.192  24.834  0.00  0.00    +0.043 C 
ATOM     15  C   UNL     1      -1.127  -0.591  24.553  0.00  0.00    +0.097 C 
ATOM     16  N   UNL     1      -0.525  -0.173  24.174  0.00  0.00    -0.257 N 
ATOM     17  C   UNL     1      -0.588   0.643  24.076  0.00  0.00    +0.156 C 
ATOM     18  C   UNL     1      -1.254   1.043  24.357  0.00  0.00    +0.051 C 
ATOM     19  C   UNL     1       0.088   0.906  23.683  0.00  0.00    +0.254 C 
ATOM     20  O   UNL     1       0.253   1.687  23.472  0.00  0.00    -0.272 OA
ATOM     21  N   UNL     1       0.569   0.252  23.539  0.00  0.00    -0.191 N 
ATOM     22  C   UNL     1       0.190  -0.414  23.842  0.00  0.00    +0.317 C 
ATOM     23  O   UNL     1       0.477  -1.188  23.818  0.00  0.00    -0.252 OA
ENDROOT
BRANCH  21  24
ATOM     24  C   UNL     1       1.301   0.263  23.158  0.00  0.00    +0.062 A 
ATOM     25  C   UNL     1       1.385  -0.089  22.416  0.00  0.00    +0.015 A 
ATOM     26  C   UNL     1       2.117  -0.078  22.035  0.00  0.00    -0.003 A 
ATOM     27  C   UNL     1       2.764   0.285  22.395  0.00  0.00    -0.022 A 
ATOM     28  C   UNL     1       3.495   0.296  22.014  0.00  0.00    +0.031 C 
ATOM     29  C   UNL     1       2.680   0.637  23.136  0.00  0.00    -0.003 A 
ATOM     30  C   UNL     1       1.948   0.626  23.517  0.00  0.00    +0.015 A 
ENDBRANCH  21  24
BRANCH  13  12
ATOM     10  C   UNL     1      -3.167   1.149  24.519  0.00  0.00    +0.241 C 
ATOM     11  O   UNL     1      -3.148   0.875  23.741  0.00  0.00    -0.273 OA
ATOM     12  N   UNL     1      -2.521   1.024  25.017  0.00  0.00    -0.207 NA
BRANCH  10   7
ATOM      1  C   UNL     1      -6.504   2.322  25.852  0.00  0.00    +0.095 C 
ATOM      2  C   UNL     1      -5.828   2.745  25.643  0.00  0.00    +0.226 C 
ATOM      3  O   UNL     1      -5.817   3.567  25.714  0.00  0.00    -0.275 OA
ATOM      4  N   UNL     1      -5.163   2.346  25.362  0.00  0.00    -0.280 N 
ATOM      5  C   UNL     1      -4.486   2.769  25.152  0.00  0.00    +0.094 C 
ATOM      6  C   UNL     1      -3.821   2.370  24.871  0.00  0.00    +0.031 C 
ATOM      7  C   UNL     1      -3.833   1.548  24.800  0.00  0.00    +0.082 C 
ATOM      8  C   UNL     1      -4.510   1.125  25.010  0.00  0.00    +0.031 C 
ATOM      9  C   UNL     1      -5.174   1.524  25.291  0.00  0.00    +0.094 C 
ENDBRANCH  10   7
ENDBRANCH  13  12
TORSDOF 3
ENDMDL
MODEL 3
REMARK VINA RESULT:      -9.1      3.235      5.063
REMARK  Name = 
REMARK  3 active torsions:
REMARK  status: ('A' for Active; 'I' for Inactive)
REMARK    1  A    between atoms: C_7  and  C_10
REMARK    2  A    between atoms: N_12  and  C_13
REMARK    3  A    between atoms: N_21  and  C_24
REMARK                            x       y       z     vdW  Elec       q    Type
REMARK                         _______ _______ _______ _____ _____    ______ ____
ROOT
ATOM     13  C   UNL     1      -1.804   0.419  24.901  0.00  0.00    +0.099 C 
ATOM     14  C   UNL     1      -1.221   0.409  25.484  0.00  0.00    +0.043 C 
ATOM     15  C   UNL     1      -0.889   1.117  25.746  0.00  0.00    +0.097 C 
ATOM     16  N   UNL     1      -1.139   1.835  25.426  0.00  0.00    -0.257 N 
ATOM     17  C   UNL     1      -1.723   1.845  24.843  0.00  0.00    +0.156 C 
ATOM     18  C   UNL     1      -2.056   1.136  24.580  0.00  0.00    +0.051 C 
ATOM     19  C   UNL     1      -1.859   2.630  24.631  0.00  0.00    +0.254 C 
ATOM     20  O   UNL     1      -2.399   2.893  24.066  0.00  0.00    -0.272 OA
ATOM     21  N   UNL     1      -1.359   3.106  25.083  0.00  0.00    -0.191 N 
ATOM     22  C   UNL     1      -0.915   2.614  25.574  0.00  0.00    +0.317 C 
ATOM     23  O   UNL     1      -0.345   2.859  26.118  0.00  0.00    -0.252 OA
ENDROOT
BRANCH  21  24
ATOM     24  C   UNL     1      -1.312   3.929  25.050  0.00  0.00    +0.062 A 
ATOM     25  C   UNL     1      -1.903   4.390  25.395  0.00  0.00    +0.015 A 
ATOM     26  C   UNL     1      -1.856   5.213  25.361  0.00  0.00    -0.003 A 
ATOM     27  C   UNL     1      -1.218   5.575  24.983  0.00  0.00    -0.022 A 
ATOM     28  C   UNL     1      -1.171   6.398  24.950  0.00  0.00    +0.031 C 
ATOM     29  C   UNL     1      -0.628   5.114  24.638  0.00  0.00    -0.003 A 
ATOM     30  C   UNL     1      -0.675   4.291  24.672  0.00  0.00    +0.015 A 
ENDBRANCH  21  24
BRANCH  13  12
ATOM     10  C   UNL     1      -2.858  -0.545  24.947  0.00  0.00    +0.241 C 
ATOM     11  O   UNL     1      -3.246  -0.094  25.518  0.00  0.00    -0.273 OA
ATOM     12  N   UNL     1      -2.137  -0.289  24.638  0.00  0.00    -0.207 NA
BRANCH  10   7
ATOM      1  C   UNL     1      -4.820  -3.364  23.366  0.00  0.00    +0.095 C 
ATOM      2  C   UNL     1      -4.188  -3.377  23.897  0.00  0.00    +0.226 C 
ATOM      3  O   UNL     1      -3.889  -4.098  24.164  0.00  0.00    -0.275 OA
ATOM      4  N   UNL     1      -3.856  -2.669  24.159  0.00  0.00    -0.280 N 
ATOM      5  C   UNL     1      -3.224  -2.682  24.689  0.00  0.00    +0.094 C 
ATOM      6  C   UNL     1      -2.891  -1.974  24.952  0.00  0.00    +0.031 C 
ATOM      7  C   UNL     1      -3.191  -1.254  24.684  0.00  0.00    +0.082 C 
ATOM      8  C   UNL     1      -3.823  -1.241  24.154  0.00  0.00    +0.031 C 
ATOM      9  C   UNL     1      -4.155  -1.948  23.891  0.00  0.00    +0.094 C 
ENDBRANCH  10   7
ENDBRANCH  13  12
TORSDOF 3
ENDMDL
MODEL 4
REMARK VINA RESULT:      -8.2      3.459      4.725
REMARK  Name = 
REMARK  3 active torsions:
REMARK  status: ('A' for Active; 'I' for Inactive)
REMARK    1  A    between atoms: C_7  and  C_10
REMARK    2  A    between atoms: N_12  and  C_13
REMARK    3  A    between atoms: N_21  and  C_24
REMARK                            x       y       z     vdW  Elec       q    Type
REMARK                         _______ _______ _______ _____ _____    ______ ____
ROOT
ATOM     13  C   UNL     1      -3.399   1.970  24.525  0.00  0.00    +0.099 C 
ATOM     14  C   UNL     1      -4.204   1.954  24.703  0.00  0.00    +0.043 C 
ATOM     15  C   UNL     1      -4.602   1.234  24.750  0.00  0.00    +0.097 C 
ATOM     16  N   UNL     1      -4.195   0.528  24.620  0.00  0.00    -0.257 N 
ATOM     17  C   UNL     1      -3.389   0.543  24.442  0.00  0.00    +0.156 C 
ATOM     18  C   UNL     1      -2.991   1.265  24.395  0.00  0.00    +0.051 C 
ATOM     19  C   UNL     1      -3.135  -0.234  24.342  0.00  0.00    +0.254 C 
ATOM     20  O   UNL     1      -2.367  -0.474  24.158  0.00  0.00    -0.272 OA
ATOM     21  N   UNL     1      -3.783  -0.731  24.458  0.00  0.00    -0.191 N 
ATOM     22  C   UNL     1      -4.438  -0.260  24.629  0.00  0.00    +0.317 C 
ATOM     23  O   UNL     1      -5.203  -0.529  24.783  0.00  0.00    -0.252 OA
ENDROOT
BRANCH  21  24
ATOM     24  C   UNL     1      -3.778  -1.555  24.410  0.00  0.00    +0.062 A 
ATOM     25  C   UNL     1      -4.107  -1.933  23.754  0.00  0.00    +0.015 A 
ATOM     26  C   UNL     1      -4.102  -2.756  23.706  0.00  0.00    -0.003 A 
ATOM     27  C   UNL     1      -3.767  -3.202  24.314  0.00  0.00    -0.022 A 
ATOM     28  C   UNL     1      -3.762  -4.026  24.266  0.00  0.00    +0.031 C 
ATOM     29  C   UNL     1      -3.438  -2.825  24.969  0.00  0.00    -0.003 A 
ATOM     30  C   UNL     1      -3.443  -2.002  25.017  0.00  0.00    +0.015 A 
ENDBRANCH  21  24
BRANCH  13  12
ATOM     10  C   UNL     1      -2.527   2.943  25.105  0.00  0.00    +0.241 C 
ATOM     11  O   UNL     1      -2.452   2.473  25.779  0.00  0.00    -0.273 OA
ATOM     12  N   UNL     1      -3.000   2.692  24.478  0.00  0.00    -0.207 NA
BRANCH  10   7
ATOM      1  C   UNL     1      -0.154   5.850  24.651  0.00  0.00    +0.095 C 
ATOM      2  C   UNL     1      -0.935   5.827  24.916  0.00  0.00    +0.226 C 
ATOM      3  O   UNL     1      -1.317   6.525  25.132  0.00  0.00    -0.275 OA
ATOM      4  N   UNL     1      -1.332   5.106  24.963  0.00  0.00    -0.280 N 
ATOM      5  C   UNL     1      -2.113   5.083  25.227  0.00  0.00    +0.094 C 
ATOM      6  C   UNL     1      -2.512   4.361  25.275  0.00  0.00    +0.031 C 
ATOM      7  C   UNL     1      -2.128   3.664  25.057  0.00  0.00    +0.082 C 
ATOM      8  C   UNL     1      -1.347   3.688  24.793  0.00  0.00    +0.031 C 
ATOM      9  C   UNL     1      -0.950   4.408  24.746  0.00  0.00    +0.094 C 
ENDBRANCH  10   7
ENDBRANCH  13  12
TORSDOF 3
ENDMDL
MODEL 5
REMARK VINA RESULT:      -8.0     14.836     16.255
REMARK  Name = 
REMARK  3 active torsions:
REMARK  status: ('A' for Active; 'I' for Inactive)
REMARK    1  A    between atoms: C_7  and  C_10
REMARK    2  A    between atoms: N_12  and  C_13
REMARK    3  A    between atoms: N_21  and  C_24
REMARK                            x       y       z     vdW  Elec       q    Type
REMARK                         _______ _______ _______ _____ _____    ______ ____
ROOT
ATOM     13  C   UNL     1      -5.022 -10.623  14.750  0.00  0.00    +0.099 C 
ATOM     14  C   UNL     1      -4.213 -10.781  14.752  0.00  0.00    +0.043 C 
ATOM     15  C   UNL     1      -3.772 -10.685  14.062  0.00  0.00    +0.097 C 
ATOM     16  N   UNL     1      -4.140 -10.430  13.369  0.00  0.00    -0.257 N 
ATOM     17  C   UNL     1      -4.950 -10.272  13.366  0.00  0.00    +0.156 C 
ATOM     18  C   UNL     1      -5.391 -10.368  14.057  0.00  0.00    +0.051 C 
ATOM     19  C   UNL     1      -5.160 -10.030  12.607  0.00  0.00    +0.254 C 
ATOM     20  O   UNL     1      -5.917  -9.817  12.358  0.00  0.00    -0.272 OA
ATOM     21  N   UNL     1      -4.481 -10.039  12.139  0.00  0.00    -0.191 N 
ATOM     22  C   UNL     1      -3.851 -10.286  12.611  0.00  0.00    +0.317 C 
ATOM     23  O   UNL     1      -3.067 -10.374  12.366  0.00  0.00    -0.252 OA
ENDROOT
BRANCH  21  24
ATOM     24  C   UNL     1      -4.438  -9.836  11.341  0.00  0.00    +0.062 A 
ATOM     25  C   UNL     1      -4.484 -10.424  10.763  0.00  0.00    +0.015 A 
ATOM     26  C   UNL     1      -4.442 -10.221   9.964  0.00  0.00    -0.003 A 
ATOM     27  C   UNL     1      -4.354  -9.431   9.744  0.00  0.00    -0.022 A 
ATOM     28  C   UNL     1      -4.312  -9.228   8.945  0.00  0.00    +0.031 C 
ATOM     29  C   UNL     1      -4.309  -8.844  10.321  0.00  0.00    -0.003 A 
ATOM     30  C   UNL     1      -4.351  -9.046  11.119  0.00  0.00    +0.015 A 
ENDBRANCH  21  24
BRANCH  13  12
ATOM     10  C   UNL     1      -5.398 -10.169  16.052  0.00  0.00    +0.241 C 
ATOM     11  O   UNL     1      -4.891  -9.523  15.973  0.00  0.00    -0.273 OA
ATOM     12  N   UNL     1      -5.464 -10.719  15.441  0.00  0.00    -0.207 NA
BRANCH  10   7
ATOM      1  C   UNL     1      -7.978 -10.426  18.804  0.00  0.00    +0.095 C 
ATOM      2  C   UNL     1      -7.163 -10.555  18.813  0.00  0.00    +0.226 C 
ATOM      3  O   UNL     1      -6.790 -10.781  19.514  0.00  0.00    -0.275 OA
ATOM      4  N   UNL     1      -6.723 -10.459  18.123  0.00  0.00    -0.280 N 
ATOM      5  C   UNL     1      -5.908 -10.588  18.133  0.00  0.00    +0.094 C 
ATOM      6  C   UNL     1      -5.466 -10.492  17.442  0.00  0.00    +0.031 C 
ATOM      7  C   UNL     1      -5.840 -10.266  16.743  0.00  0.00    +0.082 C 
ATOM      8  C   UNL     1      -6.655 -10.137  16.733  0.00  0.00    +0.031 C 
ATOM      9  C   UNL     1      -7.096 -10.233  17.423  0.00  0.00    +0.094 C 
ENDBRANCH  10   7
ENDBRANCH  13  12
TORSDOF 3
ENDMDL
MODEL 6
REMARK VINA RESULT:      -7.1     15.241     15.912
REMARK  Name = 
REMARK  3 active torsions:
REMARK  status: ('A' for Active; 'I' for Inactive)
REMARK    1  A    between atoms: C_7  and  C_10
REMARK    2  A    between atoms: N_12  and  C_13
REMARK    3  A    between atoms: N_21  and  C_24
REMARK                            x       y       z     vdW  Elec       q    Type
REMARK                         _______ _______ _______ _____ _____    ______ ____
ROOT
ATOM     13  C   UNL     1      -6.260 -10.178  13.303  0.00  0.00    +0.099 C 
ATOM     14  C   UNL     1      -7.053 -10.404  13.337  0.00  0.00    +0.043 C 
ATOM     15  C   UNL     1      -7.422 -10.508  14.067  0.00  0.00    +0.097 C 
ATOM     16  N   UNL     1      -6.999 -10.385  14.765  0.00  0.00    -0.257 N 
ATOM     17  C   UNL     1      -6.206 -10.159  14.731  0.00  0.00    +0.156 C 
ATOM     18  C   UNL     1      -5.837 -10.055  14.000  0.00  0.00    +0.051 C 
ATOM     19  C   UNL     1      -5.931 -10.078  15.504  0.00  0.00    +0.254 C 
ATOM     20  O   UNL     1      -5.167  -9.859  15.728  0.00  0.00    -0.272 OA
ATOM     21  N   UNL     1      -6.554 -10.254  16.016  0.00  0.00    -0.191 N 
ATOM     22  C   UNL     1      -7.213 -10.444  15.558  0.00  0.00    +0.317 C 
ATOM     23  O   UNL     1      -7.958 -10.656  15.845  0.00  0.00    -0.252 OA
ENDROOT
BRANCH  21  24
ATOM     24  C   UNL     1      -6.522 -10.243  16.840  0.00  0.00    +0.062 A 
ATOM     25  C   UNL     1      -6.042 -10.781  17.243  0.00  0.00    +0.015 A 
ATOM     26  C   UNL     1      -6.010 -10.769  18.067  0.00  0.00    -0.003 A 
ATOM     27  C   UNL     1      -6.460 -10.221  18.489  0.00  0.00    -0.022 A 
ATOM     28  C   UNL     1      -6.428 -10.210  19.313  0.00  0.00    +0.031 C 
ATOM     29  C   UNL     1      -6.940  -9.684  18.087  0.00  0.00    -0.003 A 
ATOM     30  C   UNL     1      -6.971  -9.695  17.263  0.00  0.00    +0.015 A 
ENDBRANCH  21  24
BRANCH  13  12
ATOM     10  C   UNL     1      -6.099  -9.437  12.092  0.00  0.00    +0.241 C 
ATOM     11  O   UNL     1      -6.677  -8.903  12.342  0.00  0.00    -0.273 OA
ATOM     12  N   UNL     1      -5.891 -10.074  12.572  0.00  0.00    -0.207 NA
BRANCH  10   7
ATOM      1  C   UNL     1      -4.913  -9.409   8.503  0.00  0.00    +0.095 C 
ATOM      2  C   UNL     1      -4.622  -9.023   9.171  0.00  0.00    +0.226 C 
ATOM      3  O   UNL     1      -3.961  -8.532   9.108  0.00  0.00    -0.275 OA
ATOM      4  N   UNL     1      -4.991  -9.126   9.900  0.00  0.00    -0.280 N 
ATOM      5  C   UNL     1      -4.700  -8.739  10.569  0.00  0.00    +0.094 C 
ATOM      6  C   UNL     1      -5.069  -8.843  11.300  0.00  0.00    +0.031 C 
ATOM      7  C   UNL     1      -5.730  -9.333  11.361  0.00  0.00    +0.082 C 
ATOM      8  C   UNL     1      -6.021  -9.720  10.693  0.00  0.00    +0.031 C 
ATOM      9  C   UNL     1      -5.652  -9.616   9.963  0.00  0.00    +0.094 C 
ENDBRANCH  10   7
ENDBRANCH  13  12
TORSDOF 3
ENDMDL
MODEL 7
REMARK VINA RESULT:      -6.8     15.173     16.527
REMARK  Name = 
REMARK  3 active torsions:
REMARK  status: ('A' for Active; 'I' for Inactive)
REMARK    1  A    between atoms: C_7  and  C_10
REMARK    2  A    between atoms: N_12  and  C_13
REMARK    3  A    between atoms: N_21  and  C_24
REMARK                            x       y       z     vdW  Elec       q    Type
REMARK                         _______ _______ _______ _____ _____    ______ ____
ROOT
ATOM     13  C   UNL     1      -7.260 -10.086  14.357  0.00  0.00    +0.099 C 
ATOM     14  C   UNL     1      -7.954  -9.931  13.939  0.00  0.00    +0.043 C 
ATOM     15  C   UNL     1      -7.916  -9.709  13.146  0.00  0.00    +0.097 C 
ATOM     16  N   UNL     1      -7.185  -9.642  12.770  0.00  0.00    -0.257 N 
ATOM     17  C   UNL     1      -6.491  -9.797  13.188  0.00  0.00    +0.156 C 
ATOM     18  C   UNL     1      -6.528 -10.019  13.982  0.00  0.00    +0.051 C 
ATOM     19  C   UNL     1      -5.855  -9.686  12.675  0.00  0.00    +0.254 C 
ATOM     20  O   UNL     1      -5.057  -9.782  12.864  0.00  0.00    -0.272 OA
ATOM     21  N   UNL     1      -6.155  -9.463  11.940  0.00  0.00    -0.191 N 
ATOM     22  C   UNL     1      -6.977  -9.435  11.999  0.00  0.00    +0.317 C 
ATOM     23  O   UNL     1      -7.500  -9.236  11.393  0.00  0.00    -0.252 OA
ENDROOT
BRANCH  21  24
ATOM     24  C   UNL     1      -5.711  -9.296  11.265  0.00  0.00    +0.062 A 
ATOM     25  C   UNL     1      -5.542  -9.896  10.724  0.00  0.00    +0.015 A 
ATOM     26  C   UNL     1      -5.098  -9.729  10.049  0.00  0.00    -0.003 A 
ATOM     27  C   UNL     1      -4.824  -8.962   9.915  0.00  0.00    -0.022 A 
ATOM     28  C   UNL     1      -4.380  -8.795   9.240  0.00  0.00    +0.031 C 
ATOM     29  C   UNL     1      -4.993  -8.363  10.456  0.00  0.00    -0.003 A 
ATOM     30  C   UNL     1      -5.436  -8.530  11.131  0.00  0.00    +0.015 A 
ENDBRANCH  21  24
BRANCH  13  12
ATOM     10  C   UNL     1      -7.483  -9.749  15.728  0.00  0.00    +0.241 C 
ATOM     11  O   UNL     1      -7.631  -8.967  15.511  0.00  0.00    -0.273 OA
ATOM     12  N   UNL     1      -7.297 -10.309  15.151  0.00  0.00    -0.207 NA
BRANCH  10   7
ATOM      1  C   UNL     1      -6.938 -10.716  19.341  0.00  0.00    +0.095 C 
ATOM      2  C   UNL     1      -7.632 -10.637  18.902  0.00  0.00    +0.226 C 
ATOM      3  O   UNL     1      -8.363 -10.781  19.257  0.00  0.00    -0.275 OA
ATOM      4  N   UNL     1      -7.594 -10.415  18.109  0.00  0.00    -0.280 N 
ATOM      5  C   UNL     1      -8.288 -10.337  17.670  0.00  0.00    +0.094 C 
ATOM      6  C   UNL     1      -8.251 -10.114  16.876  0.00  0.00    +0.031 C 
ATOM      7  C   UNL     1      -7.520  -9.971  16.522  0.00  0.00    +0.082 C 
ATOM      8  C   UNL     1      -6.826 -10.050  16.961  0.00  0.00    +0.031 C 
ATOM      9  C   UNL     1      -6.863 -10.272  17.754  0.00  0.00    +0.094 C 
ENDBRANCH  10   7
ENDBRANCH  13  12
TORSDOF 3
ENDMDL
MODEL 8
REMARK VINA RESULT:      -6.6     13.875     15.666
REMARK  Name = 
REMARK  3 active torsions:
REMARK  status: ('A' for Active; 'I' for Inactive)
REMARK    1  A    between atoms: C_7  and  C_10
REMARK    2  A    between atoms: N_12  and  C_13
REMARK    3  A    between atoms: N_21  and  C_24
REMARK                            x       y       z     vdW  Elec       q    Type
REMARK                         _______ _______ _______ _____ _____    ______ ____
ROOT
ATOM     13  C   UNL     1      -4.701 -10.731  16.378  0.00  0.00    +0.099 C 
ATOM     14  C   UNL     1      -3.987 -10.767  16.789  0.00  0.00    +0.043 C 
ATOM     15  C   UNL     1      -3.273 -10.717  16.380  0.00  0.00    +0.097 C 
ATOM     16  N   UNL     1      -3.272 -10.632  15.559  0.00  0.00    -0.257 N 
ATOM     17  C   UNL     1      -3.986 -10.597  15.148  0.00  0.00    +0.156 C 
ATOM     18  C   UNL     1      -4.701 -10.646  15.557  0.00  0.00    +0.051 C 
ATOM     19  C   UNL     1      -3.814 -10.512  14.346  0.00  0.00    +0.254 C 
ATOM     20  O   UNL     1      -4.366 -10.454  13.735  0.00  0.00    -0.272 OA
ATOM     21  N   UNL     1      -2.994 -10.495  14.261  0.00  0.00    -0.191 N 
ATOM     22  C   UNL     1      -2.659 -10.569  15.011  0.00  0.00    +0.317 C 
ATOM     23  O   UNL     1      -1.852 -10.578  15.183  0.00  0.00    -0.252 OA
ENDROOT
BRANCH  21  24
ATOM     24  C   UNL     1      -2.581 -10.417  13.551  0.00  0.00    +0.062 A 
ATOM     25  C   UNL     1      -2.960 -10.572  12.834  0.00  0.00    +0.015 A 
ATOM     26  C   UNL     1      -2.547 -10.494  12.124  0.00  0.00    -0.003 A 
ATOM     27  C   UNL     1      -1.755 -10.261  12.131  0.00  0.00    -0.022 A 
ATOM     28  C   UNL     1      -1.342 -10.183  11.421  0.00  0.00    +0.031 C 
ATOM     29  C   UNL     1      -1.377 -10.106  12.847  0.00  0.00    -0.003 A 
ATOM     30  C   UNL     1      -1.790 -10.184  13.557  0.00  0.00    +0.015 A 
ENDBRANCH  21  24
BRANCH  13  12
ATOM     10  C   UNL     1      -5.820 -10.093  16.996  0.00  0.00    +0.241 C 
ATOM     11  O   UNL     1      -5.509  -9.355  16.796  0.00  0.00    -0.273 OA
ATOM     12  N   UNL     1      -5.416 -10.781  16.787  0.00  0.00    -0.207 NA
BRANCH  10   7
ATOM      1  C   UNL     1      -8.743 -10.780  19.293  0.00  0.00    +0.095 C 
ATOM      2  C   UNL     1      -8.679 -10.291  18.631  0.00  0.00    +0.226 C 
ATOM      3  O   UNL     1      -9.331  -9.852  18.379  0.00  0.00    -0.275 OA
ATOM      4  N   UNL     1      -7.965 -10.242  18.223  0.00  0.00    -0.280 N 
ATOM      5  C   UNL     1      -7.901  -9.753  17.562  0.00  0.00    +0.094 C 
ATOM      6  C   UNL     1      -7.186  -9.703  17.152  0.00  0.00    +0.031 C 
ATOM      7  C   UNL     1      -6.535 -10.143  17.405  0.00  0.00    +0.082 C 
ATOM      8  C   UNL     1      -6.599 -10.632  18.067  0.00  0.00    +0.031 C 
ATOM      9  C   UNL     1      -7.314 -10.681  18.475  0.00  0.00    +0.094 C 
ENDBRANCH  10   7
ENDBRANCH  13  12
TORSDOF 3
ENDMDL
MODEL 9
REMARK VINA RESULT:      -6.6     15.237     15.882
REMARK  Name = 
REMARK  3 active torsions:
REMARK  status: ('A' for Active; 'I' for Inactive)
REMARK    1  A    between atoms: C_7  and  C_10
REMARK    2  A    between atoms: N_12  and  C_13
REMARK    3  A    between atoms: N_21  and  C_24
REMARK                            x       y       z     vdW  Elec       q    Type
REMARK                         _______ _______ _______ _____ _____    ______ ____
ROOT
ATOM     13  C   UNL     1      -7.199  -9.901  13.204  0.00  0.00    +0.099 C 
ATOM     14  C   UNL     1      -7.921  -9.866  12.807  0.00  0.00    +0.043 C 
ATOM     15  C   UNL     1      -8.620  -9.769  13.232  0.00  0.00    +0.097 C 
ATOM     16  N   UNL     1      -8.599  -9.706  14.055  0.00  0.00    -0.257 N 
ATOM     17  C   UNL     1      -7.877  -9.741  14.452  0.00  0.00    +0.156 C 
ATOM     18  C   UNL     1      -7.176  -9.838  14.026  0.00  0.00    +0.051 C 
ATOM     19  C   UNL     1      -8.026  -9.664  15.259  0.00  0.00    +0.254 C 
ATOM     20  O   UNL     1      -7.459  -9.668  15.859  0.00  0.00    -0.272 OA
ATOM     21  N   UNL     1      -8.840  -9.581  15.361  0.00  0.00    -0.191 N 
ATOM     22  C   UNL     1      -9.193  -9.608  14.617  0.00  0.00    +0.317 C 
ATOM     23  O   UNL     1     -10.002  -9.546  14.462  0.00  0.00    -0.252 OA
ENDROOT
BRANCH  21  24
ATOM     24  C   UNL     1      -9.231  -9.489  16.082  0.00  0.00    +0.062 A 
ATOM     25  C   UNL     1      -9.343  -8.734  16.397  0.00  0.00    +0.015 A 
ATOM     26  C   UNL     1      -9.735  -8.642  17.117  0.00  0.00    -0.003 A 
ATOM     27  C   UNL     1     -10.014  -9.305  17.522  0.00  0.00    -0.022 A 
ATOM     28  C   UNL     1     -10.406  -9.212  18.243  0.00  0.00    +0.031 C 
ATOM     29  C   UNL     1      -9.902 -10.058  17.208  0.00  0.00    -0.003 A 
ATOM     30  C   UNL     1      -9.511 -10.151  16.487  0.00  0.00    +0.015 A 
ENDBRANCH  21  24
BRANCH  13  12
ATOM     10  C   UNL     1      -6.171  -9.359  12.372  0.00  0.00    +0.241 C 
ATOM     11  O   UNL     1      -6.544  -8.623  12.390  0.00  0.00    -0.273 OA
ATOM     12  N   UNL     1      -6.498  -9.998  12.779  0.00  0.00    -0.207 NA
BRANCH  10   7
ATOM      1  C   UNL     1      -3.229  -9.294   9.998  0.00  0.00    +0.095 C 
ATOM      2  C   UNL     1      -3.369  -9.749  10.672  0.00  0.00    +0.226 C 
ATOM      3  O   UNL     1      -2.809 -10.301  10.920  0.00  0.00    -0.275 OA
ATOM      4  N   UNL     1      -4.069  -9.651  11.096  0.00  0.00    -0.280 N 
ATOM      5  C   UNL     1      -4.210 -10.106  11.770  0.00  0.00    +0.094 C 
ATOM      6  C   UNL     1      -4.910 -10.009  12.195  0.00  0.00    +0.031 C 
ATOM      7  C   UNL     1      -5.470  -9.456  11.946  0.00  0.00    +0.082 C 
ATOM      8  C   UNL     1      -5.329  -9.001  11.273  0.00  0.00    +0.031 C 
ATOM      9  C   UNL     1      -4.630  -9.099  10.848  0.00  0.00    +0.094 C 
ENDBRANCH  10   7
ENDBRANCH  13  12
TORSDOF 3
ENDMDL
MODEL 10
REMARK VINA RESULT:      -6.4     16.995     18.906
REMARK  Name = 
REMARK  3 active torsions:
REMARK  status: ('A' for Active; 'I' for Inactive)
REMARK    1  A    between atoms: C_7  and  C_10
REMARK    2  A    between atoms: N_12  and  C_13
REMARK    3  A    between atoms: N_21  and  C_24
REMARK                            x       y       z     vdW  Elec       q    Type
REMARK                         _______ _______ _______ _____ _____    ______ ____
ROOT
ATOM     13  C   UNL     1      14.391  -5.836  31.141  0.00  0.00    +0.099 C 
ATOM     14  C   UNL     1      14.902  -6.049  30.529  0.00  0.00    +0.043 C 
ATOM     15  C   UNL     1      15.485  -5.524  30.276  0.00  0.00    +0.097 C 
ATOM     16  N   UNL     1      15.559  -4.785  30.635  0.00  0.00    -0.257 N 
ATOM     17  C   UNL     1      15.049  -4.571  31.247  0.00  0.00    +0.156 C 
ATOM     18  C   UNL     1      14.465  -5.097  31.500  0.00  0.00    +0.051 C 
ATOM     19  C   UNL     1      15.252  -3.811  31.494  0.00  0.00    +0.254 C 
ATOM     20  O   UNL     1      14.884  -3.382  32.096  0.00  0.00    -0.272 OA
ATOM     21  N   UNL     1      15.887  -3.555  31.035  0.00  0.00    -0.191 N 
ATOM     22  C   UNL     1      16.076  -4.157  30.505  0.00  0.00    +0.317 C 
ATOM     23  O   UNL     1      16.679  -4.135  29.941  0.00  0.00    -0.252 OA
ENDROOT
BRANCH  21  24
ATOM     24  C   UNL     1      16.267  -2.825  31.097  0.00  0.00    +0.062 A 
ATOM     25  C   UNL     1      16.112  -2.232  30.544  0.00  0.00    +0.015 A 
ATOM     26  C   UNL     1      16.492  -1.502  30.605  0.00  0.00    -0.003 A 
ATOM     27  C   UNL     1      17.026  -1.365  31.219  0.00  0.00    -0.022 A 
ATOM     28  C   UNL     1      17.405  -0.635  31.280  0.00  0.00    +0.031 C 
ATOM     29  C   UNL     1      17.180  -1.957  31.771  0.00  0.00    -0.003 A 
ATOM     30  C   UNL     1      16.801  -2.687  31.710  0.00  0.00    +0.015 A 
ENDBRANCH  21  24
BRANCH  13  12
ATOM     10  C   UNL     1      13.137  -6.487  30.930  0.00  0.00    +0.241 C 
ATOM     11  O   UNL     1      13.051  -6.088  30.213  0.00  0.00    -0.273 OA
ATOM     12  N   UNL     1      13.807  -6.361  31.394  0.00  0.00    -0.207 NA
BRANCH  10   7
ATOM      1  C   UNL     1      10.126  -8.303  32.318  0.00  0.00    +0.095 C 
ATOM      2  C   UNL     1      10.803  -8.588  31.943  0.00  0.00    +0.226 C 
ATOM      3  O   UNL     1      10.895  -9.399  31.820  0.00  0.00    -0.275 OA
ATOM      4  N   UNL     1      11.386  -8.063  31.690  0.00  0.00    -0.280 N 
ATOM      5  C   UNL     1      12.063  -8.348  31.314  0.00  0.00    +0.094 C 
ATOM      6  C   UNL     1      12.647  -7.823  31.061  0.00  0.00    +0.031 C 
ATOM      7  C   UNL     1      12.553  -7.013  31.183  0.00  0.00    +0.082 C 
ATOM      8  C   UNL     1      11.876  -6.727  31.559  0.00  0.00    +0.031 C 
ATOM      9  C   UNL     1      11.293  -7.252  31.812  0.00  0.00    +0.094 C 
ENDBRANCH  10   7
ENDBRANCH  13  12
TORSDOF 3
ENDMDL
