MODEL 1
REMARK VINA RESULT:      -8.2      0.000      0.000
REMARK  Name = 
REMARK  7 active torsions:
REMARK  status: ('A' for Active; 'I' for Inactive)
REMARK    1  A    between atoms: O_2  and  C_3
REMARK    2  A    between atoms: C_6  and  C_9
REMARK    3  A    between atoms: N_11  and  C_12
REMARK    4  A    between atoms: C_15  and  C_18
REMARK    5  A    between atoms: N_23  and  C_24
REMARK    6  A    between atoms: C_24  and  C_25
REMARK    7  A    between atoms: C_27  and  C_28
REMARK                            x       y       z     vdW  Elec       q    Type
REMARK                         _______ _______ _______ _____ _____    ______ ____
ROOT
ATOM     12  C   UNL     1      -1.335   1.283  23.828  0.00  0.00    +0.074 A 
ATOM     13  C   UNL     1      -1.971   1.190  23.310  0.00  0.00    +0.016 A 
ATOM     14  C   UNL     1      -2.745   1.265  23.587  0.00  0.00    -0.001 A 
ATOM     15  C   UNL     1      -2.882   1.434  24.383  0.00  0.00    +0.006 A 
ATOM     16  C   UNL     1      -2.247   1.528  24.901  0.00  0.00    -0.001 A 
ATOM     17  C   UNL     1      -1.474   1.452  24.623  0.00  0.00    +0.016 A 
ENDROOT
BRANCH  15  18
ATOM     18  C   UNL     1      -3.655   1.510  24.661  0.00  0.00    +0.159 C 
ATOM     19  O   UNL     1      -4.077   0.840  24.896  0.00  0.00    -0.341 OA
ATOM     20  C   UNL     1      -4.850   0.916  25.174  0.00  0.00    +0.227 C 
ATOM     21  C   UNL     1      -5.201   1.661  25.216  0.00  0.00    +0.256 C 
ATOM     22  O   UNL     1      -5.976   1.737  25.494  0.00  0.00    -0.272 OA
ATOM     23  N   UNL     1      -4.781   2.330  24.981  0.00  0.00    -0.272 N 
ATOM     27  C   UNL     1      -4.008   2.254  24.703  0.00  0.00    +0.140 C 
BRANCH  27  28
ATOM     28  C   UNL     1      -3.586   2.923  24.467  0.00  0.00    +0.205 C 
ATOM     29  O   UNL     1      -3.868   3.392  23.850  0.00  0.00    -0.218 OA
ENDBRANCH  27  28
BRANCH  23  24
ATOM     24  C   UNL     1      -5.133   3.074  25.023  0.00  0.00    +0.114 C 
BRANCH  24  25
ATOM     25  C   UNL     1      -5.434   3.348  25.741  0.00  0.00    +0.131 C 
ATOM     26  N   UNL     1      -5.779   4.096  25.785  0.00  0.00    -0.130 NA
ENDBRANCH  24  25
ENDBRANCH  23  24
ENDBRANCH  15  18
BRANCH  12  11
ATOM      9  C   UNL     1      -0.157   0.497  23.648  0.00  0.00    +0.269 C 
ATOM     10  O   UNL     1      -0.525  -0.139  24.024  0.00  0.00    -0.268 OA
ATOM     11  N   UNL     1      -0.563   1.208  23.551  0.00  0.00    -0.175 NA
BRANCH   9   6
ATOM      3  C   UNL     1       2.163   0.270  22.815  0.00  0.00    +0.139 A 
ATOM      4  C   UNL     1       1.583  -0.262  22.569  0.00  0.00    +0.037 A 
ATOM      5  C   UNL     1       0.809  -0.186  22.847  0.00  0.00    +0.008 A 
ATOM      6  C   UNL     1       0.616   0.421  23.371  0.00  0.00    +0.056 A 
ATOM      7  C   UNL     1       1.196   0.953  23.617  0.00  0.00    +0.008 A 
ATOM      8  C   UNL     1       1.970   0.877  23.339  0.00  0.00    +0.037 A 
BRANCH   3   2
ATOM      1  C   UNL     1       3.509   0.747  22.756  0.00  0.00    +0.252 C 
ATOM      2  O   UNL     1       2.936   0.195  22.538  0.00  0.00    -0.471 OA
ENDBRANCH   3   2
ENDBRANCH   9   6
ENDBRANCH  12  11
TORSDOF 7
ENDMDL
MODEL 2
REMARK VINA RESULT:      -7.2      2.856      4.793
REMARK  Name = 
REMARK  7 active torsions:
REMARK  status: ('A' for Active; 'I' for Inactive)
REMARK    1  A    between atoms: O_2  and  C_3
REMARK    2  A    between atoms: C_6  and  C_9
REMARK    3  A    between atoms: N_11  and  C_12
REMARK    4  A    between atoms: C_15  and  C_18
REMARK    5  A    between atoms: N_23  and  C_24
REMARK    6  A    between atoms: C_24  and  C_25
REMARK    7  A    between atoms: C_27  and  C_28
REMARK                            x       y       z     vdW  Elec       q    Type
REMARK                         _______ _______ _______ _____ _____    ______ ____
ROOT
ATOM     12  C   UNL     1      -1.322   1.378  24.853  0.00  0.00    +0.074 A 
ATOM     13  C   UNL     1      -1.277   0.902  25.526  0.00  0.00    +0.016 A 
ATOM     14  C   UNL     1      -1.432   0.094  25.471  0.00  0.00    -0.001 A 
ATOM     15  C   UNL     1      -1.633  -0.238  24.743  0.00  0.00    +0.006 A 
ATOM     16  C   UNL     1      -1.678   0.237  24.071  0.00  0.00    -0.001 A 
ATOM     17  C   UNL     1      -1.523   1.045  24.126  0.00  0.00    +0.016 A 
ENDROOT
BRANCH  15  18
ATOM     18  C   UNL     1      -1.788  -1.047  24.688  0.00  0.00    +0.159 C 
ATOM     19  O   UNL     1      -1.164  -1.585  24.649  0.00  0.00    -0.341 OA
ATOM     20  C   UNL     1      -1.320  -2.394  24.594  0.00  0.00    +0.227 C 
ATOM     21  C   UNL     1      -2.099  -2.663  24.577  0.00  0.00    +0.256 C 
ATOM     22  O   UNL     1      -2.255  -3.473  24.522  0.00  0.00    -0.272 OA
ATOM     23  N   UNL     1      -2.723  -2.125  24.616  0.00  0.00    -0.272 N 
ATOM     27  C   UNL     1      -2.567  -1.317  24.672  0.00  0.00    +0.140 C 
BRANCH  27  28
ATOM     28  C   UNL     1      -3.191  -0.778  24.711  0.00  0.00    +0.205 C 
ATOM     29  O   UNL     1      -3.716  -0.800  25.346  0.00  0.00    -0.218 OA
ENDBRANCH  27  28
BRANCH  23  24
ATOM     24  C   UNL     1      -3.502  -2.395  24.600  0.00  0.00    +0.114 C 
BRANCH  24  25
ATOM     25  C   UNL     1      -3.785  -2.801  23.939  0.00  0.00    +0.131 C 
ATOM     26  N   UNL     1      -4.596  -2.905  23.835  0.00  0.00    -0.130 NA
ENDBRANCH  24  25
ENDBRANCH  23  24
ENDBRANCH  15  18
BRANCH  12  11
ATOM      9  C   UNL     1      -1.790   2.725  24.941  0.00  0.00    +0.269 C 
ATOM     10  O   UNL     1      -2.569   2.455  24.919  0.00  0.00    -0.268 OA
ATOM     11  N   UNL     1      -1.167   2.186  24.908  0.00  0.00    -0.175 NA
BRANCH   9   6
ATOM      3  C   UNL     1      -1.324   5.150  25.107  0.00  0.00    +0.139 A 
ATOM      4  C   UNL     1      -2.062   4.857  25.326  0.00  0.00    +0.037 A 
ATOM      5  C   UNL     1      -2.218   4.047  25.271  0.00  0.00    +0.008 A 
ATOM      6  C   UNL     1      -1.635   3.533  24.996  0.00  0.00    +0.056 A 
ATOM      7  C   UNL     1      -0.896   3.827  24.777  0.00  0.00    +0.008 A 
ATOM      8  C   UNL     1      -0.741   4.636  24.832  0.00  0.00    +0.037 A 
BRANCH   3   2
ATOM      1  C   UNL     1      -1.749   6.506  24.954  0.00  0.00    +0.252 C 
ATOM      2  O   UNL     1      -1.168   5.958  25.162  0.00  0.00    -0.471 OA
ENDBRANCH   3   2
ENDBRANCH   9   6
ENDBRANCH  12  11
TORSDOF 7
ENDMDL
MODEL 3
REMARK VINA RESULT:      -7.0      2.822      4.558
REMARK  Name = 
REMARK  7 active torsions:
REMARK  status: ('A' for Active; 'I' for Inactive)
REMARK    1  A    between atoms: O_2  and  C_3
REMARK    2  A    between atoms: C_6  and  C_9
REMARK    3  A    between atoms: N_11  and  C_12
REMARK    4  A    between atoms: C_15  and  C_18
REMARK    5  A    between atoms: N_23  and  C_24
REMARK    6  A    between atoms: C_24  and  C_25
REMARK    7  A    between atoms: C_27  and  C_28
REMARK                            x       y       z     vdW  Elec       q    Type
REMARK                         _______ _______ _______ _____ _____    ______ ____
ROOT
ATOM     12  C   UNL     1      -1.986   0.641  24.316  0.00  0.00    +0.074 A 
ATOM     13  C   UNL     1      -1.475   0.830  24.937  0.00  0.00    +0.016 A 
ATOM     14  C   UNL     1      -1.182   1.597  25.012  0.00  0.00    -0.001 A 
ATOM     15  C   UNL     1      -1.399   2.176  24.465  0.00  0.00    +0.006 A 
ATOM     16  C   UNL     1      -1.910   1.988  23.846  0.00  0.00    -0.001 A 
ATOM     17  C   UNL     1      -2.203   1.221  23.771  0.00  0.00    +0.016 A 
ENDROOT
BRANCH  15  18
ATOM     18  C   UNL     1      -1.106   2.944  24.540  0.00  0.00    +0.159 C 
ATOM     19  O   UNL     1      -0.365   3.134  24.230  0.00  0.00    -0.341 OA
ATOM     20  C   UNL     1      -0.071   3.902  24.305  0.00  0.00    +0.227 C 
ATOM     21  C   UNL     1      -0.519   4.479  24.689  0.00  0.00    +0.256 C 
ATOM     22  O   UNL     1      -0.226   5.247  24.764  0.00  0.00    -0.272 OA
ATOM     23  N   UNL     1      -1.259   4.289  24.998  0.00  0.00    -0.272 N 
ATOM     27  C   UNL     1      -1.553   3.521  24.924  0.00  0.00    +0.140 C 
BRANCH  27  28
ATOM     28  C   UNL     1      -2.293   3.330  25.233  0.00  0.00    +0.205 C 
ATOM     29  O   UNL     1      -2.454   3.463  26.031  0.00  0.00    -0.218 OA
ENDBRANCH  27  28
BRANCH  23  24
ATOM     24  C   UNL     1      -1.706   4.865  25.382  0.00  0.00    +0.114 C 
BRANCH  24  25
ATOM     25  C   UNL     1      -1.838   5.595  25.019  0.00  0.00    +0.131 C 
ATOM     26  N   UNL     1      -2.283   6.173  25.404  0.00  0.00    -0.130 NA
ENDBRANCH  24  25
ENDBRANCH  23  24
ENDBRANCH  15  18
BRANCH  12  11
ATOM      9  C   UNL     1      -2.989  -0.334  24.608  0.00  0.00    +0.269 C 
ATOM     10  O   UNL     1      -3.404   0.226  25.048  0.00  0.00    -0.268 OA
ATOM     11  N   UNL     1      -2.279  -0.125  24.242  0.00  0.00    -0.175 NA
BRANCH   9   6
ATOM      3  C   UNL     1      -3.869  -2.636  24.384  0.00  0.00    +0.139 A 
ATOM      4  C   UNL     1      -4.200  -2.024  23.943  0.00  0.00    +0.037 A 
ATOM      5  C   UNL     1      -3.906  -1.255  24.018  0.00  0.00    +0.008 A 
ATOM      6  C   UNL     1      -3.282  -1.101  24.533  0.00  0.00    +0.056 A 
ATOM      7  C   UNL     1      -2.951  -1.713  24.975  0.00  0.00    +0.008 A 
ATOM      8  C   UNL     1      -3.245  -2.482  24.900  0.00  0.00    +0.037 A 
BRANCH   3   2
ATOM      1  C   UNL     1      -4.257  -3.739  23.562  0.00  0.00    +0.252 C 
ATOM      2  O   UNL     1      -4.162  -3.403  24.310  0.00  0.00    -0.471 OA
ENDBRANCH   3   2
ENDBRANCH   9   6
ENDBRANCH  12  11
TORSDOF 7
ENDMDL
MODEL 4
REMARK VINA RESULT:      -6.7      1.278      6.199
REMARK  Name = 
REMARK  7 active torsions:
REMARK  status: ('A' for Active; 'I' for Inactive)
REMARK    1  A    between atoms: O_2  and  C_3
REMARK    2  A    between atoms: C_6  and  C_9
REMARK    3  A    between atoms: N_11  and  C_12
REMARK    4  A    between atoms: C_15  and  C_18
REMARK    5  A    between atoms: N_23  and  C_24
REMARK    6  A    between atoms: C_24  and  C_25
REMARK    7  A    between atoms: C_27  and  C_28
REMARK                            x       y       z     vdW  Elec       q    Type
REMARK                         _______ _______ _______ _____ _____    ______ ____
ROOT
ATOM     12  C   UNL     1      -2.113   1.850  24.587  0.00  0.00    +0.074 A 
ATOM     13  C   UNL     1      -1.839   2.012  23.825  0.00  0.00    +0.016 A 
ATOM     14  C   UNL     1      -1.182   1.610  23.529  0.00  0.00    -0.001 A 
ATOM     15  C   UNL     1      -0.799   1.048  23.995  0.00  0.00    +0.006 A 
ATOM     16  C   UNL     1      -1.071   0.886  24.756  0.00  0.00    -0.001 A 
ATOM     17  C   UNL     1      -1.728   1.288  25.052  0.00  0.00    +0.016 A 
ENDROOT
BRANCH  15  18
ATOM     18  C   UNL     1      -0.142   0.646  23.698  0.00  0.00    +0.159 C 
ATOM     19  O   UNL     1      -0.226  -0.117  23.395  0.00  0.00    -0.341 OA
ATOM     20  C   UNL     1       0.431  -0.519  23.099  0.00  0.00    +0.227 C 
ATOM     21  C   UNL     1       1.172  -0.157  23.105  0.00  0.00    +0.256 C 
ATOM     22  O   UNL     1       1.830  -0.559  22.808  0.00  0.00    -0.272 OA
ATOM     23  N   UNL     1       1.257   0.606  23.407  0.00  0.00    -0.272 N 
ATOM     27  C   UNL     1       0.600   1.007  23.704  0.00  0.00    +0.140 C 
BRANCH  27  28
ATOM     28  C   UNL     1       0.684   1.770  24.006  0.00  0.00    +0.205 C 
ATOM     29  O   UNL     1       1.147   1.900  24.677  0.00  0.00    -0.218 OA
ENDBRANCH  27  28
BRANCH  23  24
ATOM     24  C   UNL     1       1.998   0.967  23.413  0.00  0.00    +0.114 C 
BRANCH  24  25
ATOM     25  C   UNL     1       2.573   0.738  22.867  0.00  0.00    +0.131 C 
ATOM     26  N   UNL     1       3.317   1.092  22.879  0.00  0.00    -0.130 NA
ENDBRANCH  24  25
ENDBRANCH  23  24
ENDBRANCH  15  18
BRANCH  12  11
ATOM      9  C   UNL     1      -3.527   2.043  24.635  0.00  0.00    +0.269 C 
ATOM     10  O   UNL     1      -3.628   1.432  24.089  0.00  0.00    -0.268 OA
ATOM     11  N   UNL     1      -2.769   2.251  24.883  0.00  0.00    -0.175 NA
BRANCH   9   6
ATOM      3  C   UNL     1      -5.498   3.247  25.524  0.00  0.00    +0.139 A 
ATOM      4  C   UNL     1      -5.503   2.424  25.482  0.00  0.00    +0.037 A 
ATOM      5  C   UNL     1      -4.845   2.022  25.185  0.00  0.00    +0.008 A 
ATOM      6  C   UNL     1      -4.184   2.444  24.931  0.00  0.00    +0.056 A 
ATOM      7  C   UNL     1      -4.179   3.267  24.974  0.00  0.00    +0.008 A 
ATOM      8  C   UNL     1      -4.837   3.669  25.271  0.00  0.00    +0.037 A 
BRANCH   3   2
ATOM      1  C   UNL     1      -6.226   4.463  25.709  0.00  0.00    +0.252 C 
ATOM      2  O   UNL     1      -6.155   3.649  25.821  0.00  0.00    -0.471 OA
ENDBRANCH   3   2
ENDBRANCH   9   6
ENDBRANCH  12  11
TORSDOF 7
ENDMDL
