MODEL 1
REMARK VINA RESULT:     -12.4      0.000      0.000
REMARK  Name = 
REMARK  4 active torsions:
REMARK  status: ('A' for Active; 'I' for Inactive)
REMARK    1  A    between atoms: O_2  and  C_3
REMARK    2  A    between atoms: C_3  and  C_5
REMARK    3  A    between atoms: C_11  and  C_13
REMARK    4  A    between atoms: C_19  and  C_21
REMARK                            x       y       z     vdW  Elec       q    Type
REMARK                         _______ _______ _______ _____ _____    ______ ____
ROOT
ATOM      5  C   UNL     1      -4.002   1.905  24.963  0.00  0.00    +0.195 C 
ATOM      6  C   UNL     1      -3.442   2.509  25.023  0.00  0.00    +0.125 C 
ATOM      7  N   UNL     1      -2.638   2.324  25.033  0.00  0.00    -0.272 N 
ATOM      8  C   UNL     1      -2.394   1.537  24.983  0.00  0.00    +0.115 C 
ATOM      9  C   UNL     1      -2.955   0.935  24.923  0.00  0.00    +0.115 C 
ATOM     10  N   UNL     1      -3.759   1.119  24.913  0.00  0.00    -0.268 N 
ATOM     11  C   UNL     1      -4.319   0.517  24.852  0.00  0.00    +0.226 C 
ATOM     12  O   UNL     1      -5.124   0.702  24.842  0.00  0.00    -0.275 OA
ATOM     19  C   UNL     1      -2.077   2.926  25.094  0.00  0.00    +0.249 C 
ATOM     20  O   UNL     1      -2.322   3.714  25.144  0.00  0.00    -0.270 OA
ENDROOT
BRANCH  19  21
ATOM     21  C   UNL     1      -1.274   2.742  25.104  0.00  0.00    +0.056 A 
ATOM     22  C   UNL     1      -0.869   2.623  24.394  0.00  0.00    +0.005 A 
ATOM     23  C   UNL     1      -0.065   2.439  24.404  0.00  0.00    +0.002 A 
ATOM     24  C   UNL     1       0.334   2.374  25.124  0.00  0.00    +0.030 A 
ATOM     25  C   UNL     1      -0.070   2.493  25.832  0.00  0.00    +0.140 A 
ATOM     26  F   UNL     1       0.329   2.428  26.552  0.00  0.00    -0.204 F 
ATOM     27  C   UNL     1      -0.874   2.677  25.822  0.00  0.00    +0.034 A 
ENDBRANCH  19  21
BRANCH  11  13
ATOM     13  C   UNL     1      -4.076  -0.270  24.802  0.00  0.00    +0.077 C 
ATOM     14  C   UNL     1      -4.051  -0.647  24.069  0.00  0.00    +0.009 C 
ATOM     15  C   UNL     1      -3.808  -1.434  24.017  0.00  0.00    +0.000 C 
ATOM     16  C   UNL     1      -3.589  -1.843  24.700  0.00  0.00    +0.000 C 
ATOM     17  C   UNL     1      -3.614  -1.466  25.433  0.00  0.00    +0.000 C 
ATOM     18  C   UNL     1      -3.857  -0.680  25.484  0.00  0.00    +0.009 C 
ENDBRANCH  11  13
BRANCH   5   3
ATOM      3  C   UNL     1      -4.807   2.090  24.953  0.00  0.00    +0.337 C 
ATOM      4  O   UNL     1      -5.201   2.177  24.233  0.00  0.00    -0.248 OA
BRANCH   3   2
ATOM      1  C   UNL     1      -5.898   2.651  25.685  0.00  0.00    +0.256 C 
ATOM      2  O   UNL     1      -5.217   2.186  25.662  0.00  0.00    -0.443 OA
ENDBRANCH   3   2
ENDBRANCH   5   3
TORSDOF 4
ENDMDL
MODEL 2
REMARK VINA RESULT:     -12.4      1.305      3.928
REMARK  Name = 
REMARK  4 active torsions:
REMARK  status: ('A' for Active; 'I' for Inactive)
REMARK    1  A    between atoms: O_2  and  C_3
REMARK    2  A    between atoms: C_3  and  C_5
REMARK    3  A    between atoms: C_11  and  C_13
REMARK    4  A    between atoms: C_19  and  C_21
REMARK                            x       y       z     vdW  Elec       q    Type
REMARK                         _______ _______ _______ _____ _____    ______ ____
ROOT
ATOM      5  C   UNL     1      -3.551   2.259  24.822  0.00  0.00    +0.195 C 
ATOM      6  C   UNL     1      -4.075   1.626  24.759  0.00  0.00    +0.125 C 
ATOM      7  N   UNL     1      -3.791   0.852  24.779  0.00  0.00    -0.272 N 
ATOM      8  C   UNL     1      -2.981   0.711  24.862  0.00  0.00    +0.115 C 
ATOM      9  C   UNL     1      -2.458   1.346  24.924  0.00  0.00    +0.115 C 
ATOM     10  N   UNL     1      -2.742   2.120  24.904  0.00  0.00    -0.268 N 
ATOM     11  C   UNL     1      -2.218   2.753  24.966  0.00  0.00    +0.226 C 
ATOM     12  O   UNL     1      -2.503   3.528  24.946  0.00  0.00    -0.275 OA
ATOM     19  C   UNL     1      -4.314   0.217  24.717  0.00  0.00    +0.249 C 
ATOM     20  O   UNL     1      -5.124   0.358  24.634  0.00  0.00    -0.270 OA
ENDROOT
BRANCH  19  21
ATOM     21  C   UNL     1      -4.030  -0.556  24.737  0.00  0.00    +0.056 A 
ATOM     22  C   UNL     1      -3.909  -0.970  24.032  0.00  0.00    +0.005 A 
ATOM     23  C   UNL     1      -3.625  -1.744  24.052  0.00  0.00    +0.002 A 
ATOM     24  C   UNL     1      -3.461  -2.104  24.777  0.00  0.00    +0.030 A 
ATOM     25  C   UNL     1      -3.581  -1.691  25.480  0.00  0.00    +0.140 A 
ATOM     26  F   UNL     1      -3.418  -2.051  26.204  0.00  0.00    -0.204 F 
ATOM     27  C   UNL     1      -3.866  -0.917  25.460  0.00  0.00    +0.034 A 
ENDBRANCH  19  21
BRANCH  11  13
ATOM     13  C   UNL     1      -1.409   2.614  25.049  0.00  0.00    +0.077 C 
ATOM     14  C   UNL     1      -1.072   2.576  25.801  0.00  0.00    +0.009 C 
ATOM     15  C   UNL     1      -0.263   2.436  25.884  0.00  0.00    +0.000 C 
ATOM     16  C   UNL     1       0.208   2.335  25.215  0.00  0.00    +0.000 C 
ATOM     17  C   UNL     1      -0.128   2.373  24.463  0.00  0.00    +0.000 C 
ATOM     18  C   UNL     1      -0.937   2.512  24.380  0.00  0.00    +0.009 C 
ENDBRANCH  11  13
BRANCH   5   3
ATOM      3  C   UNL     1      -3.836   3.034  24.802  0.00  0.00    +0.337 C 
ATOM      4  O   UNL     1      -3.822   3.460  24.095  0.00  0.00    -0.248 OA
BRANCH   3   2
ATOM      1  C   UNL     1      -4.712   3.968  25.435  0.00  0.00    +0.256 C 
ATOM      2  O   UNL     1      -4.134   3.382  25.487  0.00  0.00    -0.443 OA
ENDBRANCH   3   2
ENDBRANCH   5   3
TORSDOF 4
ENDMDL
MODEL 3
REMARK VINA RESULT:     -11.8      2.178      4.390
REMARK  Name = 
REMARK  4 active torsions:
REMARK  status: ('A' for Active; 'I' for Inactive)
REMARK    1  A    between atoms: O_2  and  C_3
REMARK    2  A    between atoms: C_3  and  C_5
REMARK    3  A    between atoms: C_11  and  C_13
REMARK    4  A    between atoms: C_19  and  C_21
REMARK                            x       y       z     vdW  Elec       q    Type
REMARK                         _______ _______ _______ _____ _____    ______ ____
ROOT
ATOM      5  C   UNL     1      -1.273   1.339  25.258  0.00  0.00    +0.195 C 
ATOM      6  C   UNL     1      -1.154   0.536  25.405  0.00  0.00    +0.125 C 
ATOM      7  N   UNL     1      -1.763  -0.003  25.265  0.00  0.00    -0.272 N 
ATOM      8  C   UNL     1      -2.491   0.262  24.979  0.00  0.00    +0.115 C 
ATOM      9  C   UNL     1      -2.609   1.065  24.832  0.00  0.00    +0.115 C 
ATOM     10  N   UNL     1      -2.000   1.604  24.972  0.00  0.00    -0.268 N 
ATOM     11  C   UNL     1      -2.118   2.406  24.826  0.00  0.00    +0.226 C 
ATOM     12  O   UNL     1      -1.509   2.946  24.966  0.00  0.00    -0.275 OA
ATOM     19  C   UNL     1      -1.645  -0.806  25.412  0.00  0.00    +0.249 C 
ATOM     20  O   UNL     1      -0.917  -1.070  25.698  0.00  0.00    -0.270 OA
ENDROOT
BRANCH  19  21
ATOM     21  C   UNL     1      -2.253  -1.344  25.272  0.00  0.00    +0.056 A 
ATOM     22  C   UNL     1      -2.898  -1.381  25.786  0.00  0.00    +0.005 A 
ATOM     23  C   UNL     1      -3.507  -1.920  25.646  0.00  0.00    +0.002 A 
ATOM     24  C   UNL     1      -3.471  -2.422  24.992  0.00  0.00    +0.030 A 
ATOM     25  C   UNL     1      -2.827  -2.385  24.479  0.00  0.00    +0.140 A 
ATOM     26  F   UNL     1      -2.791  -2.887  23.824  0.00  0.00    -0.204 F 
ATOM     27  C   UNL     1      -2.219  -1.846  24.618  0.00  0.00    +0.034 A 
ENDBRANCH  19  21
BRANCH  11  13
ATOM     13  C   UNL     1      -2.845   2.671  24.540  0.00  0.00    +0.077 C 
ATOM     14  C   UNL     1      -3.420   2.944  25.065  0.00  0.00    +0.009 C 
ATOM     15  C   UNL     1      -4.148   3.210  24.779  0.00  0.00    +0.000 C 
ATOM     16  C   UNL     1      -4.300   3.202  23.968  0.00  0.00    +0.000 C 
ATOM     17  C   UNL     1      -3.725   2.929  23.443  0.00  0.00    +0.000 C 
ATOM     18  C   UNL     1      -2.998   2.664  23.729  0.00  0.00    +0.009 C 
ENDBRANCH  11  13
BRANCH   5   3
ATOM      3  C   UNL     1      -0.664   1.879  25.398  0.00  0.00    +0.337 C 
ATOM      4  O   UNL     1      -0.167   2.108  24.781  0.00  0.00    -0.248 OA
BRANCH   3   2
ATOM      1  C   UNL     1       0.168   2.537  26.355  0.00  0.00    +0.256 C 
ATOM      2  O   UNL     1      -0.552   2.188  26.155  0.00  0.00    -0.443 OA
ENDBRANCH   3   2
ENDBRANCH   5   3
TORSDOF 4
ENDMDL
MODEL 4
REMARK VINA RESULT:     -11.6      2.086      3.281
REMARK  Name = 
REMARK  4 active torsions:
REMARK  status: ('A' for Active; 'I' for Inactive)
REMARK    1  A    between atoms: O_2  and  C_3
REMARK    2  A    between atoms: C_3  and  C_5
REMARK    3  A    between atoms: C_11  and  C_13
REMARK    4  A    between atoms: C_19  and  C_21
REMARK                            x       y       z     vdW  Elec       q    Type
REMARK                         _______ _______ _______ _____ _____    ______ ____
ROOT
ATOM      5  C   UNL     1      -1.338   0.619  24.391  0.00  0.00    +0.195 C 
ATOM      6  C   UNL     1      -1.420   1.440  24.377  0.00  0.00    +0.125 C 
ATOM      7  N   UNL     1      -2.159   1.782  24.509  0.00  0.00    -0.272 N 
ATOM      8  C   UNL     1      -2.816   1.304  24.655  0.00  0.00    +0.115 C 
ATOM      9  C   UNL     1      -2.733   0.483  24.669  0.00  0.00    +0.115 C 
ATOM     10  N   UNL     1      -1.994   0.141  24.536  0.00  0.00    -0.268 N 
ATOM     11  C   UNL     1      -1.912  -0.679  24.550  0.00  0.00    +0.226 C 
ATOM     12  O   UNL     1      -1.172  -1.022  24.417  0.00  0.00    -0.275 OA
ATOM     19  C   UNL     1      -2.242   2.603  24.496  0.00  0.00    +0.249 C 
ATOM     20  O   UNL     1      -1.585   3.081  24.350  0.00  0.00    -0.270 OA
ENDROOT
BRANCH  19  21
ATOM     21  C   UNL     1      -2.980   2.945  24.628  0.00  0.00    +0.056 A 
ATOM     22  C   UNL     1      -3.513   3.031  24.004  0.00  0.00    +0.005 A 
ATOM     23  C   UNL     1      -4.252   3.373  24.136  0.00  0.00    +0.002 A 
ATOM     24  C   UNL     1      -4.457   3.630  24.893  0.00  0.00    +0.030 A 
ATOM     25  C   UNL     1      -3.925   3.545  25.517  0.00  0.00    +0.140 A 
ATOM     26  F   UNL     1      -4.130   3.802  26.274  0.00  0.00    -0.204 F 
ATOM     27  C   UNL     1      -3.186   3.202  25.384  0.00  0.00    +0.034 A 
ENDBRANCH  19  21
BRANCH  11  13
ATOM     13  C   UNL     1      -2.568  -1.158  24.696  0.00  0.00    +0.077 C 
ATOM     14  C   UNL     1      -3.020  -1.440  24.066  0.00  0.00    +0.009 C 
ATOM     15  C   UNL     1      -3.677  -1.919  24.211  0.00  0.00    +0.000 C 
ATOM     16  C   UNL     1      -3.880  -2.116  24.986  0.00  0.00    +0.000 C 
ATOM     17  C   UNL     1      -3.428  -1.834  25.616  0.00  0.00    +0.000 C 
ATOM     18  C   UNL     1      -2.772  -1.356  25.470  0.00  0.00    +0.009 C 
ENDBRANCH  11  13
BRANCH   5   3
ATOM      3  C   UNL     1      -0.599   0.276  24.258  0.00  0.00    +0.337 C 
ATOM      4  O   UNL     1      -0.144   0.016  24.897  0.00  0.00    -0.248 OA
BRANCH   3   2
ATOM      1  C   UNL     1       0.490   0.066  23.357  0.00  0.00    +0.256 C 
ATOM      2  O   UNL     1      -0.315   0.193  23.489  0.00  0.00    -0.443 OA
ENDBRANCH   3   2
ENDBRANCH   5   3
TORSDOF 4
ENDMDL
