MODEL 1
REMARK VINA RESULT:      -8.9      0.000      0.000
REMARK  Name = 
REMARK  9 active torsions:
REMARK  status: ('A' for Active; 'I' for Inactive)
REMARK    1  A    between atoms: O_2  and  C_3
REMARK    2  A    between atoms: C_6  and  C_9
REMARK    3  A    between atoms: C_12  and  C_13
REMARK    4  A    between atoms: C_13  and  C_14
REMARK    5  A    between atoms: C_16  and  C_17
REMARK    6  A    between atoms: C_20  and  C_21
REMARK    7  A    between atoms: C_21  and  N_22
REMARK    8  A    between atoms: N_22  and  C_23
REMARK    9  A    between atoms: C_23  and  C_24
REMARK                            x       y       z     vdW  Elec       q    Type
REMARK                         _______ _______ _______ _____ _____    ______ ____
ROOT
ATOM     14  C   UNL     1      -0.639   0.310  24.269  0.00  0.00    +0.027 C 
ATOM     15  C   UNL     1      -0.327   1.053  24.445  0.00  0.00    +0.005 C 
ATOM     16  C   UNL     1      -0.832   1.675  24.644  0.00  0.00    +0.006 C 
ATOM     20  C   UNL     1      -1.647   1.555  24.666  0.00  0.00    +0.039 C 
ATOM     30  C   UNL     1      -1.959   0.811  24.490  0.00  0.00    -0.033 C 
ATOM     31  C   UNL     1      -1.455   0.190  24.291  0.00  0.00    -0.048 C 
ATOM     32  C   UNL     1      -1.767  -0.554  24.115  0.00  0.00    +0.026 C 
ENDROOT
BRANCH  16  17
ATOM     17  C   UNL     1      -0.519   2.419  24.821  0.00  0.00    +0.000 C 
ATOM     18  C   UNL     1      -0.455   2.990  24.229  0.00  0.00    +0.000 C 
ATOM     19  C   UNL     1      -0.272   2.591  25.589  0.00  0.00    +0.000 C 
ENDBRANCH  16  17
BRANCH  14  13
ATOM     13  C   UNL     1      -0.136  -0.312  24.070  0.00  0.00    +0.091 C 
BRANCH  13  12
ATOM      9  C   UNL     1       1.707   0.019  23.045  0.00  0.00    +0.250 A 
ATOM     10  N   UNL     1       1.177  -0.012  22.414  0.00  0.00    -0.107 NA
ATOM     11  N   UNL     1       0.422  -0.140  22.721  0.00  0.00    -0.111 NA
ATOM     12  C   UNL     1       0.485  -0.188  23.542  0.00  0.00    +0.227 A 
ATOM     33  O   UNL     1       1.280  -0.090  23.743  0.00  0.00    -0.420 OA
BRANCH   9   6
ATOM      3  C   UNL     1       4.150   0.375  22.878  0.00  0.00    +0.139 A 
ATOM      4  C   UNL     1       3.632   1.004  22.754  0.00  0.00    +0.037 A 
ATOM      5  C   UNL     1       2.818   0.885  22.810  0.00  0.00    +0.008 A 
ATOM      6  C   UNL     1       2.521   0.137  22.989  0.00  0.00    +0.055 A 
ATOM      7  C   UNL     1       3.040  -0.493  23.113  0.00  0.00    +0.008 A 
ATOM      8  C   UNL     1       3.854  -0.375  23.057  0.00  0.00    +0.037 A 
BRANCH   3   2
ATOM      1  C   UNL     1       5.459   0.263  23.442  0.00  0.00    +0.252 C 
ATOM      2  O   UNL     1       4.965   0.493  22.822  0.00  0.00    -0.471 OA
ENDBRANCH   3   2
ENDBRANCH   9   6
ENDBRANCH  13  12
ENDBRANCH  14  13
BRANCH  20  21
ATOM     21  C   UNL     1      -2.152   2.177  24.865  0.00  0.00    +0.093 C 
BRANCH  21  22
ATOM     22  N   UNL     1      -2.967   2.060  24.871  0.00  0.00    -0.213 NA
BRANCH  22  23
ATOM     23  C   UNL     1      -3.477   2.708  24.825  0.00  0.00    +0.115 C 
BRANCH  23  24
ATOM     24  C   UNL     1      -4.273   2.622  25.020  0.00  0.00    -0.002 A 
ATOM     25  C   UNL     1      -4.737   2.065  24.624  0.00  0.00    +0.018 A 
ATOM     26  C   UNL     1      -5.533   1.979  24.819  0.00  0.00    +0.099 A 
ATOM     27  N   UNL     1      -5.867   2.449  25.410  0.00  0.00    -0.242 NA
ATOM     28  C   UNL     1      -5.404   3.006  25.805  0.00  0.00    +0.099 A 
ATOM     29  C   UNL     1      -4.607   3.092  25.610  0.00  0.00    +0.018 A 
ENDBRANCH  23  24
ENDBRANCH  22  23
ENDBRANCH  21  22
ENDBRANCH  20  21
TORSDOF 9
ENDMDL
MODEL 2
REMARK VINA RESULT:      -8.8      1.982      6.656
REMARK  Name = 
REMARK  9 active torsions:
REMARK  status: ('A' for Active; 'I' for Inactive)
REMARK    1  A    between atoms: O_2  and  C_3
REMARK    2  A    between atoms: C_6  and  C_9
REMARK    3  A    between atoms: C_12  and  C_13
REMARK    4  A    between atoms: C_13  and  C_14
REMARK    5  A    between atoms: C_16  and  C_17
REMARK    6  A    between atoms: C_20  and  C_21
REMARK    7  A    between atoms: C_21  and  N_22
REMARK    8  A    between atoms: N_22  and  C_23
REMARK    9  A    between atoms: C_23  and  C_24
REMARK                            x       y       z     vdW  Elec       q    Type
REMARK                         _______ _______ _______ _____ _____    ______ ____
ROOT
ATOM     14  C   UNL     1      -1.218  -0.293  24.622  0.00  0.00    +0.027 C 
ATOM     15  C   UNL     1      -1.086   0.520  24.569  0.00  0.00    +0.005 C 
ATOM     16  C   UNL     1      -0.422   0.805  24.171  0.00  0.00    +0.006 C 
ATOM     20  C   UNL     1       0.109   0.278  23.825  0.00  0.00    +0.039 C 
ATOM     30  C   UNL     1      -0.023  -0.536  23.877  0.00  0.00    -0.033 C 
ATOM     31  C   UNL     1      -0.687  -0.820  24.276  0.00  0.00    -0.048 C 
ATOM     32  C   UNL     1      -0.819  -1.633  24.328  0.00  0.00    +0.026 C 
ENDROOT
BRANCH  16  17
ATOM     17  C   UNL     1      -0.289   1.618  24.119  0.00  0.00    +0.000 C 
ATOM     18  C   UNL     1       0.124   2.007  24.716  0.00  0.00    +0.000 C 
ATOM     19  C   UNL     1      -0.571   2.041  23.468  0.00  0.00    +0.000 C 
ENDBRANCH  16  17
BRANCH  14  13
ATOM     13  C   UNL     1      -1.882  -0.578  25.019  0.00  0.00    +0.091 C 
BRANCH  13  12
ATOM      9  C   UNL     1      -3.735   0.447  24.748  0.00  0.00    +0.250 A 
ATOM     10  N   UNL     1      -3.846  -0.213  24.266  0.00  0.00    -0.107 NA
ATOM     11  N   UNL     1      -3.165  -0.678  24.309  0.00  0.00    -0.111 NA
ATOM     12  C   UNL     1      -2.633  -0.305  24.818  0.00  0.00    +0.227 A 
ATOM     33  O   UNL     1      -2.986   0.391  25.089  0.00  0.00    -0.420 OA
BRANCH   9   6
ATOM      3  C   UNL     1      -5.363   2.275  25.109  0.00  0.00    +0.139 A 
ATOM      4  C   UNL     1      -5.469   1.548  25.484  0.00  0.00    +0.037 A 
ATOM      5  C   UNL     1      -4.926   0.939  25.364  0.00  0.00    +0.008 A 
ATOM      6  C   UNL     1      -4.277   1.056  24.868  0.00  0.00    +0.055 A 
ATOM      7  C   UNL     1      -4.171   1.783  24.492  0.00  0.00    +0.008 A 
ATOM      8  C   UNL     1      -4.714   2.393  24.613  0.00  0.00    +0.037 A 
BRANCH   3   2
ATOM      1  C   UNL     1      -5.662   3.592  25.577  0.00  0.00    +0.252 C 
ATOM      2  O   UNL     1      -5.907   2.885  25.229  0.00  0.00    -0.471 OA
ENDBRANCH   3   2
ENDBRANCH   9   6
ENDBRANCH  13  12
ENDBRANCH  14  13
BRANCH  20  21
ATOM     21  C   UNL     1       0.774   0.562  23.427  0.00  0.00    +0.093 C 
BRANCH  21  22
ATOM     22  N   UNL     1       1.425   0.071  23.308  0.00  0.00    -0.213 NA
BRANCH  22  23
ATOM     23  C   UNL     1       1.936   0.210  22.674  0.00  0.00    +0.115 C 
BRANCH  23  24
ATOM     24  C   UNL     1       2.752   0.206  22.793  0.00  0.00    -0.002 A 
ATOM     25  C   UNL     1       3.190   0.895  22.669  0.00  0.00    +0.018 A 
ATOM     26  C   UNL     1       4.006   0.890  22.788  0.00  0.00    +0.099 A 
ATOM     27  N   UNL     1       4.385   0.198  23.031  0.00  0.00    -0.242 NA
ATOM     28  C   UNL     1       3.946  -0.489  23.154  0.00  0.00    +0.099 A 
ATOM     29  C   UNL     1       3.130  -0.485  23.036  0.00  0.00    +0.018 A 
ENDBRANCH  23  24
ENDBRANCH  22  23
ENDBRANCH  21  22
ENDBRANCH  20  21
TORSDOF 9
ENDMDL
MODEL 3
REMARK VINA RESULT:      -8.3      3.661      4.952
REMARK  Name = 
REMARK  9 active torsions:
REMARK  status: ('A' for Active; 'I' for Inactive)
REMARK    1  A    between atoms: O_2  and  C_3
REMARK    2  A    between atoms: C_6  and  C_9
REMARK    3  A    between atoms: C_12  and  C_13
REMARK    4  A    between atoms: C_13  and  C_14
REMARK    5  A    between atoms: C_16  and  C_17
REMARK    6  A    between atoms: C_20  and  C_21
REMARK    7  A    between atoms: C_21  and  N_22
REMARK    8  A    between atoms: N_22  and  C_23
REMARK    9  A    between atoms: C_23  and  C_24
REMARK                            x       y       z     vdW  Elec       q    Type
REMARK                         _______ _______ _______ _____ _____    ______ ____
ROOT
ATOM     14  C   UNL     1      -3.725   2.533  23.963  0.00  0.00    +0.027 C 
ATOM     15  C   UNL     1      -4.316   2.426  24.529  0.00  0.00    +0.005 C 
ATOM     16  C   UNL     1      -4.659   1.682  24.632  0.00  0.00    +0.006 C 
ATOM     20  C   UNL     1      -4.412   1.047  24.169  0.00  0.00    +0.039 C 
ATOM     30  C   UNL     1      -3.821   1.153  23.602  0.00  0.00    -0.033 C 
ATOM     31  C   UNL     1      -3.478   1.896  23.500  0.00  0.00    -0.048 C 
ATOM     32  C   UNL     1      -2.887   2.003  22.934  0.00  0.00    +0.026 C 
ENDROOT
BRANCH  16  17
ATOM     17  C   UNL     1      -5.250   1.576  25.198  0.00  0.00    +0.000 C 
ATOM     18  C   UNL     1      -6.042   1.676  24.991  0.00  0.00    +0.000 C 
ATOM     19  C   UNL     1      -5.049   1.369  25.971  0.00  0.00    +0.000 C 
ENDBRANCH  16  17
BRANCH  14  13
ATOM     13  C   UNL     1      -3.381   3.275  23.860  0.00  0.00    +0.091 C 
BRANCH  13  12
ATOM      9  C   UNL     1      -1.721   3.558  25.172  0.00  0.00    +0.250 A 
ATOM     10  N   UNL     1      -2.064   4.307  25.186  0.00  0.00    -0.107 NA
ATOM     11  N   UNL     1      -2.729   4.293  24.696  0.00  0.00    -0.111 NA
ATOM     12  C   UNL     1      -2.795   3.534  24.380  0.00  0.00    +0.227 A 
ATOM     33  O   UNL     1      -2.172   3.080  24.673  0.00  0.00    -0.420 OA
BRANCH   9   6
ATOM      3  C   UNL     1       0.308   2.864  26.407  0.00  0.00    +0.139 A 
ATOM      4  C   UNL     1      -0.423   2.532  26.595  0.00  0.00    +0.037 A 
ATOM      5  C   UNL     1      -1.099   2.763  26.183  0.00  0.00    +0.008 A 
ATOM      6  C   UNL     1      -1.045   3.327  25.583  0.00  0.00    +0.055 A 
ATOM      7  C   UNL     1      -0.313   3.660  25.395  0.00  0.00    +0.008 A 
ATOM      8  C   UNL     1       0.364   3.428  25.807  0.00  0.00    +0.037 A 
BRANCH   3   2
ATOM      1  C   UNL     1       0.980   2.616  27.644  0.00  0.00    +0.252 C 
ATOM      2  O   UNL     1       0.985   2.633  26.819  0.00  0.00    -0.471 OA
ENDBRANCH   3   2
ENDBRANCH   9   6
ENDBRANCH  13  12
ENDBRANCH  14  13
BRANCH  20  21
ATOM     21  C   UNL     1      -4.756   0.303  24.271  0.00  0.00    +0.093 C 
BRANCH  21  22
ATOM     22  N   UNL     1      -4.311  -0.378  24.139  0.00  0.00    -0.213 NA
BRANCH  22  23
ATOM     23  C   UNL     1      -4.652  -1.121  24.253  0.00  0.00    +0.115 C 
BRANCH  23  24
ATOM     24  C   UNL     1      -4.173  -1.789  24.326  0.00  0.00    -0.002 A 
ATOM     25  C   UNL     1      -4.176  -2.366  23.736  0.00  0.00    +0.018 A 
ATOM     26  C   UNL     1      -3.697  -3.033  23.810  0.00  0.00    +0.099 A 
ATOM     27  N   UNL     1      -3.214  -3.124  24.474  0.00  0.00    -0.242 NA
ATOM     28  C   UNL     1      -3.211  -2.546  25.063  0.00  0.00    +0.099 A 
ATOM     29  C   UNL     1      -3.691  -1.879  24.989  0.00  0.00    +0.018 A 
ENDBRANCH  23  24
ENDBRANCH  22  23
ENDBRANCH  21  22
ENDBRANCH  20  21
TORSDOF 9
ENDMDL
MODEL 4
REMARK VINA RESULT:      -8.2      3.846      5.579
REMARK  Name = 
REMARK  9 active torsions:
REMARK  status: ('A' for Active; 'I' for Inactive)
REMARK    1  A    between atoms: O_2  and  C_3
REMARK    2  A    between atoms: C_6  and  C_9
REMARK    3  A    between atoms: C_12  and  C_13
REMARK    4  A    between atoms: C_13  and  C_14
REMARK    5  A    between atoms: C_16  and  C_17
REMARK    6  A    between atoms: C_20  and  C_21
REMARK    7  A    between atoms: C_21  and  N_22
REMARK    8  A    between atoms: N_22  and  C_23
REMARK    9  A    between atoms: C_23  and  C_24
REMARK                            x       y       z     vdW  Elec       q    Type
REMARK                         _______ _______ _______ _____ _____    ______ ____
ROOT
ATOM     14  C   UNL     1      -4.598   2.212  24.943  0.00  0.00    +0.027 C 
ATOM     15  C   UNL     1      -3.979   2.128  24.404  0.00  0.00    +0.005 C 
ATOM     16  C   UNL     1      -3.818   1.389  24.074  0.00  0.00    +0.006 C 
ATOM     20  C   UNL     1      -4.275   0.735  24.282  0.00  0.00    +0.039 C 
ATOM     30  C   UNL     1      -4.894   0.820  24.821  0.00  0.00    -0.033 C 
ATOM     31  C   UNL     1      -5.055   1.558  25.151  0.00  0.00    -0.048 C 
ATOM     32  C   UNL     1      -5.674   1.642  25.690  0.00  0.00    +0.026 C 
ENDROOT
BRANCH  16  17
ATOM     17  C   UNL     1      -3.198   1.305  23.534  0.00  0.00    +0.000 C 
ATOM     18  C   UNL     1      -2.463   1.034  23.790  0.00  0.00    +0.000 C 
ATOM     19  C   UNL     1      -3.315   1.492  22.739  0.00  0.00    +0.000 C 
ENDBRANCH  16  17
BRANCH  14  13
ATOM     13  C   UNL     1      -4.760   2.950  25.274  0.00  0.00    +0.091 C 
BRANCH  13  12
ATOM      9  C   UNL     1      -3.008   4.123  25.612  0.00  0.00    +0.250 A 
ATOM     10  N   UNL     1      -3.377   4.172  26.348  0.00  0.00    -0.107 NA
ATOM     11  N   UNL     1      -4.079   3.738  26.311  0.00  0.00    -0.111 NA
ATOM     12  C   UNL     1      -4.143   3.421  25.552  0.00  0.00    +0.227 A 
ATOM     33  O   UNL     1      -3.481   3.660  25.120  0.00  0.00    -0.420 OA
BRANCH   9   6
ATOM      3  C   UNL     1      -0.861   5.182  24.989  0.00  0.00    +0.139 A 
ATOM      4  C   UNL     1      -1.555   5.627  24.990  0.00  0.00    +0.037 A 
ATOM      5  C   UNL     1      -2.271   5.274  25.198  0.00  0.00    +0.008 A 
ATOM      6  C   UNL     1      -2.293   4.476  25.405  0.00  0.00    +0.055 A 
ATOM      7  C   UNL     1      -1.598   4.031  25.404  0.00  0.00    +0.008 A 
ATOM      8  C   UNL     1      -0.882   4.384  25.196  0.00  0.00    +0.037 A 
BRANCH   3   2
ATOM      1  C   UNL     1       0.255   5.289  24.102  0.00  0.00    +0.252 C 
ATOM      2  O   UNL     1      -0.144   5.536  24.781  0.00  0.00    -0.471 OA
ENDBRANCH   3   2
ENDBRANCH   9   6
ENDBRANCH  13  12
ENDBRANCH  14  13
BRANCH  20  21
ATOM     21  C   UNL     1      -4.114  -0.004  23.951  0.00  0.00    +0.093 C 
BRANCH  21  22
ATOM     22  N   UNL     1      -4.241  -0.689  24.392  0.00  0.00    -0.213 NA
BRANCH  22  23
ATOM     23  C   UNL     1      -4.267  -1.423  24.014  0.00  0.00    +0.115 C 
BRANCH  23  24
ATOM     24  C   UNL     1      -3.916  -2.081  24.366  0.00  0.00    -0.002 A 
ATOM     25  C   UNL     1      -3.852  -2.788  23.945  0.00  0.00    +0.018 A 
ATOM     26  C   UNL     1      -3.501  -3.446  24.297  0.00  0.00    +0.099 A 
ATOM     27  N   UNL     1      -3.213  -3.398  25.069  0.00  0.00    -0.242 NA
ATOM     28  C   UNL     1      -3.277  -2.690  25.489  0.00  0.00    +0.099 A 
ATOM     29  C   UNL     1      -3.628  -2.032  25.137  0.00  0.00    +0.018 A 
ENDBRANCH  23  24
ENDBRANCH  22  23
ENDBRANCH  21  22
ENDBRANCH  20  21
TORSDOF 9
ENDMDL
MODEL 5
REMARK VINA RESULT:      -8.2      2.032      6.795
REMARK  Name = 
REMARK  9 active torsions:
REMARK  status: ('A' for Active; 'I' for Inactive)
REMARK    1  A    between atoms: O_2  and  C_3
REMARK    2  A    between atoms: C_6  and  C_9
REMARK    3  A    between atoms: C_12  and  C_13
REMARK    4  A    between atoms: C_13  and  C_14
REMARK    5  A    between atoms: C_16  and  C_17
REMARK    6  A    between atoms: C_20  and  C_21
REMARK    7  A    between atoms: C_21  and  N_22
REMARK    8  A    between atoms: N_22  and  C_23
REMARK    9  A    between atoms: C_23  and  C_24
REMARK                            x       y       z     vdW  Elec       q    Type
REMARK                         _______ _______ _______ _____ _____    ______ ____
ROOT
ATOM     14  C   UNL     1      -0.926   2.522  25.178  0.00  0.00    +0.027 C 
ATOM     15  C   UNL     1      -1.222   1.764  25.316  0.00  0.00    +0.005 C 
ATOM     16  C   UNL     1      -0.876   1.113  24.945  0.00  0.00    +0.006 C 
ATOM     20  C   UNL     1      -0.235   1.219  24.438  0.00  0.00    +0.039 C 
ATOM     30  C   UNL     1       0.061   1.977  24.301  0.00  0.00    -0.033 C 
ATOM     31  C   UNL     1      -0.285   2.628  24.671  0.00  0.00    -0.048 C 
ATOM     32  C   UNL     1       0.012   3.386  24.533  0.00  0.00    +0.026 C 
ENDROOT
BRANCH  16  17
ATOM     17  C   UNL     1      -1.172   0.355  25.083  0.00  0.00    +0.000 C 
ATOM     18  C   UNL     1      -1.695   0.013  24.545  0.00  0.00    +0.000 C 
ATOM     19  C   UNL     1      -0.945  -0.060  25.760  0.00  0.00    +0.000 C 
ENDBRANCH  16  17
BRANCH  14  13
ATOM     13  C   UNL     1      -1.271   3.173  25.548  0.00  0.00    +0.091 C 
BRANCH  13  12
ATOM      9  C   UNL     1      -3.374   3.339  25.215  0.00  0.00    +0.250 A 
ATOM     10  N   UNL     1      -3.115   4.084  24.976  0.00  0.00    -0.107 NA
ATOM     11  N   UNL     1      -2.296   4.114  25.071  0.00  0.00    -0.111 NA
ATOM     12  C   UNL     1      -2.048   3.386  25.370  0.00  0.00    +0.227 A 
ATOM     33  O   UNL     1      -2.714   2.906  25.458  0.00  0.00    -0.420 OA
BRANCH   9   6
ATOM      3  C   UNL     1      -5.714   2.537  25.204  0.00  0.00    +0.139 A 
ATOM      4  C   UNL     1      -5.189   2.284  24.621  0.00  0.00    +0.037 A 
ATOM      5  C   UNL     1      -4.409   2.551  24.625  0.00  0.00    +0.008 A 
ATOM      6  C   UNL     1      -4.153   3.072  25.211  0.00  0.00    +0.055 A 
ATOM      7  C   UNL     1      -4.679   3.326  25.795  0.00  0.00    +0.008 A 
ATOM      8  C   UNL     1      -5.460   3.059  25.791  0.00  0.00    +0.037 A 
BRANCH   3   2
ATOM      1  C   UNL     1      -6.664   1.493  24.980  0.00  0.00    +0.252 C 
ATOM      2  O   UNL     1      -6.496   2.270  25.201  0.00  0.00    -0.471 OA
ENDBRANCH   3   2
ENDBRANCH   9   6
ENDBRANCH  13  12
ENDBRANCH  14  13
BRANCH  20  21
ATOM     21  C   UNL     1       0.111   0.568  24.068  0.00  0.00    +0.093 C 
BRANCH  21  22
ATOM     22  N   UNL     1       0.770   0.671  23.583  0.00  0.00    -0.213 NA
BRANCH  22  23
ATOM     23  C   UNL     1       1.149   0.014  23.258  0.00  0.00    +0.115 C 
BRANCH  23  24
ATOM     24  C   UNL     1       1.847   0.110  22.829  0.00  0.00    -0.002 A 
ATOM     25  C   UNL     1       1.899  -0.177  22.057  0.00  0.00    +0.018 A 
ATOM     26  C   UNL     1       2.597  -0.081  21.628  0.00  0.00    +0.099 A 
ATOM     27  N   UNL     1       3.242   0.303  21.970  0.00  0.00    -0.242 NA
ATOM     28  C   UNL     1       3.189   0.590  22.741  0.00  0.00    +0.099 A 
ATOM     29  C   UNL     1       2.492   0.494  23.170  0.00  0.00    +0.018 A 
ENDBRANCH  23  24
ENDBRANCH  22  23
ENDBRANCH  21  22
ENDBRANCH  20  21
TORSDOF 9
ENDMDL
MODEL 6
REMARK VINA RESULT:      -8.2      2.225      5.976
REMARK  Name = 
REMARK  9 active torsions:
REMARK  status: ('A' for Active; 'I' for Inactive)
REMARK    1  A    between atoms: O_2  and  C_3
REMARK    2  A    between atoms: C_6  and  C_9
REMARK    3  A    between atoms: C_12  and  C_13
REMARK    4  A    between atoms: C_13  and  C_14
REMARK    5  A    between atoms: C_16  and  C_17
REMARK    6  A    between atoms: C_20  and  C_21
REMARK    7  A    between atoms: C_21  and  N_22
REMARK    8  A    between atoms: N_22  and  C_23
REMARK    9  A    between atoms: C_23  and  C_24
REMARK                            x       y       z     vdW  Elec       q    Type
REMARK                         _______ _______ _______ _____ _____    ______ ____
ROOT
ATOM     14  C   UNL     1      -2.234   2.115  24.228  0.00  0.00    +0.027 C 
ATOM     15  C   UNL     1      -1.848   2.094  24.957  0.00  0.00    +0.005 C 
ATOM     16  C   UNL     1      -1.023   2.061  24.985  0.00  0.00    +0.006 C 
ATOM     20  C   UNL     1      -0.587   2.048  24.286  0.00  0.00    +0.039 C 
ATOM     30  C   UNL     1      -0.973   2.068  23.557  0.00  0.00    -0.033 C 
ATOM     31  C   UNL     1      -1.797   2.102  23.529  0.00  0.00    -0.048 C 
ATOM     32  C   UNL     1      -2.183   2.122  22.800  0.00  0.00    +0.026 C 
ENDROOT
BRANCH  16  17
ATOM     17  C   UNL     1      -0.636   2.040  25.714  0.00  0.00    +0.000 C 
ATOM     18  C   UNL     1      -0.372   2.740  26.060  0.00  0.00    +0.000 C 
ATOM     19  C   UNL     1      -0.515   1.319  26.097  0.00  0.00    +0.000 C 
ENDBRANCH  16  17
BRANCH  14  13
ATOM     13  C   UNL     1      -3.057   2.148  24.199  0.00  0.00    +0.091 C 
BRANCH  13  12
ATOM      9  C   UNL     1      -3.906   0.227  24.586  0.00  0.00    +0.250 A 
ATOM     10  N   UNL     1      -4.483   0.724  24.904  0.00  0.00    -0.107 NA
ATOM     11  N   UNL     1      -4.235   1.504  24.798  0.00  0.00    -0.111 NA
ATOM     12  C   UNL     1      -3.505   1.490  24.414  0.00  0.00    +0.227 A 
ATOM     33  O   UNL     1      -3.301   0.701  24.282  0.00  0.00    -0.420 OA
BRANCH   9   6
ATOM      3  C   UNL     1      -3.975  -2.245  24.546  0.00  0.00    +0.139 A 
ATOM      4  C   UNL     1      -4.265  -1.815  23.905  0.00  0.00    +0.037 A 
ATOM      5  C   UNL     1      -4.242  -0.990  23.919  0.00  0.00    +0.008 A 
ATOM      6  C   UNL     1      -3.929  -0.596  24.572  0.00  0.00    +0.055 A 
ATOM      7  C   UNL     1      -3.638  -1.028  25.213  0.00  0.00    +0.008 A 
ATOM      8  C   UNL     1      -3.661  -1.852  25.200  0.00  0.00    +0.037 A 
BRANCH   3   2
ATOM      1  C   UNL     1      -3.297  -3.502  24.465  0.00  0.00    +0.252 C 
ATOM      2  O   UNL     1      -3.998  -3.071  24.532  0.00  0.00    -0.471 OA
ENDBRANCH   3   2
ENDBRANCH   9   6
ENDBRANCH  13  12
ENDBRANCH  14  13
BRANCH  20  21
ATOM     21  C   UNL     1       0.238   2.014  24.314  0.00  0.00    +0.093 C 
BRANCH  21  22
ATOM     22  N   UNL     1       0.653   1.585  23.747  0.00  0.00    -0.213 NA
BRANCH  22  23
ATOM     23  C   UNL     1       1.461   1.445  23.845  0.00  0.00    +0.115 C 
BRANCH  23  24
ATOM     24  C   UNL     1       1.863   0.958  23.314  0.00  0.00    -0.002 A 
ATOM     25  C   UNL     1       1.485   0.297  22.994  0.00  0.00    +0.018 A 
ATOM     26  C   UNL     1       1.887  -0.190  22.464  0.00  0.00    +0.099 A 
ATOM     27  N   UNL     1       2.666  -0.018  22.253  0.00  0.00    -0.242 NA
ATOM     28  C   UNL     1       3.043   0.643  22.574  0.00  0.00    +0.099 A 
ATOM     29  C   UNL     1       2.641   1.130  23.105  0.00  0.00    +0.018 A 
ENDBRANCH  23  24
ENDBRANCH  22  23
ENDBRANCH  21  22
ENDBRANCH  20  21
TORSDOF 9
ENDMDL
MODEL 7
REMARK VINA RESULT:      -8.0      2.770      5.893
REMARK  Name = 
REMARK  9 active torsions:
REMARK  status: ('A' for Active; 'I' for Inactive)
REMARK    1  A    between atoms: O_2  and  C_3
REMARK    2  A    between atoms: C_6  and  C_9
REMARK    3  A    between atoms: C_12  and  C_13
REMARK    4  A    between atoms: C_13  and  C_14
REMARK    5  A    between atoms: C_16  and  C_17
REMARK    6  A    between atoms: C_20  and  C_21
REMARK    7  A    between atoms: C_21  and  N_22
REMARK    8  A    between atoms: N_22  and  C_23
REMARK    9  A    between atoms: C_23  and  C_24
REMARK                            x       y       z     vdW  Elec       q    Type
REMARK                         _______ _______ _______ _____ _____    ______ ____
ROOT
ATOM     14  C   UNL     1      -0.383   2.196  25.276  0.00  0.00    +0.027 C 
ATOM     15  C   UNL     1      -0.395   1.946  24.490  0.00  0.00    +0.005 C 
ATOM     16  C   UNL     1      -0.453   1.141  24.315  0.00  0.00    +0.006 C 
ATOM     20  C   UNL     1      -0.499   0.588  24.924  0.00  0.00    +0.039 C 
ATOM     30  C   UNL     1      -0.487   0.839  25.711  0.00  0.00    -0.033 C 
ATOM     31  C   UNL     1      -0.430   1.642  25.886  0.00  0.00    -0.048 C 
ATOM     32  C   UNL     1      -0.418   1.893  26.672  0.00  0.00    +0.026 C 
ENDROOT
BRANCH  16  17
ATOM     17  C   UNL     1      -0.464   0.890  23.528  0.00  0.00    +0.000 C 
ATOM     18  C   UNL     1       0.214   0.570  23.188  0.00  0.00    +0.000 C 
ATOM     19  C   UNL     1      -1.156   0.961  23.083  0.00  0.00    +0.000 C 
ENDBRANCH  16  17
BRANCH  14  13
ATOM     13  C   UNL     1      -0.325   2.999  25.452  0.00  0.00    +0.091 C 
BRANCH  13  12
ATOM      9  C   UNL     1      -2.247   3.921  25.320  0.00  0.00    +0.250 A 
ATOM     10  N   UNL     1      -1.751   4.562  25.167  0.00  0.00    -0.107 NA
ATOM     11  N   UNL     1      -0.971   4.295  25.198  0.00  0.00    -0.111 NA
ATOM     12  C   UNL     1      -0.984   3.489  25.370  0.00  0.00    +0.227 A 
ATOM     33  O   UNL     1      -1.773   3.257  25.445  0.00  0.00    -0.420 OA
BRANCH   9   6
ATOM      3  C   UNL     1      -4.719   3.976  25.390  0.00  0.00    +0.139 A 
ATOM      4  C   UNL     1      -4.286   4.015  26.090  0.00  0.00    +0.037 A 
ATOM      5  C   UNL     1      -3.462   3.997  26.067  0.00  0.00    +0.008 A 
ATOM      6  C   UNL     1      -3.070   3.939  25.343  0.00  0.00    +0.055 A 
ATOM      7  C   UNL     1      -3.504   3.899  24.642  0.00  0.00    +0.008 A 
ATOM      8  C   UNL     1      -4.329   3.917  24.665  0.00  0.00    +0.037 A 
BRANCH   3   2
ATOM      1  C   UNL     1      -5.965   3.322  25.643  0.00  0.00    +0.252 C 
ATOM      2  O   UNL     1      -5.545   3.994  25.413  0.00  0.00    -0.471 OA
ENDBRANCH   3   2
ENDBRANCH   9   6
ENDBRANCH  13  12
ENDBRANCH  14  13
BRANCH  20  21
ATOM     21  C   UNL     1      -0.557  -0.217  24.749  0.00  0.00    +0.093 C 
BRANCH  21  22
ATOM     22  N   UNL     1      -1.122  -0.682  25.128  0.00  0.00    -0.213 NA
BRANCH  22  23
ATOM     23  C   UNL     1      -1.154  -1.493  24.981  0.00  0.00    +0.115 C 
BRANCH  23  24
ATOM     24  C   UNL     1      -1.883  -1.879  24.952  0.00  0.00    -0.002 A 
ATOM     25  C   UNL     1      -2.009  -2.480  24.401  0.00  0.00    +0.018 A 
ATOM     26  C   UNL     1      -2.737  -2.866  24.372  0.00  0.00    +0.099 A 
ATOM     27  N   UNL     1      -3.340  -2.651  24.893  0.00  0.00    -0.242 NA
ATOM     28  C   UNL     1      -3.213  -2.050  25.444  0.00  0.00    +0.099 A 
ATOM     29  C   UNL     1      -2.484  -1.664  25.473  0.00  0.00    +0.018 A 
ENDBRANCH  23  24
ENDBRANCH  22  23
ENDBRANCH  21  22
ENDBRANCH  20  21
TORSDOF 9
ENDMDL
MODEL 8
REMARK VINA RESULT:      -7.8      2.454      4.030
REMARK  Name = 
REMARK  9 active torsions:
REMARK  status: ('A' for Active; 'I' for Inactive)
REMARK    1  A    between atoms: O_2  and  C_3
REMARK    2  A    between atoms: C_6  and  C_9
REMARK    3  A    between atoms: C_12  and  C_13
REMARK    4  A    between atoms: C_13  and  C_14
REMARK    5  A    between atoms: C_16  and  C_17
REMARK    6  A    between atoms: C_20  and  C_21
REMARK    7  A    between atoms: C_21  and  N_22
REMARK    8  A    between atoms: N_22  and  C_23
REMARK    9  A    between atoms: C_23  and  C_24
REMARK                            x       y       z     vdW  Elec       q    Type
REMARK                         _______ _______ _______ _____ _____    ______ ____
ROOT
ATOM     14  C   UNL     1      -0.386   1.363  24.177  0.00  0.00    +0.027 C 
ATOM     15  C   UNL     1      -0.169   1.593  24.939  0.00  0.00    +0.005 C 
ATOM     16  C   UNL     1      -0.495   2.275  25.273  0.00  0.00    +0.006 C 
ATOM     20  C   UNL     1      -1.037   2.725  24.845  0.00  0.00    +0.039 C 
ATOM     30  C   UNL     1      -1.254   2.495  24.082  0.00  0.00    -0.033 C 
ATOM     31  C   UNL     1      -0.929   1.814  23.749  0.00  0.00    -0.048 C 
ATOM     32  C   UNL     1      -1.146   1.584  22.987  0.00  0.00    +0.026 C 
ENDROOT
BRANCH  16  17
ATOM     17  C   UNL     1      -0.278   2.505  26.035  0.00  0.00    +0.000 C 
ATOM     18  C   UNL     1       0.294   3.089  26.142  0.00  0.00    +0.000 C 
ATOM     19  C   UNL     1      -0.633   2.150  26.690  0.00  0.00    +0.000 C 
ENDBRANCH  16  17
BRANCH  14  13
ATOM     13  C   UNL     1      -0.061   0.683  23.843  0.00  0.00    +0.091 C 
BRANCH  13  12
ATOM      9  C   UNL     1      -1.035  -1.120  24.441  0.00  0.00    +0.250 A 
ATOM     10  N   UNL     1      -0.251  -1.291  24.632  0.00  0.00    -0.107 NA
ATOM     11  N   UNL     1       0.209  -0.637  24.431  0.00  0.00    -0.111 NA
ATOM     12  C   UNL     1      -0.290  -0.061  24.116  0.00  0.00    +0.227 A 
ATOM     33  O   UNL     1      -1.060  -0.359  24.122  0.00  0.00    -0.420 OA
BRANCH   9   6
ATOM      3  C   UNL     1      -2.974  -2.622  24.767  0.00  0.00    +0.139 A 
ATOM      4  C   UNL     1      -2.985  -1.861  25.084  0.00  0.00    +0.037 A 
ATOM      5  C   UNL     1      -2.338  -1.360  24.975  0.00  0.00    +0.008 A 
ATOM      6  C   UNL     1      -1.681  -1.620  24.550  0.00  0.00    +0.055 A 
ATOM      7  C   UNL     1      -1.670  -2.383  24.233  0.00  0.00    +0.008 A 
ATOM      8  C   UNL     1      -2.317  -2.884  24.342  0.00  0.00    +0.037 A 
BRANCH   3   2
ATOM      1  C   UNL     1      -4.177  -3.216  24.273  0.00  0.00    +0.252 C 
ATOM      2  O   UNL     1      -3.621  -3.124  24.876  0.00  0.00    -0.471 OA
ENDBRANCH   3   2
ENDBRANCH   9   6
ENDBRANCH  13  12
ENDBRANCH  14  13
BRANCH  20  21
ATOM     21  C   UNL     1      -1.363   3.406  25.178  0.00  0.00    +0.093 C 
BRANCH  21  22
ATOM     22  N   UNL     1      -2.093   3.684  24.917  0.00  0.00    -0.213 NA
BRANCH  22  23
ATOM     23  C   UNL     1      -2.578   4.115  25.428  0.00  0.00    +0.115 C 
BRANCH  23  24
ATOM     24  C   UNL     1      -3.395   4.008  25.410  0.00  0.00    -0.002 A 
ATOM     25  C   UNL     1      -3.803   3.837  26.107  0.00  0.00    +0.018 A 
ATOM     26  C   UNL     1      -4.621   3.730  26.090  0.00  0.00    +0.099 A 
ATOM     27  N   UNL     1      -5.031   3.794  25.376  0.00  0.00    -0.242 NA
ATOM     28  C   UNL     1      -4.622   3.965  24.680  0.00  0.00    +0.099 A 
ATOM     29  C   UNL     1      -3.804   4.072  24.698  0.00  0.00    +0.018 A 
ENDBRANCH  23  24
ENDBRANCH  22  23
ENDBRANCH  21  22
ENDBRANCH  20  21
TORSDOF 9
ENDMDL
MODEL 9
REMARK VINA RESULT:      -7.7      1.280      2.310
REMARK  Name = 
REMARK  9 active torsions:
REMARK  status: ('A' for Active; 'I' for Inactive)
REMARK    1  A    between atoms: O_2  and  C_3
REMARK    2  A    between atoms: C_6  and  C_9
REMARK    3  A    between atoms: C_12  and  C_13
REMARK    4  A    between atoms: C_13  and  C_14
REMARK    5  A    between atoms: C_16  and  C_17
REMARK    6  A    between atoms: C_20  and  C_21
REMARK    7  A    between atoms: C_21  and  N_22
REMARK    8  A    between atoms: N_22  and  C_23
REMARK    9  A    between atoms: C_23  and  C_24
REMARK                            x       y       z     vdW  Elec       q    Type
REMARK                         _______ _______ _______ _____ _____    ______ ____
ROOT
ATOM     14  C   UNL     1      -1.659  -0.527  24.995  0.00  0.00    +0.027 C 
ATOM     15  C   UNL     1      -2.225  -1.012  24.641  0.00  0.00    +0.005 C 
ATOM     16  C   UNL     1      -3.012  -0.766  24.600  0.00  0.00    +0.006 C 
ATOM     20  C   UNL     1      -3.232  -0.035  24.913  0.00  0.00    +0.039 C 
ATOM     30  C   UNL     1      -2.666   0.450  25.267  0.00  0.00    -0.033 C 
ATOM     31  C   UNL     1      -1.880   0.203  25.308  0.00  0.00    -0.048 C 
ATOM     32  C   UNL     1      -1.314   0.689  25.662  0.00  0.00    +0.026 C 
ENDROOT
BRANCH  16  17
ATOM     17  C   UNL     1      -3.578  -1.251  24.246  0.00  0.00    +0.000 C 
ATOM     18  C   UNL     1      -3.884  -1.896  24.658  0.00  0.00    +0.000 C 
ATOM     19  C   UNL     1      -3.838  -1.090  23.479  0.00  0.00    +0.000 C 
ENDBRANCH  16  17
BRANCH  14  13
ATOM     13  C   UNL     1      -0.873  -0.772  25.036  0.00  0.00    +0.091 C 
BRANCH  13  12
ATOM      9  C   UNL     1       0.605  -0.403  23.540  0.00  0.00    +0.250 A 
ATOM     10  N   UNL     1       0.097  -0.914  23.140  0.00  0.00    -0.107 NA
ATOM     11  N   UNL     1      -0.519  -1.115  23.651  0.00  0.00    -0.111 NA
ATOM     12  C   UNL     1      -0.391  -0.728  24.368  0.00  0.00    +0.227 A 
ATOM     33  O   UNL     1       0.304  -0.288  24.300  0.00  0.00    -0.420 OA
BRANCH   9   6
ATOM      3  C   UNL     1       2.671   0.606  22.627  0.00  0.00    +0.139 A 
ATOM      4  C   UNL     1       2.267   0.979  23.242  0.00  0.00    +0.037 A 
ATOM      5  C   UNL     1       1.578   0.642  23.546  0.00  0.00    +0.008 A 
ATOM      6  C   UNL     1       1.293  -0.067  23.236  0.00  0.00    +0.055 A 
ATOM      7  C   UNL     1       1.698  -0.440  22.621  0.00  0.00    +0.008 A 
ATOM      8  C   UNL     1       2.387  -0.103  22.316  0.00  0.00    +0.037 A 
BRANCH   3   2
ATOM      1  C   UNL     1       4.083   0.818  22.702  0.00  0.00    +0.252 C 
ATOM      2  O   UNL     1       3.361   0.943  22.322  0.00  0.00    -0.471 OA
ENDBRANCH   3   2
ENDBRANCH   9   6
ENDBRANCH  13  12
ENDBRANCH  14  13
BRANCH  20  21
ATOM     21  C   UNL     1      -4.019   0.211  24.872  0.00  0.00    +0.093 C 
BRANCH  21  22
ATOM     22  N   UNL     1      -4.220   0.984  25.077  0.00  0.00    -0.213 NA
BRANCH  22  23
ATOM     23  C   UNL     1      -4.985   1.261  24.937  0.00  0.00    +0.115 C 
BRANCH  23  24
ATOM     24  C   UNL     1      -5.207   2.010  25.202  0.00  0.00    -0.002 A 
ATOM     25  C   UNL     1      -5.777   2.085  25.795  0.00  0.00    +0.018 A 
ATOM     26  C   UNL     1      -5.999   2.834  26.060  0.00  0.00    +0.099 A 
ATOM     27  N   UNL     1      -5.652   3.508  25.733  0.00  0.00    -0.242 NA
ATOM     28  C   UNL     1      -5.083   3.432  25.141  0.00  0.00    +0.099 A 
ATOM     29  C   UNL     1      -4.860   2.683  24.876  0.00  0.00    +0.018 A 
ENDBRANCH  23  24
ENDBRANCH  22  23
ENDBRANCH  21  22
ENDBRANCH  20  21
TORSDOF 9
ENDMDL
MODEL 10
REMARK VINA RESULT:      -7.7      3.485      4.844
REMARK  Name = 
REMARK  9 active torsions:
REMARK  status: ('A' for Active; 'I' for Inactive)
REMARK    1  A    between atoms: O_2  and  C_3
REMARK    2  A    between atoms: C_6  and  C_9
REMARK    3  A    between atoms: C_12  and  C_13
REMARK    4  A    between atoms: C_13  and  C_14
REMARK    5  A    between atoms: C_16  and  C_17
REMARK    6  A    between atoms: C_20  and  C_21
REMARK    7  A    between atoms: C_21  and  N_22
REMARK    8  A    between atoms: N_22  and  C_23
REMARK    9  A    between atoms: C_23  and  C_24
REMARK                            x       y       z     vdW  Elec       q    Type
REMARK                         _______ _______ _______ _____ _____    ______ ____
ROOT
ATOM     14  C   UNL     1      -4.647   1.210  24.610  0.00  0.00    +0.027 C 
ATOM     15  C   UNL     1      -4.255   1.436  23.920  0.00  0.00    +0.005 C 
ATOM     16  C   UNL     1      -3.879   2.170  23.881  0.00  0.00    +0.006 C 
ATOM     20  C   UNL     1      -3.896   2.677  24.531  0.00  0.00    +0.039 C 
ATOM     30  C   UNL     1      -4.288   2.450  25.221  0.00  0.00    -0.033 C 
ATOM     31  C   UNL     1      -4.663   1.717  25.260  0.00  0.00    -0.048 C 
ATOM     32  C   UNL     1      -5.055   1.491  25.950  0.00  0.00    +0.026 C 
ENDROOT
BRANCH  16  17
ATOM     17  C   UNL     1      -3.487   2.397  23.191  0.00  0.00    +0.000 C 
ATOM     18  C   UNL     1      -3.825   2.958  22.690  0.00  0.00    +0.000 C 
ATOM     19  C   UNL     1      -2.757   2.061  23.002  0.00  0.00    +0.000 C 
ENDBRANCH  16  17
BRANCH  14  13
ATOM     13  C   UNL     1      -5.022   0.476  24.650  0.00  0.00    +0.091 C 
BRANCH  13  12
ATOM      9  C   UNL     1      -3.637  -1.140  24.476  0.00  0.00    +0.250 A 
ATOM     10  N   UNL     1      -4.256  -1.408  24.002  0.00  0.00    -0.107 NA
ATOM     11  N   UNL     1      -4.851  -0.836  24.009  0.00  0.00    -0.111 NA
ATOM     12  C   UNL     1      -4.599  -0.213  24.488  0.00  0.00    +0.227 A 
ATOM     33  O   UNL     1      -3.849  -0.401  24.776  0.00  0.00    -0.420 OA
BRANCH   9   6
ATOM      3  C   UNL     1      -1.519  -2.338  24.919  0.00  0.00    +0.139 A 
ATOM      4  C   UNL     1      -1.576  -1.531  25.075  0.00  0.00    +0.037 A 
ATOM      5  C   UNL     1      -2.282  -1.131  24.927  0.00  0.00    +0.008 A 
ATOM      6  C   UNL     1      -2.932  -1.539  24.623  0.00  0.00    +0.055 A 
ATOM      7  C   UNL     1      -2.874  -2.348  24.467  0.00  0.00    +0.008 A 
ATOM      8  C   UNL     1      -2.168  -2.747  24.615  0.00  0.00    +0.037 A 
BRANCH   3   2
ATOM      1  C   UNL     1      -0.138  -2.316  25.288  0.00  0.00    +0.252 C 
ATOM      2  O   UNL     1      -0.812  -2.738  25.067  0.00  0.00    -0.471 OA
ENDBRANCH   3   2
ENDBRANCH   9   6
ENDBRANCH  13  12
ENDBRANCH  14  13
BRANCH  20  21
ATOM     21  C   UNL     1      -3.521   3.411  24.493  0.00  0.00    +0.093 C 
BRANCH  21  22
ATOM     22  N   UNL     1      -2.964   3.620  25.062  0.00  0.00    -0.213 NA
BRANCH  22  23
ATOM     23  C   UNL     1      -2.743   4.410  25.153  0.00  0.00    +0.115 C 
BRANCH  23  24
ATOM     24  C   UNL     1      -1.946   4.622  25.127  0.00  0.00    -0.002 A 
ATOM     25  C   UNL     1      -1.368   4.083  25.366  0.00  0.00    +0.018 A 
ATOM     26  C   UNL     1      -0.572   4.295  25.339  0.00  0.00    +0.099 A 
ATOM     27  N   UNL     1      -0.352   5.045  25.074  0.00  0.00    -0.242 NA
ATOM     28  C   UNL     1      -0.930   5.583  24.836  0.00  0.00    +0.099 A 
ATOM     29  C   UNL     1      -1.727   5.372  24.862  0.00  0.00    +0.018 A 
ENDBRANCH  23  24
ENDBRANCH  22  23
ENDBRANCH  21  22
ENDBRANCH  20  21
TORSDOF 9
ENDMDL
