MODEL 1
REMARK VINA RESULT:      -9.4      0.000      0.000
REMARK  Name = 
REMARK  6 active torsions:
REMARK  status: ('A' for Active; 'I' for Inactive)
REMARK    1  A    between atoms: O_2  and  C_3
REMARK    2  A    between atoms: C_6  and  C_9
REMARK    3  A    between atoms: N_14  and  C_15
REMARK    4  A    between atoms: C_19  and  N_23
REMARK    5  A    between atoms: C_24  and  C_26
REMARK    6  A    between atoms: C_31  and  C_32
REMARK                            x       y       z     vdW  Elec       q    Type
REMARK                         _______ _______ _______ _____ _____    ______ ____
ROOT
ATOM     15  C   UNL     1      -0.293   1.250  23.812  0.00  0.00    +0.154 C 
ATOM     16  C   UNL     1      -0.737   1.217  23.118  0.00  0.00    +0.166 C 
ATOM     17  O   UNL     1      -1.535   1.235  23.325  0.00  0.00    -0.350 OA
ATOM     18  C   UNL     1      -1.585   1.279  24.147  0.00  0.00    +0.166 C 
ATOM     19  C   UNL     1      -2.107   1.317  24.784  0.00  0.00    +0.155 C 
ATOM     20  C   UNL     1      -1.663   1.350  25.478  0.00  0.00    +0.166 C 
ATOM     21  O   UNL     1      -0.865   1.332  25.270  0.00  0.00    -0.350 OA
ATOM     22  C   UNL     1      -0.816   1.288  24.448  0.00  0.00    +0.166 C 
ENDROOT
BRANCH  15  14
ATOM      9  C   UNL     1       2.234   0.245  22.930  0.00  0.00    +0.086 A 
ATOM     10  C   UNL     1       1.850  -0.248  22.392  0.00  0.00    +0.040 A 
ATOM     11  C   UNL     1       1.026  -0.244  22.343  0.00  0.00    +0.103 A 
ATOM     12  N   UNL     1       0.586   0.254  22.833  0.00  0.00    -0.211 NA
ATOM     13  C   UNL     1       0.971   0.748  23.371  0.00  0.00    +0.237 A 
ATOM     14  N   UNL     1       0.531   1.245  23.861  0.00  0.00    -0.200 NA
ATOM     35  N   UNL     1       1.794   0.743  23.420  0.00  0.00    -0.212 NA
BRANCH   9   6
ATOM      3  C   UNL     1       4.705   0.231  23.076  0.00  0.00    +0.139 A 
ATOM      4  C   UNL     1       4.273  -0.432  23.311  0.00  0.00    +0.037 A 
ATOM      5  C   UNL     1       3.450  -0.428  23.262  0.00  0.00    +0.005 A 
ATOM      6  C   UNL     1       3.057   0.240  22.979  0.00  0.00    +0.018 A 
ATOM      7  C   UNL     1       3.487   0.904  22.745  0.00  0.00    +0.005 A 
ATOM      8  C   UNL     1       4.311   0.899  22.793  0.00  0.00    +0.037 A 
BRANCH   3   2
ATOM      1  C   UNL     1       5.897   0.106  23.853  0.00  0.00    +0.252 C 
ATOM      2  O   UNL     1       5.528   0.227  23.125  0.00  0.00    -0.471 OA
ENDBRANCH   3   2
ENDBRANCH   9   6
ENDBRANCH  15  14
BRANCH  19  23
ATOM     23  N   UNL     1      -2.931   1.322  24.735  0.00  0.00    -0.198 NA
ATOM     24  C   UNL     1      -3.363   1.914  25.113  0.00  0.00    +0.265 C 
ATOM     25  O   UNL     1      -2.973   2.503  25.539  0.00  0.00    -0.268 OA
BRANCH  24  26
ATOM     26  C   UNL     1      -4.187   1.919  25.064  0.00  0.00    +0.061 A 
ATOM     27  C   UNL     1      -4.612   1.223  25.191  0.00  0.00    +0.005 A 
ATOM     28  C   UNL     1      -5.436   1.227  25.142  0.00  0.00    +0.000 A 
ATOM     29  C   UNL     1      -5.834   1.928  24.966  0.00  0.00    +0.000 A 
ATOM     30  C   UNL     1      -5.409   2.623  24.839  0.00  0.00    +0.007 A 
ATOM     31  C   UNL     1      -4.586   2.619  24.888  0.00  0.00    +0.084 A 
BRANCH  31  32
ATOM     32  C   UNL     1      -4.161   3.315  24.760  0.00  0.00    +0.388 C 
ATOM     33  O   UNL     1      -3.923   3.518  23.998  0.00  0.00    -0.241 OA
ATOM     34  O   UNL     1      -3.975   3.807  25.396  0.00  0.00    -0.241 OA
ENDBRANCH  31  32
ENDBRANCH  24  26
ENDBRANCH  19  23
TORSDOF 6
ENDMDL
MODEL 2
REMARK VINA RESULT:      -7.0      1.284      7.349
REMARK  Name = 
REMARK  6 active torsions:
REMARK  status: ('A' for Active; 'I' for Inactive)
REMARK    1  A    between atoms: O_2  and  C_3
REMARK    2  A    between atoms: C_6  and  C_9
REMARK    3  A    between atoms: N_14  and  C_15
REMARK    4  A    between atoms: C_19  and  N_23
REMARK    5  A    between atoms: C_24  and  C_26
REMARK    6  A    between atoms: C_31  and  C_32
REMARK                            x       y       z     vdW  Elec       q    Type
REMARK                         _______ _______ _______ _____ _____    ______ ____
ROOT
ATOM     15  C   UNL     1      -0.155   1.313  23.889  0.00  0.00    +0.154 C 
ATOM     16  C   UNL     1       0.324   1.848  24.296  0.00  0.00    +0.166 C 
ATOM     17  O   UNL     1       1.099   1.569  24.266  0.00  0.00    -0.350 OA
ATOM     18  C   UNL     1       1.100   0.862  23.841  0.00  0.00    +0.166 C 
ATOM     19  C   UNL     1       1.579   0.252  23.560  0.00  0.00    +0.155 C 
ATOM     20  C   UNL     1       1.101  -0.283  23.154  0.00  0.00    +0.166 C 
ATOM     21  O   UNL     1       0.326  -0.003  23.183  0.00  0.00    -0.350 OA
ATOM     22  C   UNL     1       0.325   0.704  23.608  0.00  0.00    +0.166 C 
ENDROOT
BRANCH  15  14
ATOM      9  C   UNL     1      -2.735   2.025  24.892  0.00  0.00    +0.086 A 
ATOM     10  C   UNL     1      -2.394   2.254  25.607  0.00  0.00    +0.040 A 
ATOM     11  C   UNL     1      -1.578   2.191  25.714  0.00  0.00    +0.103 A 
ATOM     12  N   UNL     1      -1.103   1.898  25.106  0.00  0.00    -0.211 NA
ATOM     13  C   UNL     1      -1.446   1.669  24.390  0.00  0.00    +0.237 A 
ATOM     14  N   UNL     1      -0.971   1.377  23.782  0.00  0.00    -0.200 NA
ATOM     35  N   UNL     1      -2.261   1.733  24.283  0.00  0.00    -0.212 NA
BRANCH   9   6
ATOM      3  C   UNL     1      -5.182   2.216  24.571  0.00  0.00    +0.139 A 
ATOM      4  C   UNL     1      -4.708   2.891  24.541  0.00  0.00    +0.037 A 
ATOM      5  C   UNL     1      -3.893   2.827  24.648  0.00  0.00    +0.005 A 
ATOM      6  C   UNL     1      -3.550   2.089  24.785  0.00  0.00    +0.018 A 
ATOM      7  C   UNL     1      -4.024   1.414  24.815  0.00  0.00    +0.005 A 
ATOM      8  C   UNL     1      -4.840   1.477  24.708  0.00  0.00    +0.037 A 
BRANCH   3   2
ATOM      1  C   UNL     1      -6.512   1.911  24.994  0.00  0.00    +0.252 C 
ATOM      2  O   UNL     1      -5.997   2.279  24.465  0.00  0.00    -0.471 OA
ENDBRANCH   3   2
ENDBRANCH   9   6
ENDBRANCH  15  14
BRANCH  19  23
ATOM     23  N   UNL     1       2.395   0.189  23.667  0.00  0.00    -0.198 NA
ATOM     24  C   UNL     1       2.878  -0.039  23.038  0.00  0.00    +0.265 C 
ATOM     25  O   UNL     1       2.545  -0.203  22.301  0.00  0.00    -0.268 OA
BRANCH  24  26
ATOM     26  C   UNL     1       3.693  -0.103  23.145  0.00  0.00    +0.061 A 
ATOM     27  C   UNL     1       4.003  -0.716  23.601  0.00  0.00    +0.005 A 
ATOM     28  C   UNL     1       4.819  -0.781  23.709  0.00  0.00    +0.000 A 
ATOM     29  C   UNL     1       5.324  -0.229  23.359  0.00  0.00    +0.000 A 
ATOM     30  C   UNL     1       5.014   0.384  22.903  0.00  0.00    +0.007 A 
ATOM     31  C   UNL     1       4.199   0.448  22.796  0.00  0.00    +0.084 A 
BRANCH  31  32
ATOM     32  C   UNL     1       3.889   1.062  22.340  0.00  0.00    +0.388 C 
ATOM     33  O   UNL     1       3.700   0.932  21.548  0.00  0.00    -0.241 OA
ATOM     34  O   UNL     1       3.769   1.805  22.676  0.00  0.00    -0.241 OA
ENDBRANCH  31  32
ENDBRANCH  24  26
ENDBRANCH  19  23
TORSDOF 6
ENDMDL
