REMARK  Name = 
REMARK  7 active torsions:
REMARK  status: ('A' for Active; 'I' for Inactive)
REMARK    1  A    between atoms: O_2  and  C_3
REMARK    2  A    between atoms: C_3  and  C_5
REMARK    3  A    between atoms: C_5  and  N_7
REMARK    4  A    between atoms: C_8  and  C_10
REMARK    5  A    between atoms: N_18  and  C_19
REMARK    6  A    between atoms: C_25  and  C_27
REMARK    7  A    between atoms: C_30  and  N_33
REMARK                            x       y       z     vdW  Elec       q    Type
REMARK                         _______ _______ _______ _____ _____    ______ ____
ROOT
ATOM     10  C   UNL     1       7.145  -6.600   0.000  0.00  0.00    +0.175 C 
ATOM     11  C   UNL     1       7.859  -6.188   0.000  0.00  0.00    +0.123 C 
ATOM     12  N   UNL     1       8.574  -6.600   0.000  0.00  0.00    -0.272 N 
ATOM     13  C   UNL     1       8.574  -7.425   0.000  0.00  0.00    +0.115 C 
ATOM     14  C   UNL     1       7.859  -7.838   0.000  0.00  0.00    +0.117 C 
ATOM     15  N   UNL     1       7.145  -7.425   0.000  0.00  0.00    -0.253 N 
ATOM     16  C   UNL     1       6.430  -7.838   0.000  0.00  0.00    +0.324 C 
ATOM     17  O   UNL     1       5.716  -7.425   0.000  0.00  0.00    -0.251 OA
ATOM     18  N   UNL     1       6.430  -8.662   0.000  0.00  0.00    -0.190 NA
ATOM     25  C   UNL     1       9.288  -6.188   0.000  0.00  0.00    +0.249 C 
ATOM     26  O   UNL     1       9.288  -5.362   0.000  0.00  0.00    -0.270 OA
ENDROOT
BRANCH  18  19
ATOM     19  C   UNL     1       5.716  -9.075   0.000  0.00  0.00    +0.097 C 
ATOM     20  C   UNL     1       5.716  -9.900   0.000  0.00  0.00    +0.022 C 
ATOM     21  C   UNL     1       5.001 -10.312   0.000  0.00  0.00    +0.002 C 
ATOM     22  C   UNL     1       4.287  -9.900   0.000  0.00  0.00    +0.000 C 
ATOM     23  C   UNL     1       4.287  -9.075   0.000  0.00  0.00    +0.002 C 
ATOM     24  C   UNL     1       5.001  -8.662   0.000  0.00  0.00    +0.022 C 
ENDBRANCH  18  19
BRANCH  25  27
ATOM     27  C   UNL     1      10.003  -6.600   0.000  0.00  0.00    +0.054 A 
ATOM     28  C   UNL     1      10.717  -6.188   0.000  0.00  0.00    +0.006 A 
ATOM     29  C   UNL     1      11.431  -6.600   0.000  0.00  0.00    +0.015 A 
ATOM     30  C   UNL     1      11.431  -7.425   0.000  0.00  0.00    +0.048 A 
ATOM     31  C   UNL     1      10.717  -7.838   0.000  0.00  0.00    +0.015 A 
ATOM     32  C   UNL     1      10.003  -7.425   0.000  0.00  0.00    +0.006 A 
BRANCH  30  33
ATOM     33  N   UNL     1      12.146  -7.838   0.000  0.00  0.00    -0.304 N 
ATOM     34  C   UNL     1      12.861  -7.425   0.000  0.00  0.00    +0.112 C 
ATOM     35  C   UNL     1      12.146  -8.662   0.000  0.00  0.00    +0.112 C 
ENDBRANCH  30  33
ENDBRANCH  25  27
BRANCH  10   8
ATOM      7  N   UNL     1       5.716  -6.600   0.000  0.00  0.00    -0.194 NA
ATOM      8  C   UNL     1       6.430  -6.188   0.000  0.00  0.00    +0.262 C 
ATOM      9  O   UNL     1       6.430  -5.362   0.000  0.00  0.00    -0.271 OA
BRANCH   7   5
ATOM      5  C   UNL     1       5.001  -6.188   0.000  0.00  0.00    +0.194 C 
ATOM      6  C   UNL     1       5.001  -5.362   0.000  0.00  0.00    +0.035 C 
BRANCH   5   3
ATOM      3  C   UNL     1       4.287  -6.600   0.000  0.00  0.00    +0.337 C 
ATOM      4  O   UNL     1       4.287  -7.425   0.000  0.00  0.00    -0.248 OA
BRANCH   3   2
ATOM      1  C   UNL     1       2.858  -6.600   0.000  0.00  0.00    +0.256 C 
ATOM      2  O   UNL     1       3.572  -6.188   0.000  0.00  0.00    -0.443 OA
ENDBRANCH   3   2
ENDBRANCH   5   3
ENDBRANCH   7   5
ENDBRANCH  10   8
TORSDOF 7
