MODEL 1
REMARK VINA RESULT:     -10.8      0.000      0.000
REMARK  Name = 
REMARK  7 active torsions:
REMARK  status: ('A' for Active; 'I' for Inactive)
REMARK    1  A    between atoms: C_2  and  C_3
REMARK    2  A    between atoms: C_3  and  N_4
REMARK    3  A    between atoms: C_5  and  C_7
REMARK    4  A    between atoms: N_11  and  C_12
REMARK    5  A    between atoms: C_12  and  C_13
REMARK    6  A    between atoms: C_25  and  C_26
REMARK    7  A    between atoms: C_26  and  C_27
REMARK                            x       y       z     vdW  Elec       q    Type
REMARK                         _______ _______ _______ _____ _____    ______ ____
ROOT
ATOM      7  C   UNL     1      -3.939   0.607  24.915  0.00  0.00    +0.155 C 
ATOM      8  C   UNL     1      -3.145   0.830  24.912  0.00  0.00    +0.055 C 
ATOM      9  C   UNL     1      -2.822   1.586  24.834  0.00  0.00    -0.002 A 
ATOM     10  C   UNL     1      -2.011   1.737  24.840  0.00  0.00    +0.072 A 
ATOM     11  N   UNL     1      -1.902   2.550  24.749  0.00  0.00    -0.319 N 
ATOM     19  C   UNL     1      -2.646   2.901  24.688  0.00  0.00    +0.060 A 
ATOM     20  C   UNL     1      -3.215   2.305  24.740  0.00  0.00    +0.011 A 
ATOM     21  C   UNL     1      -4.027   2.446  24.701  0.00  0.00    -0.005 A 
ATOM     22  C   UNL     1      -4.250   3.280  24.598  0.00  0.00    -0.003 A 
ATOM     23  C   UNL     1      -3.682   3.876  24.546  0.00  0.00    +0.001 A 
ATOM     24  C   UNL     1      -2.880   3.686  24.591  0.00  0.00    +0.017 A 
ATOM     25  C   UNL     1      -4.646   1.904  24.745  0.00  0.00    +0.095 C 
ATOM     30  N   UNL     1      -4.607   1.086  24.841  0.00  0.00    -0.207 NA
ENDROOT
BRANCH   7   5
ATOM      4  N   UNL     1      -4.111  -0.689  24.341  0.00  0.00    -0.204 NA
ATOM      5  C   UNL     1      -4.084  -0.200  25.004  0.00  0.00    +0.258 C 
ATOM      6  O   UNL     1      -4.203  -0.517  25.757  0.00  0.00    -0.272 OA
BRANCH   4   3
ATOM      3  C   UNL     1      -4.257  -1.497  24.430  0.00  0.00    +0.115 C 
BRANCH   3   2
ATOM      1  C   UNL     1      -3.958  -2.752  23.815  0.00  0.00    +0.002 C 
ATOM      2  C   UNL     1      -4.270  -1.989  23.769  0.00  0.00    +0.023 C 
ENDBRANCH   3   2
ENDBRANCH   4   3
ENDBRANCH   7   5
BRANCH  11  12
ATOM     12  C   UNL     1      -1.178   2.943  24.725  0.00  0.00    +0.170 C 
BRANCH  12  13
ATOM     13  C   UNL     1      -0.589   2.758  25.272  0.00  0.00    +0.144 A 
ATOM     14  N   UNL     1      -0.659   2.801  26.093  0.00  0.00    -0.227 NA
ATOM     15  C   UNL     1       0.060   2.568  26.422  0.00  0.00    +0.119 A 
ATOM     16  C   UNL     1       0.575   2.381  25.805  0.00  0.00    +0.098 A 
ATOM     17  N   UNL     1       0.173   2.498  25.094  0.00  0.00    -0.310 N 
ATOM     18  C   UNL     1       0.481   2.377  24.338  0.00  0.00    +0.132 C 
ENDBRANCH  12  13
ENDBRANCH  11  12
BRANCH  25  26
ATOM     26  C   UNL     1      -5.405   2.221  24.687  0.00  0.00    +0.022 C 
BRANCH  26  27
ATOM     27  C   UNL     1      -6.014   1.924  25.160  0.00  0.00    +0.002 C 
ATOM     28  C   UNL     1      -6.606   1.457  24.824  0.00  0.00    +0.000 C 
ATOM     29  C   UNL     1      -6.029   2.094  25.967  0.00  0.00    +0.000 C 
ENDBRANCH  26  27
ENDBRANCH  25  26
TORSDOF 7
ENDMDL
MODEL 2
REMARK VINA RESULT:     -10.7      1.998      3.766
REMARK  Name = 
REMARK  7 active torsions:
REMARK  status: ('A' for Active; 'I' for Inactive)
REMARK    1  A    between atoms: C_2  and  C_3
REMARK    2  A    between atoms: C_3  and  N_4
REMARK    3  A    between atoms: C_5  and  C_7
REMARK    4  A    between atoms: N_11  and  C_12
REMARK    5  A    between atoms: C_12  and  C_13
REMARK    6  A    between atoms: C_25  and  C_26
REMARK    7  A    between atoms: C_26  and  C_27
REMARK                            x       y       z     vdW  Elec       q    Type
REMARK                         _______ _______ _______ _____ _____    ______ ____
ROOT
ATOM      7  C   UNL     1      -2.845   2.872  25.375  0.00  0.00    +0.155 C 
ATOM      8  C   UNL     1      -2.318   2.241  25.318  0.00  0.00    +0.055 C 
ATOM      9  C   UNL     1      -2.468   1.465  25.080  0.00  0.00    -0.002 A 
ATOM     10  C   UNL     1      -1.889   0.879  25.046  0.00  0.00    +0.072 A 
ATOM     11  N   UNL     1      -2.245   0.182  24.787  0.00  0.00    -0.319 N 
ATOM     19  C   UNL     1      -3.046   0.336  24.660  0.00  0.00    +0.060 A 
ATOM     20  C   UNL     1      -3.184   1.130  24.842  0.00  0.00    +0.011 A 
ATOM     21  C   UNL     1      -3.925   1.488  24.782  0.00  0.00    -0.005 A 
ATOM     22  C   UNL     1      -4.563   0.965  24.510  0.00  0.00    -0.003 A 
ATOM     23  C   UNL     1      -4.426   0.172  24.328  0.00  0.00    +0.001 A 
ATOM     24  C   UNL     1      -3.666  -0.142  24.404  0.00  0.00    +0.017 A 
ATOM     25  C   UNL     1      -4.134   2.268  24.946  0.00  0.00    +0.095 C 
ATOM     30  N   UNL     1      -3.654   2.885  25.210  0.00  0.00    -0.207 NA
ENDROOT
BRANCH   7   5
ATOM      4  N   UNL     1      -2.113   4.069  25.103  0.00  0.00    -0.204 NA
ATOM      5  C   UNL     1      -2.522   3.587  25.633  0.00  0.00    +0.258 C 
ATOM      6  O   UNL     1      -2.608   3.818  26.420  0.00  0.00    -0.272 OA
BRANCH   4   3
ATOM      3  C   UNL     1      -1.790   4.783  25.361  0.00  0.00    +0.115 C 
BRANCH   3   2
ATOM      1  C   UNL     1      -0.650   5.374  24.732  0.00  0.00    +0.002 C 
ATOM      2  C   UNL     1      -1.469   5.312  24.815  0.00  0.00    +0.023 C 
ENDBRANCH   3   2
ENDBRANCH   4   3
ENDBRANCH   7   5
BRANCH  11  12
ATOM     12  C   UNL     1      -1.868  -0.543  24.673  0.00  0.00    +0.170 C 
BRANCH  12  13
ATOM     13  C   UNL     1      -1.087  -0.565  24.410  0.00  0.00    +0.144 A 
ATOM     14  N   UNL     1      -0.752  -0.073  23.838  0.00  0.00    -0.227 NA
ATOM     15  C   UNL     1       0.039  -0.288  23.748  0.00  0.00    +0.119 A 
ATOM     16  C   UNL     1       0.194  -0.912  24.264  0.00  0.00    +0.098 A 
ATOM     17  N   UNL     1      -0.502  -1.084  24.673  0.00  0.00    -0.310 N 
ATOM     18  C   UNL     1      -0.595  -1.672  25.245  0.00  0.00    +0.132 C 
ENDBRANCH  12  13
ENDBRANCH  11  12
BRANCH  25  26
ATOM     26  C   UNL     1      -4.928   2.458  24.830  0.00  0.00    +0.022 C 
BRANCH  26  27
ATOM     27  C   UNL     1      -5.322   2.935  25.377  0.00  0.00    +0.002 C 
ATOM     28  C   UNL     1      -5.615   2.606  26.075  0.00  0.00    +0.000 C 
ATOM     29  C   UNL     1      -5.422   3.740  25.226  0.00  0.00    +0.000 C 
ENDBRANCH  26  27
ENDBRANCH  25  26
TORSDOF 7
ENDMDL
MODEL 3
REMARK VINA RESULT:     -10.6      1.731      3.400
REMARK  Name = 
REMARK  7 active torsions:
REMARK  status: ('A' for Active; 'I' for Inactive)
REMARK    1  A    between atoms: C_2  and  C_3
REMARK    2  A    between atoms: C_3  and  N_4
REMARK    3  A    between atoms: C_5  and  C_7
REMARK    4  A    between atoms: N_11  and  C_12
REMARK    5  A    between atoms: C_12  and  C_13
REMARK    6  A    between atoms: C_25  and  C_26
REMARK    7  A    between atoms: C_26  and  C_27
REMARK                            x       y       z     vdW  Elec       q    Type
REMARK                         _______ _______ _______ _____ _____    ______ ____
ROOT
ATOM      7  C   UNL     1      -1.742  -0.037  24.600  0.00  0.00    +0.155 C 
ATOM      8  C   UNL     1      -1.801   0.773  24.743  0.00  0.00    +0.055 C 
ATOM      9  C   UNL     1      -2.480   1.232  24.833  0.00  0.00    -0.002 A 
ATOM     10  C   UNL     1      -2.465   2.044  24.976  0.00  0.00    +0.072 A 
ATOM     11  N   UNL     1      -3.245   2.308  25.033  0.00  0.00    -0.319 N 
ATOM     19  C   UNL     1      -3.742   1.659  24.926  0.00  0.00    +0.060 A 
ATOM     20  C   UNL     1      -3.270   0.993  24.803  0.00  0.00    +0.011 A 
ATOM     21  C   UNL     1      -3.574   0.237  24.674  0.00  0.00    -0.005 A 
ATOM     22  C   UNL     1      -4.441   0.185  24.677  0.00  0.00    -0.003 A 
ATOM     23  C   UNL     1      -4.913   0.850  24.801  0.00  0.00    +0.001 A 
ATOM     24  C   UNL     1      -4.564   1.587  24.925  0.00  0.00    +0.017 A 
ATOM     25  C   UNL     1      -3.164  -0.466  24.545  0.00  0.00    +0.095 C 
ATOM     30  N   UNL     1      -2.349  -0.589  24.512  0.00  0.00    -0.207 NA
ENDROOT
BRANCH   7   5
ATOM      4  N   UNL     1      -0.544  -0.221  23.843  0.00  0.00    -0.204 NA
ATOM      5  C   UNL     1      -0.975  -0.335  24.537  0.00  0.00    +0.258 C 
ATOM      6  O   UNL     1      -0.640  -0.748  25.168  0.00  0.00    -0.272 OA
BRANCH   4   3
ATOM      3  C   UNL     1       0.222  -0.520  23.781  0.00  0.00    +0.115 C 
BRANCH   3   2
ATOM      1  C   UNL     1       1.343  -0.083  23.008  0.00  0.00    +0.002 C 
ATOM      2  C   UNL     1       0.622  -0.482  23.060  0.00  0.00    +0.023 C 
ENDBRANCH   3   2
ENDBRANCH   4   3
ENDBRANCH   7   5
BRANCH  11  12
ATOM     12  C   UNL     1      -3.485   3.085  25.173  0.00  0.00    +0.170 C 
BRANCH  12  13
ATOM     13  C   UNL     1      -2.925   3.687  25.229  0.00  0.00    +0.144 A 
ATOM     14  N   UNL     1      -2.343   3.861  24.670  0.00  0.00    -0.227 NA
ATOM     15  C   UNL     1      -1.906   4.503  24.949  0.00  0.00    +0.119 A 
ATOM     16  C   UNL     1      -2.218   4.726  25.679  0.00  0.00    +0.098 A 
ATOM     17  N   UNL     1      -2.848   4.222  25.852  0.00  0.00    -0.310 N 
ATOM     18  C   UNL     1      -3.318   4.248  26.529  0.00  0.00    +0.132 C 
ENDBRANCH  12  13
ENDBRANCH  11  12
BRANCH  25  26
ATOM     26  C   UNL     1      -3.631  -1.137  24.434  0.00  0.00    +0.022 C 
BRANCH  26  27
ATOM     27  C   UNL     1      -3.389  -1.864  24.742  0.00  0.00    +0.002 C 
ATOM     28  C   UNL     1      -3.127  -2.460  24.235  0.00  0.00    +0.000 C 
ATOM     29  C   UNL     1      -3.409  -1.993  25.557  0.00  0.00    +0.000 C 
ENDBRANCH  26  27
ENDBRANCH  25  26
TORSDOF 7
ENDMDL
MODEL 4
REMARK VINA RESULT:     -10.6      1.221      4.303
REMARK  Name = 
REMARK  7 active torsions:
REMARK  status: ('A' for Active; 'I' for Inactive)
REMARK    1  A    between atoms: C_2  and  C_3
REMARK    2  A    between atoms: C_3  and  N_4
REMARK    3  A    between atoms: C_5  and  C_7
REMARK    4  A    between atoms: N_11  and  C_12
REMARK    5  A    between atoms: C_12  and  C_13
REMARK    6  A    between atoms: C_25  and  C_26
REMARK    7  A    between atoms: C_26  and  C_27
REMARK                            x       y       z     vdW  Elec       q    Type
REMARK                         _______ _______ _______ _____ _____    ______ ____
ROOT
ATOM      7  C   UNL     1      -2.088   2.037  24.814  0.00  0.00    +0.155 C 
ATOM      8  C   UNL     1      -2.278   1.243  24.698  0.00  0.00    +0.055 C 
ATOM      9  C   UNL     1      -3.024   0.892  24.664  0.00  0.00    -0.002 A 
ATOM     10  C   UNL     1      -3.142   0.084  24.544  0.00  0.00    +0.072 A 
ATOM     11  N   UNL     1      -3.955  -0.058  24.543  0.00  0.00    -0.319 N 
ATOM     19  C   UNL     1      -4.340   0.662  24.662  0.00  0.00    +0.060 A 
ATOM     20  C   UNL     1      -3.764   1.250  24.737  0.00  0.00    +0.011 A 
ATOM     21  C   UNL     1      -3.941   2.046  24.862  0.00  0.00    -0.005 A 
ATOM     22  C   UNL     1      -4.788   2.230  24.911  0.00  0.00    -0.003 A 
ATOM     23  C   UNL     1      -5.363   1.644  24.836  0.00  0.00    +0.001 A 
ATOM     24  C   UNL     1      -5.139   0.859  24.712  0.00  0.00    +0.017 A 
ATOM     25  C   UNL     1      -3.422   2.681  24.945  0.00  0.00    +0.095 C 
ATOM     30  N   UNL     1      -2.597   2.677  24.923  0.00  0.00    -0.207 NA
ENDROOT
BRANCH   7   5
ATOM      4  N   UNL     1      -0.865   2.211  25.532  0.00  0.00    -0.204 NA
ATOM      5  C   UNL     1      -1.282   2.215  24.820  0.00  0.00    +0.258 C 
ATOM      6  O   UNL     1      -0.894   2.398  24.115  0.00  0.00    -0.272 OA
BRANCH   4   3
ATOM      3  C   UNL     1      -0.059   2.389  25.537  0.00  0.00    +0.115 C 
BRANCH   3   2
ATOM      1  C   UNL     1       0.518   2.420  26.845  0.00  0.00    +0.002 C 
ATOM      2  C   UNL     1       0.264   2.815  26.166  0.00  0.00    +0.023 C 
ENDBRANCH   3   2
ENDBRANCH   4   3
ENDBRANCH   7   5
BRANCH  11  12
ATOM     12  C   UNL     1      -4.319  -0.790  24.442  0.00  0.00    +0.170 C 
BRANCH  12  13
ATOM     13  C   UNL     1      -3.955  -1.476  24.722  0.00  0.00    +0.144 A 
ATOM     14  N   UNL     1      -3.568  -1.558  25.446  0.00  0.00    -0.227 NA
ATOM     15  C   UNL     1      -3.288  -2.332  25.498  0.00  0.00    +0.119 A 
ATOM     16  C   UNL     1      -3.501  -2.728  24.807  0.00  0.00    +0.098 A 
ATOM     17  N   UNL     1      -3.913  -2.198  24.327  0.00  0.00    -0.310 N 
ATOM     18  C   UNL     1      -4.229  -2.363  23.582  0.00  0.00    +0.132 C 
ENDBRANCH  12  13
ENDBRANCH  11  12
BRANCH  25  26
ATOM     26  C   UNL     1      -3.773   3.417  25.065  0.00  0.00    +0.022 C 
BRANCH  26  27
ATOM     27  C   UNL     1      -3.362   4.009  25.470  0.00  0.00    +0.002 C 
ATOM     28  C   UNL     1      -3.338   4.003  26.295  0.00  0.00    +0.000 C 
ATOM     29  C   UNL     1      -2.977   4.605  25.049  0.00  0.00    +0.000 C 
ENDBRANCH  26  27
ENDBRANCH  25  26
TORSDOF 7
ENDMDL
MODEL 5
REMARK VINA RESULT:     -10.3      1.937      3.731
REMARK  Name = 
REMARK  7 active torsions:
REMARK  status: ('A' for Active; 'I' for Inactive)
REMARK    1  A    between atoms: C_2  and  C_3
REMARK    2  A    between atoms: C_3  and  N_4
REMARK    3  A    between atoms: C_5  and  C_7
REMARK    4  A    between atoms: N_11  and  C_12
REMARK    5  A    between atoms: C_12  and  C_13
REMARK    6  A    between atoms: C_25  and  C_26
REMARK    7  A    between atoms: C_26  and  C_27
REMARK                            x       y       z     vdW  Elec       q    Type
REMARK                         _______ _______ _______ _____ _____    ______ ____
ROOT
ATOM      7  C   UNL     1      -3.009   2.673  24.806  0.00  0.00    +0.155 C 
ATOM      8  C   UNL     1      -2.683   1.929  24.665  0.00  0.00    +0.055 C 
ATOM      9  C   UNL     1      -1.926   1.656  24.848  0.00  0.00    -0.002 A 
ATOM     10  C   UNL     1      -1.664   0.893  24.677  0.00  0.00    +0.072 A 
ATOM     11  N   UNL     1      -0.885   0.825  24.940  0.00  0.00    -0.319 N 
ATOM     19  C   UNL     1      -0.664   1.547  25.273  0.00  0.00    +0.060 A 
ATOM     20  C   UNL     1      -1.308   2.061  25.216  0.00  0.00    +0.011 A 
ATOM     21  C   UNL     1      -1.296   2.838  25.493  0.00  0.00    -0.005 A 
ATOM     22  C   UNL     1      -0.546   3.086  25.855  0.00  0.00    -0.003 A 
ATOM     23  C   UNL     1       0.098   2.573  25.912  0.00  0.00    +0.001 A 
ATOM     24  C   UNL     1       0.038   1.803  25.621  0.00  0.00    +0.017 A 
ATOM     25  C   UNL     1      -1.896   3.402  25.470  0.00  0.00    +0.095 C 
ATOM     30  N   UNL     1      -2.659   3.329  25.164  0.00  0.00    -0.207 NA
ENDROOT
BRANCH   7   5
ATOM      4  N   UNL     1      -4.412   2.555  25.047  0.00  0.00    -0.204 NA
ATOM      5  C   UNL     1      -3.789   2.776  24.555  0.00  0.00    +0.258 C 
ATOM      6  O   UNL     1      -3.943   3.100  23.812  0.00  0.00    -0.272 OA
BRANCH   4   3
ATOM      3  C   UNL     1      -5.191   2.658  24.796  0.00  0.00    +0.115 C 
BRANCH   3   2
ATOM      1  C   UNL     1      -6.328   1.903  25.222  0.00  0.00    +0.002 C 
ATOM      2  C   UNL     1      -5.814   2.541  25.325  0.00  0.00    +0.023 C 
ENDBRANCH   3   2
ENDBRANCH   4   3
ENDBRANCH   7   5
BRANCH  11  12
ATOM     12  C   UNL     1      -0.409   0.154  24.880  0.00  0.00    +0.170 C 
BRANCH  12  13
ATOM     13  C   UNL     1      -0.740  -0.596  24.965  0.00  0.00    +0.144 A 
ATOM     14  N   UNL     1      -1.271  -0.828  25.552  0.00  0.00    -0.227 NA
ATOM     15  C   UNL     1      -1.458  -1.622  25.427  0.00  0.00    +0.119 A 
ATOM     16  C   UNL     1      -1.042  -1.881  24.764  0.00  0.00    +0.098 A 
ATOM     17  N   UNL     1      -0.598  -1.247  24.478  0.00  0.00    -0.310 N 
ATOM     18  C   UNL     1      -0.100  -1.261  23.820  0.00  0.00    +0.132 C 
ENDBRANCH  12  13
ENDBRANCH  11  12
BRANCH  25  26
ATOM     26  C   UNL     1      -1.711   4.137  25.795  0.00  0.00    +0.022 C 
BRANCH  26  27
ATOM     27  C   UNL     1      -1.920   4.829  25.396  0.00  0.00    +0.002 C 
ATOM     28  C   UNL     1      -2.597   5.245  25.621  0.00  0.00    +0.000 C 
ATOM     29  C   UNL     1      -1.453   5.104  24.775  0.00  0.00    +0.000 C 
ENDBRANCH  26  27
ENDBRANCH  25  26
TORSDOF 7
ENDMDL
MODEL 6
REMARK VINA RESULT:     -10.1      1.665      4.354
REMARK  Name = 
REMARK  7 active torsions:
REMARK  status: ('A' for Active; 'I' for Inactive)
REMARK    1  A    between atoms: C_2  and  C_3
REMARK    2  A    between atoms: C_3  and  N_4
REMARK    3  A    between atoms: C_5  and  C_7
REMARK    4  A    between atoms: N_11  and  C_12
REMARK    5  A    between atoms: C_12  and  C_13
REMARK    6  A    between atoms: C_25  and  C_26
REMARK    7  A    between atoms: C_26  and  C_27
REMARK                            x       y       z     vdW  Elec       q    Type
REMARK                         _______ _______ _______ _____ _____    ______ ____
ROOT
ATOM      7  C   UNL     1      -3.090   2.734  24.790  0.00  0.00    +0.155 C 
ATOM      8  C   UNL     1      -3.119   1.914  24.706  0.00  0.00    +0.055 C 
ATOM      9  C   UNL     1      -2.525   1.360  24.850  0.00  0.00    -0.002 A 
ATOM     10  C   UNL     1      -2.624   0.548  24.744  0.00  0.00    +0.072 A 
ATOM     11  N   UNL     1      -1.915   0.176  24.943  0.00  0.00    -0.319 N 
ATOM     19  C   UNL     1      -1.377   0.758  25.172  0.00  0.00    +0.060 A 
ATOM     20  C   UNL     1      -1.754   1.490  25.115  0.00  0.00    +0.011 A 
ATOM     21  C   UNL     1      -1.388   2.206  25.300  0.00  0.00    -0.005 A 
ATOM     22  C   UNL     1      -0.563   2.138  25.564  0.00  0.00    -0.003 A 
ATOM     23  C   UNL     1      -0.186   1.407  25.621  0.00  0.00    +0.001 A 
ATOM     24  C   UNL     1      -0.594   0.717  25.425  0.00  0.00    +0.017 A 
ATOM     25  C   UNL     1      -1.701   2.968  25.266  0.00  0.00    +0.095 C 
ATOM     30  N   UNL     1      -2.458   3.203  25.039  0.00  0.00    -0.207 NA
ENDROOT
BRANCH   7   5
ATOM      4  N   UNL     1      -4.327   3.326  25.190  0.00  0.00    -0.204 NA
ATOM      5  C   UNL     1      -3.783   3.139  24.599  0.00  0.00    +0.258 C 
ATOM      6  O   UNL     1      -3.931   3.357  23.817  0.00  0.00    -0.272 OA
BRANCH   4   3
ATOM      3  C   UNL     1      -5.020   3.731  24.998  0.00  0.00    +0.115 C 
BRANCH   3   2
ATOM      1  C   UNL     1      -6.036   4.522  25.619  0.00  0.00    +0.002 C 
ATOM      2  C   UNL     1      -5.619   3.812  25.560  0.00  0.00    +0.023 C 
ENDBRANCH   3   2
ENDBRANCH   4   3
ENDBRANCH   7   5
BRANCH  11  12
ATOM     12  C   UNL     1      -1.769  -0.635  24.917  0.00  0.00    +0.170 C 
BRANCH  12  13
ATOM     13  C   UNL     1      -2.374  -1.170  25.086  0.00  0.00    +0.144 A 
ATOM     14  N   UNL     1      -3.016  -1.034  25.587  0.00  0.00    -0.227 NA
ATOM     15  C   UNL     1      -3.482  -1.714  25.594  0.00  0.00    +0.119 A 
ATOM     16  C   UNL     1      -3.130  -2.270  25.096  0.00  0.00    +0.098 A 
ATOM     17  N   UNL     1      -2.445  -1.933  24.783  0.00  0.00    -0.310 N 
ATOM     18  C   UNL     1      -1.923  -2.297  24.257  0.00  0.00    +0.132 C 
ENDBRANCH  12  13
ENDBRANCH  11  12
BRANCH  25  26
ATOM     26  C   UNL     1      -1.190   3.576  25.489  0.00  0.00    +0.022 C 
BRANCH  26  27
ATOM     27  C   UNL     1      -1.176   4.281  25.060  0.00  0.00    +0.002 C 
ATOM     28  C   UNL     1      -0.791   4.313  24.331  0.00  0.00    +0.000 C 
ATOM     29  C   UNL     1      -1.548   4.953  25.361  0.00  0.00    +0.000 C 
ENDBRANCH  26  27
ENDBRANCH  25  26
TORSDOF 7
ENDMDL
MODEL 7
REMARK VINA RESULT:      -9.5      1.660      3.551
REMARK  Name = 
REMARK  7 active torsions:
REMARK  status: ('A' for Active; 'I' for Inactive)
REMARK    1  A    between atoms: C_2  and  C_3
REMARK    2  A    between atoms: C_3  and  N_4
REMARK    3  A    between atoms: C_5  and  C_7
REMARK    4  A    between atoms: N_11  and  C_12
REMARK    5  A    between atoms: C_12  and  C_13
REMARK    6  A    between atoms: C_25  and  C_26
REMARK    7  A    between atoms: C_26  and  C_27
REMARK                            x       y       z     vdW  Elec       q    Type
REMARK                         _______ _______ _______ _____ _____    ______ ____
ROOT
ATOM      7  C   UNL     1      -2.787  -0.397  25.125  0.00  0.00    +0.155 C 
ATOM      8  C   UNL     1      -3.175   0.325  25.037  0.00  0.00    +0.055 C 
ATOM      9  C   UNL     1      -2.852   1.084  25.006  0.00  0.00    -0.002 A 
ATOM     10  C   UNL     1      -3.303   1.768  24.916  0.00  0.00    +0.072 A 
ATOM     11  N   UNL     1      -2.790   2.414  24.910  0.00  0.00    -0.319 N 
ATOM     19  C   UNL     1      -2.021   2.129  24.996  0.00  0.00    +0.060 A 
ATOM     20  C   UNL     1      -2.058   1.307  25.056  0.00  0.00    +0.011 A 
ATOM     21  C   UNL     1      -1.394   0.826  25.149  0.00  0.00    -0.005 A 
ATOM     22  C   UNL     1      -0.637   1.250  25.180  0.00  0.00    -0.003 A 
ATOM     23  C   UNL     1      -0.598   2.072  25.121  0.00  0.00    +0.001 A 
ATOM     24  C   UNL     1      -1.291   2.511  25.029  0.00  0.00    +0.017 A 
ATOM     25  C   UNL     1      -1.358   0.005  25.215  0.00  0.00    +0.095 C 
ATOM     30  N   UNL     1      -1.978  -0.539  25.204  0.00  0.00    -0.207 NA
ENDROOT
BRANCH   7   5
ATOM      4  N   UNL     1      -3.484  -1.430  24.427  0.00  0.00    -0.204 NA
ATOM      5  C   UNL     1      -3.270  -1.065  25.135  0.00  0.00    +0.258 C 
ATOM      6  O   UNL     1      -3.540  -1.368  25.855  0.00  0.00    -0.272 OA
BRANCH   4   3
ATOM      3  C   UNL     1      -3.968  -2.099  24.439  0.00  0.00    +0.115 C 
BRANCH   3   2
ATOM      1  C   UNL     1      -4.251  -3.234  23.616  0.00  0.00    +0.002 C 
ATOM      2  C   UNL     1      -4.249  -2.416  23.731  0.00  0.00    +0.023 C 
ENDBRANCH   3   2
ENDBRANCH   4   3
ENDBRANCH   7   5
BRANCH  11  12
ATOM     12  C   UNL     1      -3.007   3.206  24.831  0.00  0.00    +0.170 C 
BRANCH  12  13
ATOM     13  C   UNL     1      -3.743   3.461  25.102  0.00  0.00    +0.144 A 
ATOM     14  N   UNL     1      -4.049   3.342  25.860  0.00  0.00    -0.227 NA
ATOM     15  C   UNL     1      -4.796   3.688  25.890  0.00  0.00    +0.119 A 
ATOM     16  C   UNL     1      -4.953   4.022  25.152  0.00  0.00    +0.098 A 
ATOM     17  N   UNL     1      -4.302   3.881  24.665  0.00  0.00    -0.310 N 
ATOM     18  C   UNL     1      -4.224   4.120  23.879  0.00  0.00    +0.132 C 
ENDBRANCH  12  13
ENDBRANCH  11  12
BRANCH  25  26
ATOM     26  C   UNL     1      -0.603  -0.314  25.303  0.00  0.00    +0.022 C 
BRANCH  26  27
ATOM     27  C   UNL     1      -0.412  -1.028  24.934  0.00  0.00    +0.002 C 
ATOM     28  C   UNL     1      -0.250  -1.044  24.125  0.00  0.00    +0.000 C 
ATOM     29  C   UNL     1      -0.382  -1.725  25.375  0.00  0.00    +0.000 C 
ENDBRANCH  26  27
ENDBRANCH  25  26
TORSDOF 7
ENDMDL
MODEL 8
REMARK VINA RESULT:      -9.4      1.739      4.816
REMARK  Name = 
REMARK  7 active torsions:
REMARK  status: ('A' for Active; 'I' for Inactive)
REMARK    1  A    between atoms: C_2  and  C_3
REMARK    2  A    between atoms: C_3  and  N_4
REMARK    3  A    between atoms: C_5  and  C_7
REMARK    4  A    between atoms: N_11  and  C_12
REMARK    5  A    between atoms: C_12  and  C_13
REMARK    6  A    between atoms: C_25  and  C_26
REMARK    7  A    between atoms: C_26  and  C_27
REMARK                            x       y       z     vdW  Elec       q    Type
REMARK                         _______ _______ _______ _____ _____    ______ ____
ROOT
ATOM      7  C   UNL     1      -1.545   1.003  24.662  0.00  0.00    +0.155 C 
ATOM      8  C   UNL     1      -2.258   1.410  24.737  0.00  0.00    +0.055 C 
ATOM      9  C   UNL     1      -3.026   1.108  24.732  0.00  0.00    -0.002 A 
ATOM     10  C   UNL     1      -3.699   1.577  24.813  0.00  0.00    +0.072 A 
ATOM     11  N   UNL     1      -4.360   1.084  24.782  0.00  0.00    -0.319 N 
ATOM     19  C   UNL     1      -4.095   0.309  24.683  0.00  0.00    +0.060 A 
ATOM     20  C   UNL     1      -3.270   0.324  24.652  0.00  0.00    +0.011 A 
ATOM     21  C   UNL     1      -2.806  -0.352  24.556  0.00  0.00    -0.005 A 
ATOM     22  C   UNL     1      -3.250  -1.095  24.488  0.00  0.00    -0.003 A 
ATOM     23  C   UNL     1      -4.074  -1.111  24.519  0.00  0.00    +0.001 A 
ATOM     24  C   UNL     1      -4.496  -0.408  24.616  0.00  0.00    +0.017 A 
ATOM     25  C   UNL     1      -1.985  -0.410  24.517  0.00  0.00    +0.095 C 
ATOM     30  N   UNL     1      -1.423   0.192  24.564  0.00  0.00    -0.207 NA
ENDROOT
BRANCH   7   5
ATOM      4  N   UNL     1      -0.590   1.758  25.410  0.00  0.00    -0.204 NA
ATOM      5  C   UNL     1      -0.862   1.466  24.689  0.00  0.00    +0.258 C 
ATOM      6  O   UNL     1      -0.454   1.638  23.992  0.00  0.00    -0.272 OA
BRANCH   4   3
ATOM      3  C   UNL     1       0.092   2.221  25.436  0.00  0.00    +0.115 C 
BRANCH   3   2
ATOM      1  C   UNL     1       0.155   2.871  26.708  0.00  0.00    +0.002 C 
ATOM      2  C   UNL     1       0.477   2.350  26.154  0.00  0.00    +0.023 C 
ENDBRANCH   3   2
ENDBRANCH   4   3
ENDBRANCH   7   5
BRANCH  11  12
ATOM     12  C   UNL     1      -5.147   1.322  24.840  0.00  0.00    +0.170 C 
BRANCH  12  13
ATOM     13  C   UNL     1      -5.330   2.083  25.100  0.00  0.00    +0.144 A 
ATOM     14  N   UNL     1      -4.998   2.785  24.821  0.00  0.00    -0.227 NA
ATOM     15  C   UNL     1      -5.340   3.411  25.233  0.00  0.00    +0.119 A 
ATOM     16  C   UNL     1      -5.884   3.097  25.768  0.00  0.00    +0.098 A 
ATOM     17  N   UNL     1      -5.878   2.277  25.686  0.00  0.00    -0.310 N 
ATOM     18  C   UNL     1      -6.339   1.743  26.115  0.00  0.00    +0.132 C 
ENDBRANCH  12  13
ENDBRANCH  11  12
BRANCH  25  26
ATOM     26  C   UNL     1      -1.684  -1.172  24.418  0.00  0.00    +0.022 C 
BRANCH  26  27
ATOM     27  C   UNL     1      -0.952  -1.372  24.744  0.00  0.00    +0.002 C 
ATOM     28  C   UNL     1      -0.894  -1.549  25.549  0.00  0.00    +0.000 C 
ATOM     29  C   UNL     1      -0.280  -1.396  24.267  0.00  0.00    +0.000 C 
ENDBRANCH  26  27
ENDBRANCH  25  26
TORSDOF 7
ENDMDL
MODEL 9
REMARK VINA RESULT:      -9.0      1.595      4.169
REMARK  Name = 
REMARK  7 active torsions:
REMARK  status: ('A' for Active; 'I' for Inactive)
REMARK    1  A    between atoms: C_2  and  C_3
REMARK    2  A    between atoms: C_3  and  N_4
REMARK    3  A    between atoms: C_5  and  C_7
REMARK    4  A    between atoms: N_11  and  C_12
REMARK    5  A    between atoms: C_12  and  C_13
REMARK    6  A    between atoms: C_25  and  C_26
REMARK    7  A    between atoms: C_26  and  C_27
REMARK                            x       y       z     vdW  Elec       q    Type
REMARK                         _______ _______ _______ _____ _____    ______ ____
ROOT
ATOM      7  C   UNL     1      -1.503   1.315  24.622  0.00  0.00    +0.155 C 
ATOM      8  C   UNL     1      -2.314   1.407  24.506  0.00  0.00    +0.055 C 
ATOM      9  C   UNL     1      -2.793   2.049  24.702  0.00  0.00    -0.002 A 
ATOM     10  C   UNL     1      -3.605   2.073  24.556  0.00  0.00    +0.072 A 
ATOM     11  N   UNL     1      -3.892   2.798  24.826  0.00  0.00    -0.319 N 
ATOM     19  C   UNL     1      -3.257   3.222  25.140  0.00  0.00    +0.060 A 
ATOM     20  C   UNL     1      -2.578   2.759  25.063  0.00  0.00    +0.011 A 
ATOM     21  C   UNL     1      -1.831   3.002  25.317  0.00  0.00    -0.005 A 
ATOM     22  C   UNL     1      -1.805   3.791  25.678  0.00  0.00    -0.003 A 
ATOM     23  C   UNL     1      -2.484   4.255  25.754  0.00  0.00    +0.001 A 
ATOM     24  C   UNL     1      -3.210   3.969  25.485  0.00  0.00    +0.017 A 
ATOM     25  C   UNL     1      -1.116   2.595  25.273  0.00  0.00    +0.095 C 
ATOM     30  N   UNL     1      -0.969   1.844  24.963  0.00  0.00    -0.207 NA
ENDROOT
BRANCH   7   5
ATOM      4  N   UNL     1      -1.277  -0.082  24.815  0.00  0.00    -0.204 NA
ATOM      5  C   UNL     1      -1.182   0.600  24.363  0.00  0.00    +0.258 C 
ATOM      6  O   UNL     1      -0.766   0.570  23.650  0.00  0.00    -0.272 OA
BRANCH   4   3
ATOM      3  C   UNL     1      -0.955  -0.797  24.555  0.00  0.00    +0.115 C 
BRANCH   3   2
ATOM      1  C   UNL     1      -1.293  -2.155  24.848  0.00  0.00    +0.002 C 
ATOM      2  C   UNL     1      -0.929  -1.446  25.063  0.00  0.00    +0.023 C 
ENDBRANCH   3   2
ENDBRANCH   4   3
ENDBRANCH   7   5
BRANCH  11  12
ATOM     12  C   UNL     1      -4.675   3.054  24.789  0.00  0.00    +0.170 C 
BRANCH  12  13
ATOM     13  C   UNL     1      -5.289   2.532  24.964  0.00  0.00    +0.144 A 
ATOM     14  N   UNL     1      -5.351   1.751  24.703  0.00  0.00    -0.227 NA
ATOM     15  C   UNL     1      -6.049   1.436  25.007  0.00  0.00    +0.119 A 
ATOM     16  C   UNL     1      -6.419   2.020  25.457  0.00  0.00    +0.098 A 
ATOM     17  N   UNL     1      -5.949   2.698  25.430  0.00  0.00    -0.310 N 
ATOM     18  C   UNL     1      -6.111   3.416  25.803  0.00  0.00    +0.132 C 
ENDBRANCH  12  13
ENDBRANCH  11  12
BRANCH  25  26
ATOM     26  C   UNL     1      -0.459   2.990  25.578  0.00  0.00    +0.022 C 
BRANCH  26  27
ATOM     27  C   UNL     1       0.141   2.564  25.952  0.00  0.00    +0.002 C 
ATOM     28  C   UNL     1       0.827   2.368  25.537  0.00  0.00    +0.000 C 
ATOM     29  C   UNL     1       0.055   2.336  26.740  0.00  0.00    +0.000 C 
ENDBRANCH  26  27
ENDBRANCH  25  26
TORSDOF 7
ENDMDL
MODEL 10
REMARK VINA RESULT:      -8.9      2.410      4.073
REMARK  Name = 
REMARK  7 active torsions:
REMARK  status: ('A' for Active; 'I' for Inactive)
REMARK    1  A    between atoms: C_2  and  C_3
REMARK    2  A    between atoms: C_3  and  N_4
REMARK    3  A    between atoms: C_5  and  C_7
REMARK    4  A    between atoms: N_11  and  C_12
REMARK    5  A    between atoms: C_12  and  C_13
REMARK    6  A    between atoms: C_25  and  C_26
REMARK    7  A    between atoms: C_26  and  C_27
REMARK                            x       y       z     vdW  Elec       q    Type
REMARK                         _______ _______ _______ _____ _____    ______ ____
ROOT
ATOM      7  C   UNL     1      -2.408   1.171  24.011  0.00  0.00    +0.155 C 
ATOM      8  C   UNL     1      -1.618   1.164  23.773  0.00  0.00    +0.055 C 
ATOM      9  C   UNL     1      -1.044   0.588  23.912  0.00  0.00    -0.002 A 
ATOM     10  C   UNL     1      -0.267   0.647  23.642  0.00  0.00    +0.072 A 
ATOM     11  N   UNL     1       0.140  -0.028  23.886  0.00  0.00    -0.319 N 
ATOM     19  C   UNL     1      -0.386  -0.504  24.307  0.00  0.00    +0.060 A 
ATOM     20  C   UNL     1      -1.118  -0.123  24.323  0.00  0.00    +0.011 A 
ATOM     21  C   UNL     1      -1.785  -0.434  24.697  0.00  0.00    -0.005 A 
ATOM     22  C   UNL     1      -1.664  -1.204  25.080  0.00  0.00    -0.003 A 
ATOM     23  C   UNL     1      -0.933  -1.586  25.065  0.00  0.00    +0.001 A 
ATOM     24  C   UNL     1      -0.293  -1.235  24.678  0.00  0.00    +0.017 A 
ATOM     25  C   UNL     1      -2.541  -0.111  24.752  0.00  0.00    +0.095 C 
ATOM     30  N   UNL     1      -2.819   0.603  24.447  0.00  0.00    -0.207 NA
ENDROOT
BRANCH   7   5
ATOM      4  N   UNL     1      -2.988   2.439  24.325  0.00  0.00    -0.204 NA
ATOM      5  C   UNL     1      -2.845   1.833  23.784  0.00  0.00    +0.258 C 
ATOM      6  O   UNL     1      -3.140   1.888  23.015  0.00  0.00    -0.272 OA
BRANCH   4   3
ATOM      3  C   UNL     1      -3.425   3.100  24.097  0.00  0.00    +0.115 C 
BRANCH   3   2
ATOM      1  C   UNL     1      -4.323   4.023  24.718  0.00  0.00    +0.002 C 
ATOM      2  C   UNL     1      -3.565   3.708  24.636  0.00  0.00    +0.023 C 
ENDBRANCH   3   2
ENDBRANCH   4   3
ENDBRANCH   7   5
BRANCH  11  12
ATOM     12  C   UNL     1       0.933  -0.198  23.736  0.00  0.00    +0.170 C 
BRANCH  12  13
ATOM     13  C   UNL     1       1.217  -0.195  22.961  0.00  0.00    +0.144 A 
ATOM     14  N   UNL     1       0.812  -0.468  22.296  0.00  0.00    -0.227 NA
ATOM     15  C   UNL     1       1.300  -0.361  21.640  0.00  0.00    +0.119 A 
ATOM     16  C   UNL     1       2.006  -0.022  21.899  0.00  0.00    +0.098 A 
ATOM     17  N   UNL     1       1.954   0.080  22.716  0.00  0.00    -0.310 N 
ATOM     18  C   UNL     1       2.539   0.401  23.202  0.00  0.00    +0.132 C 
ENDBRANCH  12  13
ENDBRANCH  11  12
BRANCH  25  26
ATOM     26  C   UNL     1      -3.093  -0.562  25.167  0.00  0.00    +0.022 C 
BRANCH  26  27
ATOM     27  C   UNL     1      -3.883  -0.570  24.926  0.00  0.00    +0.002 C 
ATOM     28  C   UNL     1      -4.111  -1.023  24.275  0.00  0.00    +0.000 C 
ATOM     29  C   UNL     1      -4.444  -0.126  25.337  0.00  0.00    +0.000 C 
ENDBRANCH  26  27
ENDBRANCH  25  26
TORSDOF 7
ENDMDL
