REMARK  Name = 
REMARK  4 active torsions:
REMARK  status: ('A' for Active; 'I' for Inactive)
REMARK    1  A    between atoms: O_2  and  C_3
REMARK    2  A    between atoms: C_6  and  C_9
REMARK    3  A    between atoms: C_11  and  C_12
REMARK    4  A    between atoms: C_12  and  C_13
REMARK                            x       y       z     vdW  Elec       q    Type
REMARK                         _______ _______ _______ _____ _____    ______ ____
ROOT
ATOM      9  C   UNL     1       3.203   6.894   0.000  0.00  0.00    +0.177 A 
ATOM     10  C   UNL     1       3.031   6.087   0.000  0.00  0.00    +0.058 A 
ATOM     11  C   UNL     1       2.211   6.001   0.000  0.00  0.00    +0.101 A 
ATOM     20  N   UNL     1       1.875   6.754   0.000  0.00  0.00    -0.081 NA
ATOM     21  O   UNL     1       2.488   7.306   0.000  0.00  0.00    -0.354 OA
ENDROOT
BRANCH   9   6
ATOM      3  C   UNL     1       5.464   7.900   0.000  0.00  0.00    +0.139 A 
ATOM      4  C   UNL     1       5.378   7.080   0.000  0.00  0.00    +0.037 A 
ATOM      5  C   UNL     1       4.624   6.744   0.000  0.00  0.00    +0.006 A 
ATOM      6  C   UNL     1       3.956   7.229   0.000  0.00  0.00    +0.037 A 
ATOM      7  C   UNL     1       4.043   8.050   0.000  0.00  0.00    +0.006 A 
ATOM      8  C   UNL     1       4.796   8.385   0.000  0.00  0.00    +0.037 A 
BRANCH   3   2
ATOM      1  C   UNL     1       6.304   9.056   0.000  0.00  0.00    +0.252 C 
ATOM      2  O   UNL     1       6.218   8.236   0.000  0.00  0.00    -0.471 OA
ENDBRANCH   3   2
ENDBRANCH   9   6
BRANCH  11  12
ATOM     12  C   UNL     1       1.798   5.286   0.000  0.00  0.00    +0.049 C 
BRANCH  12  13
ATOM     13  C   UNL     1       0.973   5.286   0.000  0.00  0.00    +0.009 C 
ATOM     14  C   UNL     1       0.390   4.703   0.000  0.00  0.00    +0.019 C 
ATOM     15  C   UNL     1      -0.194   5.286   0.000  0.00  0.00    +0.092 C 
ATOM     16  N   UNL     1      -1.018   5.286   0.000  0.00  0.00    -0.133 NA
ATOM     17  C   UNL     1       0.390   5.870   0.000  0.00  0.00    +0.017 C 
ATOM     18  C   UNL     1      -0.041   6.573   0.000  0.00  0.00    +0.001 C 
ATOM     19  C   UNL     1       0.821   6.573   0.000  0.00  0.00    +0.001 C 
ENDBRANCH  12  13
ENDBRANCH  11  12
TORSDOF 4
