REMARK  Name = 
REMARK  10 active torsions:
REMARK  status: ('A' for Active; 'I' for Inactive)
REMARK    1  A    between atoms: O_2  and  C_3
REMARK    2  A    between atoms: C_5  and  N_6
REMARK    3  A    between atoms: N_9  and  C_10
REMARK    4  A    between atoms: C_10  and  C_11
REMARK    5  A    between atoms: C_15  and  C_16
REMARK    6  A    between atoms: C_16  and  C_17
REMARK    7  A    between atoms: N_19  and  C_20
REMARK    8  A    between atoms: C_20  and  C_21
REMARK    9  A    between atoms: C_24  and  C_27
REMARK   10  A    between atoms: C_30  and  C_31
REMARK                            x       y       z     vdW  Elec       q    Type
REMARK                         _______ _______ _______ _____ _____    ______ ____
ROOT
ATOM     11  C   UNL     1      -1.429  -1.650   0.000  0.00  0.00    +0.043 C 
ATOM     12  C   UNL     1      -0.715  -1.238   0.000  0.00  0.00    -0.033 C 
ATOM     13  C   UNL     1       0.000  -1.650   0.000  0.00  0.00    -0.048 C 
ATOM     14  C   UNL     1       0.715  -1.238   0.000  0.00  0.00    +0.026 C 
ATOM     15  C   UNL     1       0.000  -2.475   0.000  0.00  0.00    +0.027 C 
ATOM     29  C   UNL     1      -0.715  -2.888   0.000  0.00  0.00    +0.005 C 
ATOM     30  C   UNL     1      -1.429  -2.475   0.000  0.00  0.00    +0.006 C 
ENDROOT
BRANCH  30  31
ATOM     31  C   UNL     1      -2.143  -2.888   0.000  0.00  0.00    +0.000 C 
ATOM     32  C   UNL     1      -2.858  -2.475   0.000  0.00  0.00    +0.000 C 
ATOM     33  C   UNL     1      -2.143  -3.712   0.000  0.00  0.00    +0.000 C 
ENDBRANCH  30  31
BRANCH  11  10
ATOM     10  C   UNL     1      -2.143  -1.238   0.000  0.00  0.00    +0.121 C 
BRANCH  10   9
ATOM      6  N   UNL     1      -4.287  -1.650   0.000  0.00  0.00    -0.161 NA
ATOM      7  C   UNL     1      -3.572  -1.238   0.000  0.00  0.00    +0.344 C 
ATOM      8  O   UNL     1      -3.572  -0.412   0.000  0.00  0.00    -0.249 OA
ATOM      9  N   UNL     1      -2.858  -1.650   0.000  0.00  0.00    -0.187 NA
BRANCH   6   5
ATOM      3  C   UNL     1      -5.716   0.000   0.000  0.00  0.00    +0.140 A 
ATOM      4  C   UNL     1      -5.001  -0.412   0.000  0.00  0.00    +0.054 A 
ATOM      5  C   UNL     1      -5.001  -1.238   0.000  0.00  0.00    +0.078 A 
ATOM     34  C   UNL     1      -5.716  -1.650   0.000  0.00  0.00    +0.017 A 
ATOM     35  C   UNL     1      -6.430  -1.238   0.000  0.00  0.00    +0.004 A 
ATOM     36  C   UNL     1      -6.430  -0.412   0.000  0.00  0.00    +0.037 A 
BRANCH   3   2
ATOM      1  C   UNL     1      -6.430   1.238   0.000  0.00  0.00    +0.252 C 
ATOM      2  O   UNL     1      -5.716   0.825   0.000  0.00  0.00    -0.471 OA
ENDBRANCH   3   2
ENDBRANCH   6   5
ENDBRANCH  10   9
ENDBRANCH  11  10
BRANCH  15  16
ATOM     16  C   UNL     1       0.715  -2.888   0.000  0.00  0.00    +0.091 C 
BRANCH  16  17
ATOM     17  C   UNL     1       1.429  -2.475   0.000  0.00  0.00    +0.242 C 
ATOM     18  O   UNL     1       1.429  -1.650   0.000  0.00  0.00    -0.273 OA
ATOM     19  N   UNL     1       2.143  -2.888   0.000  0.00  0.00    -0.201 NA
BRANCH  19  20
ATOM     20  C   UNL     1       2.858  -2.475   0.000  0.00  0.00    +0.141 C 
BRANCH  20  21
ATOM     21  C   UNL     1       3.572  -2.888   0.000  0.00  0.00    -0.001 A 
ATOM     22  C   UNL     1       4.287  -2.475   0.000  0.00  0.00    -0.002 A 
ATOM     23  C   UNL     1       5.001  -2.888   0.000  0.00  0.00    +0.010 A 
ATOM     24  C   UNL     1       5.001  -3.712   0.000  0.00  0.00    +0.068 A 
ATOM     25  C   UNL     1       4.287  -4.125   0.000  0.00  0.00    +0.010 A 
ATOM     26  C   UNL     1       3.572  -3.712   0.000  0.00  0.00    -0.002 A 
BRANCH  24  27
ATOM     27  C   UNL     1       5.716  -4.125   0.000  0.00  0.00    +0.100 C 
ATOM     28  N   UNL     1       6.430  -4.537   0.000  0.00  0.00    -0.191 NA
ENDBRANCH  24  27
ENDBRANCH  20  21
ENDBRANCH  19  20
ENDBRANCH  16  17
ENDBRANCH  15  16
TORSDOF 10
