REMARK  Name = 
REMARK  3 active torsions:
REMARK  status: ('A' for Active; 'I' for Inactive)
REMARK    1  A    between atoms: C_7  and  C_8
REMARK    2  A    between atoms: C_11  and  C_13
REMARK    3  A    between atoms: C_18  and  C_20
REMARK                            x       y       z     vdW  Elec       q    Type
REMARK                         _______ _______ _______ _____ _____    ______ ____
ROOT
ATOM     13  C   UNL     1       3.356  -3.003   0.000  0.00  0.00    +0.100 C 
ATOM     14  C   UNL     1       3.611  -3.788   0.000  0.00  0.00    +0.033 C 
ATOM     15  C   UNL     1       2.943  -4.273   0.000  0.00  0.00    +0.094 C 
ATOM     16  N   UNL     1       2.276  -3.788   0.000  0.00  0.00    -0.276 N 
ATOM     17  C   UNL     1       2.531  -3.003   0.000  0.00  0.00    +0.103 C 
ATOM     18  C   UNL     1       1.491  -4.043   0.000  0.00  0.00    +0.249 C 
ATOM     19  O   UNL     1       1.320  -4.850   0.000  0.00  0.00    -0.270 OA
ENDROOT
BRANCH  18  20
ATOM     20  C   UNL     1       0.878  -3.491   0.000  0.00  0.00    +0.054 A 
ATOM     21  C   UNL     1       0.093  -3.746   0.000  0.00  0.00    +0.005 A 
ATOM     22  C   UNL     1      -0.520  -3.194   0.000  0.00  0.00    +0.000 A 
ATOM     23  C   UNL     1      -0.348  -2.387   0.000  0.00  0.00    +0.000 A 
ATOM     24  C   UNL     1       0.436  -2.132   0.000  0.00  0.00    +0.000 A 
ATOM     25  C   UNL     1       1.050  -2.684   0.000  0.00  0.00    +0.005 A 
ENDBRANCH  18  20
BRANCH  13  11
ATOM      8  C   UNL     1       4.253  -1.066   0.000  0.00  0.00    +0.252 A 
ATOM      9  N   UNL     1       4.920  -1.551   0.000  0.00  0.00    -0.107 NA
ATOM     10  N   UNL     1       4.666  -2.336   0.000  0.00  0.00    -0.111 NA
ATOM     11  C   UNL     1       3.841  -2.336   0.000  0.00  0.00    +0.228 A 
ATOM     12  O   UNL     1       3.586  -1.551   0.000  0.00  0.00    -0.419 OA
BRANCH   8   7
ATOM      1  F   UNL     1       2.824  -0.241   0.000  0.00  0.00    -0.204 F 
ATOM      2  C   UNL     1       3.539   0.171   0.000  0.00  0.00    +0.145 A 
ATOM      3  C   UNL     1       3.539   0.996   0.000  0.00  0.00    +0.030 A 
ATOM      4  C   UNL     1       4.253   1.409   0.000  0.00  0.00    +0.002 A 
ATOM      5  C   UNL     1       4.968   0.996   0.000  0.00  0.00    +0.000 A 
ATOM      6  C   UNL     1       4.968   0.171   0.000  0.00  0.00    +0.007 A 
ATOM      7  C   UNL     1       4.253  -0.241   0.000  0.00  0.00    +0.083 A 
ENDBRANCH   8   7
ENDBRANCH  13  11
TORSDOF 3
