MODEL 1
REMARK VINA RESULT:     -11.7      0.000      0.000
REMARK  Name = 
REMARK  5 active torsions:
REMARK  status: ('A' for Active; 'I' for Inactive)
REMARK    1  A    between atoms: C_4  and  C_25
REMARK    2  A    between atoms: C_6  and  C_7
REMARK    3  A    between atoms: C_14  and  C_15
REMARK    4  A    between atoms: C_15  and  N_16
REMARK    5  A    between atoms: C_17  and  C_19
REMARK                            x       y       z     vdW  Elec       q    Type
REMARK                         _______ _______ _______ _____ _____    ______ ____
ROOT
ATOM      7  C   UNL     1      -0.774   1.447  25.257  0.00  0.00    +0.056 C 
ATOM      8  C   UNL     1      -1.206   1.011  25.734  0.00  0.00    +0.078 C 
ATOM      9  N   UNL     1      -0.821   0.752  25.051  0.00  0.00    -0.272 NA
ATOM     10  C   UNL     1      -0.329   1.581  24.640  0.00  0.00    +0.072 C 
ATOM     11  C   UNL     1       0.048   1.845  24.177  0.00  0.00    +0.018 C 
ATOM     12  C   UNL     1      -0.399   1.186  24.588  0.00  0.00    +0.010 C 
ATOM     13  C   UNL     1      -0.356   0.396  24.209  0.00  0.00    +0.018 C 
ATOM     14  C   UNL     1      -0.772  -0.067  24.652  0.00  0.00    +0.079 C 
ENDROOT
BRANCH   7   6
ATOM      1  C   UNL     1       0.178   2.111  26.627  0.00  0.00    +0.153 C 
ATOM      2  N   UNL     1      -0.252   2.551  26.078  0.00  0.00    -0.253 N 
ATOM      3  N   UNL     1      -0.321   3.373  26.061  0.00  0.00    -0.166 NA
ATOM      4  C   UNL     1      -0.801   3.576  25.422  0.00  0.00    +0.136 A 
ATOM      5  C   UNL     1      -1.028   2.880  25.043  0.00  0.00    +0.038 A 
ATOM      6  C   UNL     1      -0.690   2.247  25.448  0.00  0.00    +0.058 A 
BRANCH   4  25
ATOM     25  C   UNL     1      -1.014   4.342  25.200  0.00  0.00    +0.165 A 
ATOM     26  C   UNL     1      -1.738   4.708  25.355  0.00  0.00    +0.042 A 
ATOM     27  C   UNL     1      -1.712   5.468  25.035  0.00  0.00    +0.044 A 
ATOM     28  C   UNL     1      -0.973   5.571  24.684  0.00  0.00    +0.180 A 
ATOM     29  O   UNL     1      -0.542   4.876  24.785  0.00  0.00    -0.449 OA
ENDBRANCH   4  25
ENDBRANCH   7   6
BRANCH  14  15
ATOM     15  C   UNL     1      -1.027  -0.848  24.725  0.00  0.00    +0.131 C 
BRANCH  15  16
ATOM     16  N   UNL     1      -1.804  -1.049  24.532  0.00  0.00    -0.204 NA
ATOM     17  C   UNL     1      -2.052  -1.833  24.590  0.00  0.00    +0.241 C 
ATOM     18  O   UNL     1      -1.525  -2.416  24.839  0.00  0.00    -0.273 OA
BRANCH  17  19
ATOM     19  C   UNL     1      -2.829  -2.034  24.398  0.00  0.00    +0.078 C 
ATOM     20  C   UNL     1      -3.360  -1.448  24.160  0.00  0.00    +0.009 C 
ATOM     21  C   UNL     1      -4.137  -1.649  23.968  0.00  0.00    +0.000 C 
ATOM     22  C   UNL     1      -4.383  -2.435  24.013  0.00  0.00    +0.000 C 
ATOM     23  C   UNL     1      -3.852  -3.020  24.251  0.00  0.00    +0.000 C 
ATOM     24  C   UNL     1      -3.076  -2.820  24.443  0.00  0.00    +0.009 C 
ENDBRANCH  17  19
ENDBRANCH  15  16
ENDBRANCH  14  15
TORSDOF 5
ENDMDL
MODEL 2
REMARK VINA RESULT:     -11.3      2.079      2.617
REMARK  Name = 
REMARK  5 active torsions:
REMARK  status: ('A' for Active; 'I' for Inactive)
REMARK    1  A    between atoms: C_4  and  C_25
REMARK    2  A    between atoms: C_6  and  C_7
REMARK    3  A    between atoms: C_14  and  C_15
REMARK    4  A    between atoms: C_15  and  N_16
REMARK    5  A    between atoms: C_17  and  C_19
REMARK                            x       y       z     vdW  Elec       q    Type
REMARK                         _______ _______ _______ _____ _____    ______ ____
ROOT
ATOM      7  C   UNL     1      -3.515   2.259  24.860  0.00  0.00    +0.056 C 
ATOM      8  C   UNL     1      -3.625   1.751  25.439  0.00  0.00    +0.078 C 
ATOM      9  N   UNL     1      -3.772   1.616  24.638  0.00  0.00    -0.272 NA
ATOM     10  C   UNL     1      -3.520   2.496  24.125  0.00  0.00    +0.072 C 
ATOM     11  C   UNL     1      -3.468   2.834  23.569  0.00  0.00    +0.018 C 
ATOM     12  C   UNL     1      -3.661   2.120  24.076  0.00  0.00    +0.010 C 
ATOM     13  C   UNL     1      -3.966   1.415  23.651  0.00  0.00    +0.018 C 
ATOM     14  C   UNL     1      -4.088   0.888  24.189  0.00  0.00    +0.079 C 
ENDROOT
BRANCH   7   6
ATOM      1  C   UNL     1      -4.362   3.491  25.854  0.00  0.00    +0.153 C 
ATOM      2  N   UNL     1      -3.613   3.570  25.519  0.00  0.00    -0.253 N 
ATOM      3  N   UNL     1      -3.121   4.230  25.582  0.00  0.00    -0.166 NA
ATOM      4  C   UNL     1      -2.427   4.072  25.164  0.00  0.00    +0.136 A 
ATOM      5  C   UNL     1      -2.490   3.314  24.843  0.00  0.00    +0.038 A 
ATOM      6  C   UNL     1      -3.223   3.005  25.063  0.00  0.00    +0.058 A 
BRANCH   4  25
ATOM     25  C   UNL     1      -1.784   4.581  25.083  0.00  0.00    +0.165 A 
ATOM     26  C   UNL     1      -0.989   4.361  25.063  0.00  0.00    +0.042 A 
ATOM     27  C   UNL     1      -0.537   5.045  24.974  0.00  0.00    +0.044 A 
ATOM     28  C   UNL     1      -1.052   5.688  24.939  0.00  0.00    +0.180 A 
ATOM     29  O   UNL     1      -1.823   5.402  25.006  0.00  0.00    -0.449 OA
ENDBRANCH   4  25
ENDBRANCH   7   6
BRANCH  14  15
ATOM     15  C   UNL     1      -4.351   0.114  24.299  0.00  0.00    +0.131 C 
BRANCH  15  16
ATOM     16  N   UNL     1      -3.807  -0.496  24.408  0.00  0.00    -0.204 NA
ATOM     17  C   UNL     1      -4.032  -1.278  24.275  0.00  0.00    +0.241 C 
ATOM     18  O   UNL     1      -4.801  -1.451  24.031  0.00  0.00    -0.273 OA
BRANCH  17  19
ATOM     19  C   UNL     1      -3.487  -1.888  24.384  0.00  0.00    +0.078 C 
ATOM     20  C   UNL     1      -3.751  -2.664  24.480  0.00  0.00    +0.009 C 
ATOM     21  C   UNL     1      -3.206  -3.274  24.589  0.00  0.00    +0.000 C 
ATOM     22  C   UNL     1      -2.398  -3.108  24.603  0.00  0.00    +0.000 C 
ATOM     23  C   UNL     1      -2.135  -2.332  24.507  0.00  0.00    +0.000 C 
ATOM     24  C   UNL     1      -2.679  -1.723  24.398  0.00  0.00    +0.009 C 
ENDBRANCH  17  19
ENDBRANCH  15  16
ENDBRANCH  14  15
TORSDOF 5
ENDMDL
MODEL 3
REMARK VINA RESULT:     -11.0      0.834      5.548
REMARK  Name = 
REMARK  5 active torsions:
REMARK  status: ('A' for Active; 'I' for Inactive)
REMARK    1  A    between atoms: C_4  and  C_25
REMARK    2  A    between atoms: C_6  and  C_7
REMARK    3  A    between atoms: C_14  and  C_15
REMARK    4  A    between atoms: C_15  and  N_16
REMARK    5  A    between atoms: C_17  and  C_19
REMARK                            x       y       z     vdW  Elec       q    Type
REMARK                         _______ _______ _______ _____ _____    ______ ____
ROOT
ATOM      7  C   UNL     1      -1.140  -0.143  24.945  0.00  0.00    +0.056 C 
ATOM      8  C   UNL     1      -1.230   0.266  25.601  0.00  0.00    +0.078 C 
ATOM      9  N   UNL     1      -0.804   0.501  24.934  0.00  0.00    -0.272 NA
ATOM     10  C   UNL     1      -0.879  -0.273  24.230  0.00  0.00    +0.072 C 
ATOM     11  C   UNL     1      -0.738  -0.522  23.643  0.00  0.00    +0.018 C 
ATOM     12  C   UNL     1      -0.720   0.094  24.295  0.00  0.00    +0.010 C 
ATOM     13  C   UNL     1      -0.266   0.825  24.123  0.00  0.00    +0.018 C 
ATOM     14  C   UNL     1      -0.329   1.258  24.748  0.00  0.00    +0.079 C 
ENDROOT
BRANCH   7   6
ATOM      1  C   UNL     1      -0.487  -1.676  25.616  0.00  0.00    +0.153 C 
ATOM      2  N   UNL     1      -1.204  -1.588  25.217  0.00  0.00    -0.253 N 
ATOM      3  N   UNL     1      -1.747  -2.188  25.057  0.00  0.00    -0.166 NA
ATOM      4  C   UNL     1      -2.383  -1.855  24.649  0.00  0.00    +0.136 A 
ATOM      5  C   UNL     1      -2.233  -1.049  24.558  0.00  0.00    +0.038 A 
ATOM      6  C   UNL     1      -1.505  -0.884  24.909  0.00  0.00    +0.058 A 
BRANCH   4  25
ATOM     25  C   UNL     1      -3.051  -2.258  24.381  0.00  0.00    +0.165 A 
ATOM     26  C   UNL     1      -3.796  -1.930  24.252  0.00  0.00    +0.042 A 
ATOM     27  C   UNL     1      -4.296  -2.529  23.986  0.00  0.00    +0.044 A 
ATOM     28  C   UNL     1      -3.859  -3.228  23.950  0.00  0.00    +0.180 A 
ATOM     29  O   UNL     1      -3.089  -3.061  24.194  0.00  0.00    -0.449 OA
ENDBRANCH   4  25
ENDBRANCH   7   6
BRANCH  14  15
ATOM     15  C   UNL     1      -0.102   1.983  25.067  0.00  0.00    +0.131 C 
BRANCH  15  16
ATOM     16  N   UNL     1      -0.598   2.639  24.996  0.00  0.00    -0.204 NA
ATOM     17  C   UNL     1      -0.414   3.339  25.391  0.00  0.00    +0.241 C 
ATOM     18  O   UNL     1       0.265   3.384  25.858  0.00  0.00    -0.273 OA
BRANCH  17  19
ATOM     19  C   UNL     1      -0.909   3.995  25.320  0.00  0.00    +0.078 C 
ATOM     20  C   UNL     1      -1.681   3.963  25.610  0.00  0.00    +0.009 C 
ATOM     21  C   UNL     1      -2.176   4.619  25.538  0.00  0.00    +0.000 C 
ATOM     22  C   UNL     1      -1.899   5.307  25.176  0.00  0.00    +0.000 C 
ATOM     23  C   UNL     1      -1.128   5.339  24.886  0.00  0.00    +0.000 C 
ATOM     24  C   UNL     1      -0.633   4.684  24.957  0.00  0.00    +0.009 C 
ENDBRANCH  17  19
ENDBRANCH  15  16
ENDBRANCH  14  15
TORSDOF 5
ENDMDL
MODEL 4
REMARK VINA RESULT:     -10.6      2.021      6.091
REMARK  Name = 
REMARK  5 active torsions:
REMARK  status: ('A' for Active; 'I' for Inactive)
REMARK    1  A    between atoms: C_4  and  C_25
REMARK    2  A    between atoms: C_6  and  C_7
REMARK    3  A    between atoms: C_14  and  C_15
REMARK    4  A    between atoms: C_15  and  N_16
REMARK    5  A    between atoms: C_17  and  C_19
REMARK                            x       y       z     vdW  Elec       q    Type
REMARK                         _______ _______ _______ _____ _____    ______ ____
ROOT
ATOM      7  C   UNL     1      -3.653   1.103  24.708  0.00  0.00    +0.056 C 
ATOM      8  C   UNL     1      -2.981   1.484  24.809  0.00  0.00    +0.078 C 
ATOM      9  N   UNL     1      -3.734   1.762  25.004  0.00  0.00    -0.272 NA
ATOM     10  C   UNL     1      -4.418   1.012  24.743  0.00  0.00    +0.072 C 
ATOM     11  C   UNL     1      -5.032   0.791  24.706  0.00  0.00    +0.018 C 
ATOM     12  C   UNL     1      -4.387   1.383  24.902  0.00  0.00    +0.010 C 
ATOM     13  C   UNL     1      -4.653   2.140  25.258  0.00  0.00    +0.018 C 
ATOM     14  C   UNL     1      -4.018   2.547  25.374  0.00  0.00    +0.079 C 
ENDROOT
BRANCH   7   6
ATOM      1  C   UNL     1      -3.301   0.725  22.988  0.00  0.00    +0.153 C 
ATOM      2  N   UNL     1      -3.451   0.175  23.585  0.00  0.00    -0.253 N 
ATOM      3  N   UNL     1      -3.465  -0.645  23.496  0.00  0.00    -0.166 NA
ATOM      4  C   UNL     1      -3.636  -0.978  24.231  0.00  0.00    +0.136 A 
ATOM      5  C   UNL     1      -3.727  -0.364  24.774  0.00  0.00    +0.038 A 
ATOM      6  C   UNL     1      -3.612   0.348  24.375  0.00  0.00    +0.058 A 
BRANCH   4  25
ATOM     25  C   UNL     1      -3.704  -1.784  24.393  0.00  0.00    +0.165 A 
ATOM     26  C   UNL     1      -4.078  -2.345  23.918  0.00  0.00    +0.042 A 
ATOM     27  C   UNL     1      -4.014  -3.078  24.292  0.00  0.00    +0.044 A 
ATOM     28  C   UNL     1      -3.601  -2.970  24.997  0.00  0.00    +0.180 A 
ATOM     29  O   UNL     1      -3.409  -2.171  25.061  0.00  0.00    -0.449 OA
ENDBRANCH   4  25
ENDBRANCH   7   6
BRANCH  14  15
ATOM     15  C   UNL     1      -3.748   3.270  25.663  0.00  0.00    +0.131 C 
BRANCH  15  16
ATOM     16  N   UNL     1      -3.068   3.614  25.346  0.00  0.00    -0.204 NA
ATOM     17  C   UNL     1      -2.686   4.221  25.752  0.00  0.00    +0.241 C 
ATOM     18  O   UNL     1      -2.981   4.484  26.476  0.00  0.00    -0.273 OA
BRANCH  17  19
ATOM     19  C   UNL     1      -2.006   4.565  25.435  0.00  0.00    +0.078 C 
ATOM     20  C   UNL     1      -2.015   5.356  25.200  0.00  0.00    +0.009 C 
ATOM     21  C   UNL     1      -1.336   5.700  24.883  0.00  0.00    +0.000 C 
ATOM     22  C   UNL     1      -0.648   5.253  24.800  0.00  0.00    +0.000 C 
ATOM     23  C   UNL     1      -0.639   4.462  25.035  0.00  0.00    +0.000 C 
ATOM     24  C   UNL     1      -1.317   4.118  25.352  0.00  0.00    +0.009 C 
ENDBRANCH  17  19
ENDBRANCH  15  16
ENDBRANCH  14  15
TORSDOF 5
ENDMDL
MODEL 5
REMARK VINA RESULT:     -10.3      2.706      4.443
REMARK  Name = 
REMARK  5 active torsions:
REMARK  status: ('A' for Active; 'I' for Inactive)
REMARK    1  A    between atoms: C_4  and  C_25
REMARK    2  A    between atoms: C_6  and  C_7
REMARK    3  A    between atoms: C_14  and  C_15
REMARK    4  A    between atoms: C_15  and  N_16
REMARK    5  A    between atoms: C_17  and  C_19
REMARK                            x       y       z     vdW  Elec       q    Type
REMARK                         _______ _______ _______ _____ _____    ______ ____
ROOT
ATOM      7  C   UNL     1      -0.980   1.452  23.980  0.00  0.00    +0.056 C 
ATOM      8  C   UNL     1      -1.658   1.403  23.602  0.00  0.00    +0.078 C 
ATOM      9  N   UNL     1      -1.455   1.970  24.167  0.00  0.00    -0.272 NA
ATOM     10  C   UNL     1      -0.477   1.758  24.481  0.00  0.00    +0.072 C 
ATOM     11  C   UNL     1       0.043   1.895  24.852  0.00  0.00    +0.018 C 
ATOM     12  C   UNL     1      -0.788   2.012  24.533  0.00  0.00    +0.010 C 
ATOM     13  C   UNL     1      -1.236   2.690  24.864  0.00  0.00    +0.018 C 
ATOM     14  C   UNL     1      -1.915   2.677  24.515  0.00  0.00    +0.079 C 
ENDROOT
BRANCH   7   6
ATOM      1  C   UNL     1      -1.009  -0.273  24.478  0.00  0.00    +0.153 C 
ATOM      2  N   UNL     1      -0.420   0.093  24.032  0.00  0.00    -0.253 N 
ATOM      3  N   UNL     1       0.260  -0.270  23.735  0.00  0.00    -0.166 NA
ATOM      4  C   UNL     1       0.693   0.298  23.323  0.00  0.00    +0.136 A 
ATOM      5  C   UNL     1       0.282   1.012  23.365  0.00  0.00    +0.038 A 
ATOM      6  C   UNL     1      -0.406   0.885  23.803  0.00  0.00    +0.058 A 
BRANCH   4  25
ATOM     25  C   UNL     1       1.412   0.174  22.938  0.00  0.00    +0.165 A 
ATOM     26  C   UNL     1       1.515  -0.211  22.216  0.00  0.00    +0.042 A 
ATOM     27  C   UNL     1       2.320  -0.210  22.039  0.00  0.00    +0.044 A 
ATOM     28  C   UNL     1       2.715   0.176  22.652  0.00  0.00    +0.180 A 
ATOM     29  O   UNL     1       2.154   0.413  23.208  0.00  0.00    -0.449 OA
ENDBRANCH   4  25
ENDBRANCH   7   6
BRANCH  14  15
ATOM     15  C   UNL     1      -2.638   3.070  24.476  0.00  0.00    +0.131 C 
BRANCH  15  16
ATOM     16  N   UNL     1      -3.318   2.716  24.781  0.00  0.00    -0.204 NA
ATOM     17  C   UNL     1      -4.041   3.111  24.741  0.00  0.00    +0.241 C 
ATOM     18  O   UNL     1      -4.085   3.859  24.397  0.00  0.00    -0.273 OA
BRANCH  17  19
ATOM     19  C   UNL     1      -4.721   2.756  25.045  0.00  0.00    +0.078 C 
ATOM     20  C   UNL     1      -5.030   3.009  25.768  0.00  0.00    +0.009 C 
ATOM     21  C   UNL     1      -5.710   2.654  26.072  0.00  0.00    +0.000 C 
ATOM     22  C   UNL     1      -6.082   2.048  25.654  0.00  0.00    +0.000 C 
ATOM     23  C   UNL     1      -5.773   1.796  24.931  0.00  0.00    +0.000 C 
ATOM     24  C   UNL     1      -5.093   2.149  24.627  0.00  0.00    +0.009 C 
ENDBRANCH  17  19
ENDBRANCH  15  16
ENDBRANCH  14  15
TORSDOF 5
ENDMDL
MODEL 6
REMARK VINA RESULT:     -10.2      2.954      4.947
REMARK  Name = 
REMARK  5 active torsions:
REMARK  status: ('A' for Active; 'I' for Inactive)
REMARK    1  A    between atoms: C_4  and  C_25
REMARK    2  A    between atoms: C_6  and  C_7
REMARK    3  A    between atoms: C_14  and  C_15
REMARK    4  A    between atoms: C_15  and  N_16
REMARK    5  A    between atoms: C_17  and  C_19
REMARK                            x       y       z     vdW  Elec       q    Type
REMARK                         _______ _______ _______ _____ _____    ______ ____
ROOT
ATOM      7  C   UNL     1      -0.616   0.696  23.956  0.00  0.00    +0.056 C 
ATOM      8  C   UNL     1      -0.281   1.215  23.482  0.00  0.00    +0.078 C 
ATOM      9  N   UNL     1      -0.035   0.437  23.605  0.00  0.00    -0.272 NA
ATOM     10  C   UNL     1      -0.695   0.008  24.298  0.00  0.00    +0.072 C 
ATOM     11  C   UNL     1      -0.889  -0.501  24.657  0.00  0.00    +0.018 C 
ATOM     12  C   UNL     1      -0.368  -0.066  24.072  0.00  0.00    +0.010 C 
ATOM     13  C   UNL     1       0.300  -0.525  23.734  0.00  0.00    +0.018 C 
ATOM     14  C   UNL     1       0.658  -0.046  23.259  0.00  0.00    +0.079 C 
ENDROOT
BRANCH   7   6
ATOM      1  C   UNL     1      -0.627   1.857  25.326  0.00  0.00    +0.153 C 
ATOM      2  N   UNL     1      -1.286   1.477  25.007  0.00  0.00    -0.253 N 
ATOM      3  N   UNL     1      -2.067   1.564  25.261  0.00  0.00    -0.166 NA
ATOM      4  C   UNL     1      -2.544   1.085  24.789  0.00  0.00    +0.136 A 
ATOM      5  C   UNL     1      -2.059   0.702  24.243  0.00  0.00    +0.038 A 
ATOM      6  C   UNL     1      -1.282   0.944  24.378  0.00  0.00    +0.058 A 
BRANCH   4  25
ATOM     25  C   UNL     1      -3.362   1.003  24.852  0.00  0.00    +0.165 A 
ATOM     26  C   UNL     1      -3.926   1.533  24.567  0.00  0.00    +0.042 A 
ATOM     27  C   UNL     1      -4.673   1.235  24.750  0.00  0.00    +0.044 A 
ATOM     28  C   UNL     1      -4.570   0.520  25.149  0.00  0.00    +0.180 A 
ATOM     29  O   UNL     1      -3.760   0.376  25.213  0.00  0.00    -0.449 OA
ENDBRANCH   4  25
ENDBRANCH   7   6
BRANCH  14  15
ATOM     15  C   UNL     1       1.295   0.004  22.738  0.00  0.00    +0.131 C 
BRANCH  15  16
ATOM     16  N   UNL     1       2.062   0.080  23.031  0.00  0.00    -0.204 NA
ATOM     17  C   UNL     1       2.702   0.094  22.511  0.00  0.00    +0.241 C 
ATOM     18  O   UNL     1       2.575   0.032  21.698  0.00  0.00    -0.273 OA
BRANCH  17  19
ATOM     19  C   UNL     1       3.470   0.171  22.803  0.00  0.00    +0.078 C 
ATOM     20  C   UNL     1       3.836  -0.469  23.175  0.00  0.00    +0.009 C 
ATOM     21  C   UNL     1       4.603  -0.393  23.467  0.00  0.00    +0.000 C 
ATOM     22  C   UNL     1       5.005   0.324  23.389  0.00  0.00    +0.000 C 
ATOM     23  C   UNL     1       4.639   0.963  23.018  0.00  0.00    +0.000 C 
ATOM     24  C   UNL     1       3.872   0.887  22.725  0.00  0.00    +0.009 C 
ENDBRANCH  17  19
ENDBRANCH  15  16
ENDBRANCH  14  15
TORSDOF 5
ENDMDL
