MODEL 1
REMARK VINA RESULT:     -11.1      0.000      0.000
REMARK  Name = 
REMARK  5 active torsions:
REMARK  status: ('A' for Active; 'I' for Inactive)
REMARK    1  A    between atoms: N_4  and  C_5
REMARK    2  A    between atoms: C_8  and  C_9
REMARK    3  A    between atoms: C_9  and  N_10
REMARK    4  A    between atoms: N_16  and  C_17
REMARK    5  A    between atoms: C_17  and  C_18
REMARK                            x       y       z     vdW  Elec       q    Type
REMARK                         _______ _______ _______ _____ _____    ______ ____
ROOT
ATOM     10  N   UNL     1      -0.811  -0.130  25.213  0.00  0.00    -0.266 NA
ATOM     11  C   UNL     1      -0.315   0.005  24.567  0.00  0.00    +0.094 C 
ATOM     12  C   UNL     1      -0.200   0.773  24.290  0.00  0.00    +0.112 C 
ATOM     13  N   UNL     1      -0.580   1.406  24.657  0.00  0.00    -0.261 N 
ATOM     14  C   UNL     1      -1.076   1.271  25.302  0.00  0.00    +0.113 C 
ATOM     15  C   UNL     1      -1.375   1.998  25.551  0.00  0.00    +0.116 C 
ATOM     16  N   UNL     1      -1.064   2.583  25.060  0.00  0.00    -0.258 N 
ATOM     24  C   UNL     1      -0.573   2.217  24.507  0.00  0.00    +0.308 C 
ATOM     25  O   UNL     1      -0.149   2.595  23.909  0.00  0.00    -0.252 OA
ATOM     26  C   UNL     1      -1.191   0.502  25.580  0.00  0.00    +0.094 C 
ENDROOT
BRANCH  10   9
ATOM      9  C   UNL     1      -0.926  -0.899  25.491  0.00  0.00    +0.099 C 
BRANCH   9   8
ATOM      5  C   UNL     1      -2.866  -2.219  24.705  0.00  0.00    +0.073 A 
ATOM      6  C   UNL     1      -2.952  -1.697  25.337  0.00  0.00    +0.016 A 
ATOM      7  C   UNL     1      -2.305  -1.257  25.600  0.00  0.00    -0.002 A 
ATOM      8  C   UNL     1      -1.573  -1.339  25.229  0.00  0.00    -0.006 A 
ATOM     27  C   UNL     1      -1.487  -1.861  24.596  0.00  0.00    -0.002 A 
ATOM     28  C   UNL     1      -2.134  -2.301  24.334  0.00  0.00    +0.016 A 
BRANCH   5   4
ATOM      1  C   UNL     1      -4.708  -2.762  23.666  0.00  0.00    +0.097 C 
ATOM      2  C   UNL     1      -4.062  -2.321  23.929  0.00  0.00    +0.246 C 
ATOM      3  O   UNL     1      -3.965  -1.542  23.677  0.00  0.00    -0.273 OA
ATOM      4  N   UNL     1      -3.513  -2.659  24.442  0.00  0.00    -0.179 NA
ENDBRANCH   5   4
ENDBRANCH   9   8
ENDBRANCH  10   9
BRANCH  16  17
ATOM     17  C   UNL     1      -1.217   3.392  25.111  0.00  0.00    +0.122 C 
BRANCH  17  18
ATOM     18  C   UNL     1      -1.980   3.658  25.281  0.00  0.00    -0.002 A 
ATOM     19  C   UNL     1      -2.552   3.680  24.687  0.00  0.00    -0.003 A 
ATOM     20  C   UNL     1      -3.314   3.946  24.859  0.00  0.00    -0.000 A 
ATOM     21  C   UNL     1      -3.504   4.190  25.623  0.00  0.00    -0.000 A 
ATOM     22  C   UNL     1      -2.932   4.168  26.217  0.00  0.00    -0.000 A 
ATOM     23  C   UNL     1      -2.170   3.902  26.047  0.00  0.00    -0.003 A 
ENDBRANCH  17  18
ENDBRANCH  16  17
TORSDOF 5
ENDMDL
MODEL 2
REMARK VINA RESULT:     -10.9      1.677      4.920
REMARK  Name = 
REMARK  5 active torsions:
REMARK  status: ('A' for Active; 'I' for Inactive)
REMARK    1  A    between atoms: N_4  and  C_5
REMARK    2  A    between atoms: C_8  and  C_9
REMARK    3  A    between atoms: C_9  and  N_10
REMARK    4  A    between atoms: N_16  and  C_17
REMARK    5  A    between atoms: C_17  and  C_18
REMARK                            x       y       z     vdW  Elec       q    Type
REMARK                         _______ _______ _______ _____ _____    ______ ____
ROOT
ATOM     10  N   UNL     1      -1.464   1.709  24.585  0.00  0.00    -0.266 NA
ATOM     11  C   UNL     1      -0.962   1.653  25.236  0.00  0.00    +0.094 C 
ATOM     12  C   UNL     1      -0.789   0.915  25.560  0.00  0.00    +0.112 C 
ATOM     13  N   UNL     1      -1.117   0.232  25.233  0.00  0.00    -0.261 N 
ATOM     14  C   UNL     1      -1.620   0.289  24.581  0.00  0.00    +0.113 C 
ATOM     15  C   UNL     1      -1.861  -0.473  24.378  0.00  0.00    +0.116 C 
ATOM     16  N   UNL     1      -1.507  -1.001  24.904  0.00  0.00    -0.258 N 
ATOM     24  C   UNL     1      -1.048  -0.564  25.432  0.00  0.00    +0.308 C 
ATOM     25  O   UNL     1      -0.598  -0.872  26.051  0.00  0.00    -0.252 OA
ATOM     26  C   UNL     1      -1.794   1.028  24.257  0.00  0.00    +0.094 C 
ENDROOT
BRANCH  10   9
ATOM      9  C   UNL     1      -1.638   2.449  24.260  0.00  0.00    +0.099 C 
BRANCH   9   8
ATOM      5  C   UNL     1      -3.764   3.580  24.831  0.00  0.00    +0.073 A 
ATOM      6  C   UNL     1      -3.116   3.640  25.337  0.00  0.00    +0.016 A 
ATOM      7  C   UNL     1      -2.407   3.264  25.147  0.00  0.00    -0.002 A 
ATOM      8  C   UNL     1      -2.346   2.826  24.451  0.00  0.00    -0.006 A 
ATOM     27  C   UNL     1      -2.995   2.765  23.944  0.00  0.00    -0.002 A 
ATOM     28  C   UNL     1      -3.704   3.142  24.134  0.00  0.00    +0.016 A 
BRANCH   5   4
ATOM      1  C   UNL     1      -5.765   3.930  25.632  0.00  0.00    +0.097 C 
ATOM      2  C   UNL     1      -5.055   3.553  25.442  0.00  0.00    +0.246 C 
ATOM      3  O   UNL     1      -4.929   2.772  25.675  0.00  0.00    -0.273 OA
ATOM      4  N   UNL     1      -4.473   3.957  25.021  0.00  0.00    -0.179 NA
ENDBRANCH   5   4
ENDBRANCH   9   8
ENDBRANCH  10   9
BRANCH  16  17
ATOM     17  C   UNL     1      -1.597  -1.821  24.902  0.00  0.00    +0.122 C 
BRANCH  17  18
ATOM     18  C   UNL     1      -2.339  -2.155  24.769  0.00  0.00    -0.002 A 
ATOM     19  C   UNL     1      -2.912  -2.139  25.363  0.00  0.00    -0.003 A 
ATOM     20  C   UNL     1      -3.654  -2.474  25.229  0.00  0.00    -0.000 A 
ATOM     21  C   UNL     1      -3.824  -2.823  24.502  0.00  0.00    -0.000 A 
ATOM     22  C   UNL     1      -3.252  -2.838  23.908  0.00  0.00    -0.000 A 
ATOM     23  C   UNL     1      -2.510  -2.504  24.041  0.00  0.00    -0.003 A 
ENDBRANCH  17  18
ENDBRANCH  16  17
TORSDOF 5
ENDMDL
MODEL 3
REMARK VINA RESULT:     -10.8      2.133      3.107
REMARK  Name = 
REMARK  5 active torsions:
REMARK  status: ('A' for Active; 'I' for Inactive)
REMARK    1  A    between atoms: N_4  and  C_5
REMARK    2  A    between atoms: C_8  and  C_9
REMARK    3  A    between atoms: C_9  and  N_10
REMARK    4  A    between atoms: N_16  and  C_17
REMARK    5  A    between atoms: C_17  and  C_18
REMARK                            x       y       z     vdW  Elec       q    Type
REMARK                         _______ _______ _______ _____ _____    ______ ____
ROOT
ATOM     10  N   UNL     1      -4.752   1.217  24.780  0.00  0.00    -0.266 NA
ATOM     11  C   UNL     1      -5.308   1.521  25.309  0.00  0.00    +0.094 C 
ATOM     12  C   UNL     1      -5.175   2.248  25.674  0.00  0.00    +0.112 C 
ATOM     13  N   UNL     1      -4.486   2.672  25.511  0.00  0.00    -0.261 N 
ATOM     14  C   UNL     1      -3.930   2.369  24.982  0.00  0.00    +0.113 C 
ATOM     15  C   UNL     1      -3.308   2.907  24.930  0.00  0.00    +0.116 C 
ATOM     16  N   UNL     1      -3.479   3.543  25.426  0.00  0.00    -0.258 N 
ATOM     24  C   UNL     1      -4.207   3.398  25.785  0.00  0.00    +0.308 C 
ATOM     25  O   UNL     1      -4.589   3.892  26.325  0.00  0.00    -0.252 OA
ATOM     26  C   UNL     1      -4.063   1.641  24.616  0.00  0.00    +0.094 C 
ENDROOT
BRANCH  10   9
ATOM      9  C   UNL     1      -4.885   0.489  24.413  0.00  0.00    +0.099 C 
BRANCH   9   8
ATOM      5  C   UNL     1      -3.254  -1.351  24.694  0.00  0.00    +0.073 A 
ATOM      6  C   UNL     1      -3.660  -1.057  25.348  0.00  0.00    +0.016 A 
ATOM      7  C   UNL     1      -4.204  -0.444  25.255  0.00  0.00    -0.002 A 
ATOM      8  C   UNL     1      -4.341  -0.124  24.507  0.00  0.00    -0.006 A 
ATOM     27  C   UNL     1      -3.934  -0.418  23.852  0.00  0.00    -0.002 A 
ATOM     28  C   UNL     1      -3.390  -1.031  23.946  0.00  0.00    +0.016 A 
BRANCH   5   4
ATOM      1  C   UNL     1      -1.359  -2.413  24.910  0.00  0.00    +0.097 C 
ATOM      2  C   UNL     1      -1.903  -1.799  24.818  0.00  0.00    +0.246 C 
ATOM      3  O   UNL     1      -1.638  -1.020  24.757  0.00  0.00    -0.273 OA
ATOM      4  N   UNL     1      -2.710  -1.964  24.786  0.00  0.00    -0.179 NA
ENDBRANCH   5   4
ENDBRANCH   9   8
ENDBRANCH  10   9
BRANCH  16  17
ATOM     17  C   UNL     1      -3.004   4.208  25.543  0.00  0.00    +0.122 C 
BRANCH  17  18
ATOM     18  C   UNL     1      -2.189   4.159  25.429  0.00  0.00    -0.002 A 
ATOM     19  C   UNL     1      -1.740   3.635  25.881  0.00  0.00    -0.003 A 
ATOM     20  C   UNL     1      -0.924   3.587  25.766  0.00  0.00    -0.000 A 
ATOM     21  C   UNL     1      -0.558   4.062  25.201  0.00  0.00    -0.000 A 
ATOM     22  C   UNL     1      -1.007   4.586  24.749  0.00  0.00    -0.000 A 
ATOM     23  C   UNL     1      -1.822   4.635  24.863  0.00  0.00    -0.003 A 
ENDBRANCH  17  18
ENDBRANCH  16  17
TORSDOF 5
ENDMDL
MODEL 4
REMARK VINA RESULT:     -10.2      1.699      2.854
REMARK  Name = 
REMARK  5 active torsions:
REMARK  status: ('A' for Active; 'I' for Inactive)
REMARK    1  A    between atoms: N_4  and  C_5
REMARK    2  A    between atoms: C_8  and  C_9
REMARK    3  A    between atoms: C_9  and  N_10
REMARK    4  A    between atoms: N_16  and  C_17
REMARK    5  A    between atoms: C_17  and  C_18
REMARK                            x       y       z     vdW  Elec       q    Type
REMARK                         _______ _______ _______ _____ _____    ______ ____
ROOT
ATOM     10  N   UNL     1      -0.948   2.348  24.993  0.00  0.00    -0.266 NA
ATOM     11  C   UNL     1      -0.802   2.900  25.588  0.00  0.00    +0.094 C 
ATOM     12  C   UNL     1      -1.411   3.388  25.856  0.00  0.00    +0.112 C 
ATOM     13  N   UNL     1      -2.166   3.324  25.528  0.00  0.00    -0.261 N 
ATOM     14  C   UNL     1      -2.311   2.772  24.933  0.00  0.00    +0.113 C 
ATOM     15  C   UNL     1      -3.104   2.834  24.715  0.00  0.00    +0.116 C 
ATOM     16  N   UNL     1      -3.449   3.424  25.177  0.00  0.00    -0.258 N 
ATOM     24  C   UNL     1      -2.869   3.726  25.679  0.00  0.00    +0.308 C 
ATOM     25  O   UNL     1      -2.974   4.327  26.235  0.00  0.00    -0.252 OA
ATOM     26  C   UNL     1      -1.702   2.284  24.664  0.00  0.00    +0.094 C 
ENDROOT
BRANCH  10   9
ATOM      9  C   UNL     1      -0.338   1.860  24.725  0.00  0.00    +0.099 C 
BRANCH   9   8
ATOM      5  C   UNL     1      -0.650  -0.595  24.682  0.00  0.00    +0.073 A 
ATOM      6  C   UNL     1      -0.691  -0.187  25.397  0.00  0.00    +0.016 A 
ATOM      7  C   UNL     1      -0.587   0.632  25.412  0.00  0.00    -0.002 A 
ATOM      8  C   UNL     1      -0.442   1.042  24.711  0.00  0.00    -0.006 A 
ATOM     27  C   UNL     1      -0.401   0.633  23.995  0.00  0.00    -0.002 A 
ATOM     28  C   UNL     1      -0.504  -0.185  23.981  0.00  0.00    +0.016 A 
BRANCH   5   4
ATOM      1  C   UNL     1      -1.614  -2.551  24.578  0.00  0.00    +0.097 C 
ATOM      2  C   UNL     1      -1.510  -1.733  24.593  0.00  0.00    +0.246 C 
ATOM      3  O   UNL     1      -2.164  -1.233  24.533  0.00  0.00    -0.273 OA
ATOM      4  N   UNL     1      -0.753  -1.414  24.667  0.00  0.00    -0.179 NA
ENDBRANCH   5   4
ENDBRANCH   9   8
ENDBRANCH  10   9
BRANCH  16  17
ATOM     17  C   UNL     1      -4.236   3.669  25.142  0.00  0.00    +0.122 C 
BRANCH  17  18
ATOM     18  C   UNL     1      -4.844   3.117  25.221  0.00  0.00    -0.002 A 
ATOM     19  C   UNL     1      -5.065   2.650  24.577  0.00  0.00    -0.003 A 
ATOM     20  C   UNL     1      -5.673   2.099  24.657  0.00  0.00    -0.000 A 
ATOM     21  C   UNL     1      -6.061   2.013  25.380  0.00  0.00    -0.000 A 
ATOM     22  C   UNL     1      -5.840   2.480  26.023  0.00  0.00    -0.000 A 
ATOM     23  C   UNL     1      -5.232   3.031  25.945  0.00  0.00    -0.003 A 
ENDBRANCH  17  18
ENDBRANCH  16  17
TORSDOF 5
ENDMDL
MODEL 5
REMARK VINA RESULT:     -10.2      1.927      5.417
REMARK  Name = 
REMARK  5 active torsions:
REMARK  status: ('A' for Active; 'I' for Inactive)
REMARK    1  A    between atoms: N_4  and  C_5
REMARK    2  A    between atoms: C_8  and  C_9
REMARK    3  A    between atoms: C_9  and  N_10
REMARK    4  A    between atoms: N_16  and  C_17
REMARK    5  A    between atoms: C_17  and  C_18
REMARK                            x       y       z     vdW  Elec       q    Type
REMARK                         _______ _______ _______ _____ _____    ______ ____
ROOT
ATOM     10  N   UNL     1      -3.270   2.571  24.234  0.00  0.00    -0.266 NA
ATOM     11  C   UNL     1      -3.991   2.812  24.554  0.00  0.00    +0.094 C 
ATOM     12  C   UNL     1      -4.577   2.255  24.714  0.00  0.00    +0.112 C 
ATOM     13  N   UNL     1      -4.444   1.457  24.555  0.00  0.00    -0.261 N 
ATOM     14  C   UNL     1      -3.723   1.216  24.235  0.00  0.00    +0.113 C 
ATOM     15  C   UNL     1      -3.748   0.397  24.136  0.00  0.00    +0.116 C 
ATOM     16  N   UNL     1      -4.485   0.132  24.395  0.00  0.00    -0.258 N 
ATOM     24  C   UNL     1      -4.914   0.787  24.654  0.00  0.00    +0.308 C 
ATOM     25  O   UNL     1      -5.681   0.775  24.959  0.00  0.00    -0.252 OA
ATOM     26  C   UNL     1      -3.135   1.773  24.074  0.00  0.00    +0.094 C 
ENDROOT
BRANCH  10   9
ATOM      9  C   UNL     1      -2.682   3.128  24.073  0.00  0.00    +0.099 C 
BRANCH   9   8
ATOM      5  C   UNL     1      -0.644   3.214  25.475  0.00  0.00    +0.073 A 
ATOM      6  C   UNL     1      -0.625   2.837  24.742  0.00  0.00    +0.016 A 
ATOM      7  C   UNL     1      -1.304   2.808  24.274  0.00  0.00    -0.002 A 
ATOM      8  C   UNL     1      -2.003   3.156  24.540  0.00  0.00    -0.006 A 
ATOM     27  C   UNL     1      -2.022   3.534  25.274  0.00  0.00    -0.002 A 
ATOM     28  C   UNL     1      -1.343   3.562  25.741  0.00  0.00    +0.016 A 
BRANCH   5   4
ATOM      1  C   UNL     1       0.875   2.662  26.942  0.00  0.00    +0.097 C 
ATOM      2  C   UNL     1       0.196   2.633  26.474  0.00  0.00    +0.246 C 
ATOM      3  O   UNL     1      -0.321   1.994  26.538  0.00  0.00    -0.273 OA
ATOM      4  N   UNL     1       0.035   3.242  25.943  0.00  0.00    -0.179 NA
ENDBRANCH   5   4
ENDBRANCH   9   8
ENDBRANCH  10   9
BRANCH  16  17
ATOM     17  C   UNL     1      -4.747  -0.650  24.396  0.00  0.00    +0.122 C 
BRANCH  17  18
ATOM     18  C   UNL     1      -4.213  -1.264  24.535  0.00  0.00    -0.002 A 
ATOM     19  C   UNL     1      -3.879  -1.359  25.283  0.00  0.00    -0.003 A 
ATOM     20  C   UNL     1      -3.345  -1.973  25.421  0.00  0.00    -0.000 A 
ATOM     21  C   UNL     1      -3.147  -2.492  24.812  0.00  0.00    -0.000 A 
ATOM     22  C   UNL     1      -3.481  -2.397  24.064  0.00  0.00    -0.000 A 
ATOM     23  C   UNL     1      -4.015  -1.783  23.925  0.00  0.00    -0.003 A 
ENDBRANCH  17  18
ENDBRANCH  16  17
TORSDOF 5
ENDMDL
