REMARK  Name = 
REMARK  2 active torsions:
REMARK  status: ('A' for Active; 'I' for Inactive)
REMARK    1  A    between atoms: C_2  and  N_4
REMARK    2  A    between atoms: N_15  and  C_16
REMARK                            x       y       z     vdW  Elec       q    Type
REMARK                         _______ _______ _______ _____ _____    ______ ____
ROOT
ATOM      4  N   UNL     1       4.781   1.935   0.000  0.00  0.00    -0.190 NA
ATOM      5  C   UNL     1       4.067   2.348   0.000  0.00  0.00    +0.323 C 
ATOM      6  O   UNL     1       4.067   3.173   0.000  0.00  0.00    -0.251 OA
ATOM      7  N   UNL     1       3.352   1.935   0.000  0.00  0.00    -0.259 N 
ATOM      8  C   UNL     1       3.352   1.110   0.000  0.00  0.00    +0.117 C 
ATOM      9  C   UNL     1       2.638   0.698   0.000  0.00  0.00    +0.117 C 
ATOM     10  N   UNL     1       1.923   1.110   0.000  0.00  0.00    -0.254 N 
ATOM     11  C   UNL     1       1.923   1.935   0.000  0.00  0.00    +0.174 C 
ATOM     12  C   UNL     1       2.638   2.348   0.000  0.00  0.00    +0.124 C 
ATOM     13  C   UNL     1       1.139   2.190   0.000  0.00  0.00    +0.252 C 
ATOM     14  O   UNL     1       0.884   2.975   0.000  0.00  0.00    -0.273 OA
ATOM     15  N   UNL     1       0.654   1.523   0.000  0.00  0.00    -0.214 N 
ATOM     19  C   UNL     1       1.139   0.856   0.000  0.00  0.00    +0.313 C 
ATOM     20  O   UNL     1       0.884   0.071   0.000  0.00  0.00    -0.252 OA
ENDROOT
BRANCH   4   2
ATOM      1  C   UNL     1       6.210   1.935   0.000  0.00  0.00    +0.023 C 
ATOM      2  C   UNL     1       5.496   2.348   0.000  0.00  0.00    +0.097 C 
ATOM      3  C   UNL     1       5.496   3.173   0.000  0.00  0.00    +0.023 C 
ENDBRANCH   4   2
BRANCH  15  16
ATOM     16  C   UNL     1      -0.171   1.523   0.000  0.00  0.00    +0.084 C 
ATOM     17  C   UNL     1      -0.584   0.808   0.000  0.00  0.00    +0.022 C 
ATOM     18  C   UNL     1      -0.584   2.237   0.000  0.00  0.00    +0.022 C 
ENDBRANCH  15  16
TORSDOF 2
