MODEL 1
REMARK VINA RESULT:     -11.4      0.000      0.000
REMARK  Name = 
REMARK  7 active torsions:
REMARK  status: ('A' for Active; 'I' for Inactive)
REMARK    1  A    between atoms: C_2  and  C_4
REMARK    2  A    between atoms: C_6  and  C_7
REMARK    3  A    between atoms: C_7  and  C_8
REMARK    4  A    between atoms: C_11  and  C_13
REMARK    5  A    between atoms: C_22  and  C_23
REMARK    6  A    between atoms: C_23  and  N_24
REMARK    7  A    between atoms: C_27  and  C_30
REMARK                            x       y       z     vdW  Elec       q    Type
REMARK                         _______ _______ _______ _____ _____    ______ ____
ROOT
ATOM      4  C   UNL     1      -4.737   1.570  24.736  0.00  0.00    +0.006 C 
ATOM      5  C   UNL     1      -4.349   2.272  24.544  0.00  0.00    +0.005 C 
ATOM      6  C   UNL     1      -3.717   2.263  24.013  0.00  0.00    +0.027 C 
ATOM     19  C   UNL     1      -3.473   1.551  23.674  0.00  0.00    -0.048 C 
ATOM     20  C   UNL     1      -2.842   1.542  23.144  0.00  0.00    +0.026 C 
ATOM     21  C   UNL     1      -3.862   0.849  23.867  0.00  0.00    -0.034 C 
ATOM     22  C   UNL     1      -4.493   0.858  24.397  0.00  0.00    +0.037 C 
ENDROOT
BRANCH   4   2
ATOM      1  C   UNL     1      -6.144   1.590  24.984  0.00  0.00    +0.000 C 
ATOM      2  C   UNL     1      -5.368   1.580  25.266  0.00  0.00    +0.000 C 
ATOM      3  C   UNL     1      -5.225   1.580  26.078  0.00  0.00    +0.000 C 
ENDBRANCH   4   2
BRANCH   6   7
ATOM      7  C   UNL     1      -3.330   2.965  23.821  0.00  0.00    +0.091 C 
BRANCH   7   8
ATOM      8  C   UNL     1      -2.764   3.277  24.332  0.00  0.00    +0.227 A 
ATOM      9  N   UNL     1      -2.778   4.030  24.670  0.00  0.00    -0.111 NA
ATOM     10  N   UNL     1      -2.107   4.110  25.144  0.00  0.00    -0.107 NA
ATOM     11  C   UNL     1      -1.678   3.407  25.098  0.00  0.00    +0.250 A 
ATOM     12  O   UNL     1      -2.084   2.892  24.596  0.00  0.00    -0.420 OA
BRANCH  11  13
ATOM     13  C   UNL     1      -0.968   3.246  25.485  0.00  0.00    +0.058 A 
ATOM     14  C   UNL     1      -0.966   2.792  26.174  0.00  0.00    +0.025 A 
ATOM     15  C   UNL     1      -0.257   2.631  26.562  0.00  0.00    +0.099 A 
ATOM     16  N   UNL     1       0.453   2.924  26.260  0.00  0.00    -0.242 NA
ATOM     17  C   UNL     1       0.454   3.378  25.571  0.00  0.00    +0.099 A 
ATOM     18  C   UNL     1      -0.258   3.538  25.184  0.00  0.00    +0.025 A 
ENDBRANCH  11  13
ENDBRANCH   7   8
ENDBRANCH   6   7
BRANCH  22  23
ATOM     23  C   UNL     1      -4.881   0.156  24.589  0.00  0.00    +0.076 C 
BRANCH  23  24
ATOM     24  N   UNL     1      -4.469  -0.560  24.574  0.00  0.00    -0.272 NA
ATOM     25  C   UNL     1      -3.986  -0.771  25.209  0.00  0.00    +0.073 C 
ATOM     26  C   UNL     1      -3.575  -1.486  25.194  0.00  0.00    +0.027 C 
ATOM     27  C   UNL     1      -3.648  -1.991  24.544  0.00  0.00    +0.083 C 
ATOM     28  C   UNL     1      -4.132  -1.779  23.911  0.00  0.00    +0.027 C 
ATOM     29  C   UNL     1      -4.542  -1.064  23.926  0.00  0.00    +0.073 C 
BRANCH  27  30
ATOM     30  C   UNL     1      -3.238  -2.705  24.530  0.00  0.00    +0.260 C 
ATOM     31  N   UNL     1      -2.424  -2.711  24.392  0.00  0.00    -0.088 NA
ATOM     32  O   UNL     1      -3.640  -3.415  24.652  0.00  0.00    -0.272 OA
ENDBRANCH  27  30
ENDBRANCH  23  24
ENDBRANCH  22  23
TORSDOF 7
ENDMDL
MODEL 2
REMARK VINA RESULT:     -11.4      1.188      2.099
REMARK  Name = 
REMARK  7 active torsions:
REMARK  status: ('A' for Active; 'I' for Inactive)
REMARK    1  A    between atoms: C_2  and  C_4
REMARK    2  A    between atoms: C_6  and  C_7
REMARK    3  A    between atoms: C_7  and  C_8
REMARK    4  A    between atoms: C_11  and  C_13
REMARK    5  A    between atoms: C_22  and  C_23
REMARK    6  A    between atoms: C_23  and  N_24
REMARK    7  A    between atoms: C_27  and  C_30
REMARK                            x       y       z     vdW  Elec       q    Type
REMARK                         _______ _______ _______ _____ _____    ______ ____
ROOT
ATOM      4  C   UNL     1      -3.295   1.607  23.601  0.00  0.00    +0.006 C 
ATOM      5  C   UNL     1      -3.505   2.297  24.002  0.00  0.00    +0.005 C 
ATOM      6  C   UNL     1      -4.054   2.265  24.618  0.00  0.00    +0.027 C 
ATOM     19  C   UNL     1      -4.392   1.543  24.832  0.00  0.00    -0.048 C 
ATOM     20  C   UNL     1      -4.940   1.512  25.447  0.00  0.00    +0.026 C 
ATOM     21  C   UNL     1      -4.181   0.854  24.430  0.00  0.00    -0.034 C 
ATOM     22  C   UNL     1      -3.633   0.886  23.815  0.00  0.00    +0.037 C 
ENDROOT
BRANCH   4   2
ATOM      1  C   UNL     1      -1.945   1.514  23.141  0.00  0.00    +0.000 C 
ATOM      2  C   UNL     1      -2.747   1.640  22.986  0.00  0.00    +0.000 C 
ATOM      3  C   UNL     1      -2.998   1.798  22.217  0.00  0.00    +0.000 C 
ENDBRANCH   4   2
BRANCH   6   7
ATOM      7  C   UNL     1      -4.264   2.954  25.018  0.00  0.00    +0.091 C 
BRANCH   7   8
ATOM      8  C   UNL     1      -3.679   3.443  25.332  0.00  0.00    +0.227 A 
ATOM      9  N   UNL     1      -3.622   3.687  26.119  0.00  0.00    -0.111 NA
ATOM     10  N   UNL     1      -2.956   4.170  26.188  0.00  0.00    -0.107 NA
ATOM     11  C   UNL     1      -2.602   4.224  25.444  0.00  0.00    +0.250 A 
ATOM     12  O   UNL     1      -3.050   3.775  24.916  0.00  0.00    -0.420 OA
BRANCH  11  13
ATOM     13  C   UNL     1      -1.922   4.652  25.261  0.00  0.00    +0.058 A 
ATOM     14  C   UNL     1      -1.192   4.269  25.217  0.00  0.00    +0.025 A 
ATOM     15  C   UNL     1      -0.511   4.696  25.034  0.00  0.00    +0.099 A 
ATOM     16  N   UNL     1      -0.559   5.508  24.895  0.00  0.00    -0.242 NA
ATOM     17  C   UNL     1      -1.287   5.892  24.938  0.00  0.00    +0.099 A 
ATOM     18  C   UNL     1      -1.969   5.464  25.122  0.00  0.00    +0.025 A 
ENDBRANCH  11  13
ENDBRANCH   7   8
ENDBRANCH   6   7
BRANCH  22  23
ATOM     23  C   UNL     1      -3.423   0.197  23.414  0.00  0.00    +0.076 C 
BRANCH  23  24
ATOM     24  N   UNL     1      -3.445  -0.531  23.804  0.00  0.00    -0.272 NA
ATOM     25  C   UNL     1      -4.088  -1.037  23.694  0.00  0.00    +0.073 C 
ATOM     26  C   UNL     1      -4.110  -1.764  24.083  0.00  0.00    +0.027 C 
ATOM     27  C   UNL     1      -3.491  -1.985  24.583  0.00  0.00    +0.083 C 
ATOM     28  C   UNL     1      -2.849  -1.478  24.692  0.00  0.00    +0.027 C 
ATOM     29  C   UNL     1      -2.827  -0.751  24.302  0.00  0.00    +0.073 C 
BRANCH  27  30
ATOM     30  C   UNL     1      -3.513  -2.711  24.971  0.00  0.00    +0.260 C 
ATOM     31  N   UNL     1      -3.593  -3.409  24.538  0.00  0.00    -0.088 NA
ATOM     32  O   UNL     1      -3.457  -2.741  25.794  0.00  0.00    -0.272 OA
ENDBRANCH  27  30
ENDBRANCH  23  24
ENDBRANCH  22  23
TORSDOF 7
ENDMDL
MODEL 3
REMARK VINA RESULT:     -11.0      1.460      4.685
REMARK  Name = 
REMARK  7 active torsions:
REMARK  status: ('A' for Active; 'I' for Inactive)
REMARK    1  A    between atoms: C_2  and  C_4
REMARK    2  A    between atoms: C_6  and  C_7
REMARK    3  A    between atoms: C_7  and  C_8
REMARK    4  A    between atoms: C_11  and  C_13
REMARK    5  A    between atoms: C_22  and  C_23
REMARK    6  A    between atoms: C_23  and  N_24
REMARK    7  A    between atoms: C_27  and  C_30
REMARK                            x       y       z     vdW  Elec       q    Type
REMARK                         _______ _______ _______ _____ _____    ______ ____
ROOT
ATOM      4  C   UNL     1      -4.741   1.748  24.915  0.00  0.00    +0.006 C 
ATOM      5  C   UNL     1      -4.691   0.996  24.581  0.00  0.00    +0.005 C 
ATOM      6  C   UNL     1      -4.116   0.836  24.011  0.00  0.00    +0.027 C 
ATOM     19  C   UNL     1      -3.592   1.429  23.775  0.00  0.00    -0.048 C 
ATOM     20  C   UNL     1      -3.018   1.269  23.206  0.00  0.00    +0.026 C 
ATOM     21  C   UNL     1      -3.644   2.181  24.110  0.00  0.00    -0.034 C 
ATOM     22  C   UNL     1      -4.218   2.341  24.680  0.00  0.00    +0.037 C 
ENDROOT
BRANCH   4   2
ATOM      1  C   UNL     1      -6.012   2.297  25.271  0.00  0.00    +0.000 C 
ATOM      2  C   UNL     1      -5.316   1.907  25.485  0.00  0.00    +0.000 C 
ATOM      3  C   UNL     1      -5.196   1.678  26.268  0.00  0.00    +0.000 C 
ENDBRANCH   4   2
BRANCH   6   7
ATOM      7  C   UNL     1      -4.065   0.083  23.677  0.00  0.00    +0.091 C 
BRANCH   7   8
ATOM      8  C   UNL     1      -3.702  -0.529  24.092  0.00  0.00    +0.227 A 
ATOM      9  N   UNL     1      -4.088  -1.148  24.478  0.00  0.00    -0.111 NA
ATOM     10  N   UNL     1      -3.514  -1.633  24.820  0.00  0.00    -0.107 NA
ATOM     11  C   UNL     1      -2.774  -1.313  24.645  0.00  0.00    +0.250 A 
ATOM     12  O   UNL     1      -2.891  -0.631  24.195  0.00  0.00    -0.420 OA
BRANCH  11  13
ATOM     13  C   UNL     1      -2.045  -1.620  24.879  0.00  0.00    +0.058 A 
ATOM     14  C   UNL     1      -1.799  -2.356  24.598  0.00  0.00    +0.025 A 
ATOM     15  C   UNL     1      -1.070  -2.665  24.831  0.00  0.00    +0.099 A 
ATOM     16  N   UNL     1      -0.587  -2.236  25.346  0.00  0.00    -0.242 NA
ATOM     17  C   UNL     1      -0.833  -1.501  25.627  0.00  0.00    +0.099 A 
ATOM     18  C   UNL     1      -1.563  -1.193  25.393  0.00  0.00    +0.025 A 
ENDBRANCH  11  13
ENDBRANCH   7   8
ENDBRANCH   6   7
BRANCH  22  23
ATOM     23  C   UNL     1      -4.269   3.093  25.014  0.00  0.00    +0.076 C 
BRANCH  23  24
ATOM     24  N   UNL     1      -3.598   3.571  25.058  0.00  0.00    -0.272 NA
ATOM     25  C   UNL     1      -3.094   3.515  25.710  0.00  0.00    +0.073 C 
ATOM     26  C   UNL     1      -2.423   3.994  25.754  0.00  0.00    +0.027 C 
ATOM     27  C   UNL     1      -2.256   4.528  25.147  0.00  0.00    +0.083 C 
ATOM     28  C   UNL     1      -2.760   4.583  24.496  0.00  0.00    +0.027 C 
ATOM     29  C   UNL     1      -3.431   4.105  24.452  0.00  0.00    +0.073 C 
BRANCH  27  30
ATOM     30  C   UNL     1      -1.586   5.005  25.191  0.00  0.00    +0.260 C 
ATOM     31  N   UNL     1      -0.835   4.674  25.099  0.00  0.00    -0.088 NA
ATOM     32  O   UNL     1      -1.664   5.815  25.328  0.00  0.00    -0.272 OA
ENDBRANCH  27  30
ENDBRANCH  23  24
ENDBRANCH  22  23
TORSDOF 7
ENDMDL
MODEL 4
REMARK VINA RESULT:     -10.8      2.004      3.901
REMARK  Name = 
REMARK  7 active torsions:
REMARK  status: ('A' for Active; 'I' for Inactive)
REMARK    1  A    between atoms: C_2  and  C_4
REMARK    2  A    between atoms: C_6  and  C_7
REMARK    3  A    between atoms: C_7  and  C_8
REMARK    4  A    between atoms: C_11  and  C_13
REMARK    5  A    between atoms: C_22  and  C_23
REMARK    6  A    between atoms: C_23  and  N_24
REMARK    7  A    between atoms: C_27  and  C_30
REMARK                            x       y       z     vdW  Elec       q    Type
REMARK                         _______ _______ _______ _____ _____    ______ ____
ROOT
ATOM      4  C   UNL     1      -1.271   2.535  24.678  0.00  0.00    +0.006 C 
ATOM      5  C   UNL     1      -1.916   2.958  24.386  0.00  0.00    +0.005 C 
ATOM      6  C   UNL     1      -2.382   2.635  23.786  0.00  0.00    +0.027 C 
ATOM     19  C   UNL     1      -2.203   1.890  23.479  0.00  0.00    -0.048 C 
ATOM     20  C   UNL     1      -2.669   1.568  22.880  0.00  0.00    +0.026 C 
ATOM     21  C   UNL     1      -1.558   1.468  23.773  0.00  0.00    -0.034 C 
ATOM     22  C   UNL     1      -1.092   1.790  24.372  0.00  0.00    +0.037 C 
ENDROOT
BRANCH   4   2
ATOM      1  C   UNL     1      -0.088   3.222  25.091  0.00  0.00    +0.000 C 
ATOM      2  C   UNL     1      -0.805   2.858  25.278  0.00  0.00    +0.000 C 
ATOM      3  C   UNL     1      -1.055   2.816  26.062  0.00  0.00    +0.000 C 
ENDBRANCH   4   2
BRANCH   6   7
ATOM      7  C   UNL     1      -3.027   3.058  23.493  0.00  0.00    +0.091 C 
BRANCH   7   8
ATOM      8  C   UNL     1      -3.684   3.193  23.973  0.00  0.00    +0.227 A 
ATOM      9  N   UNL     1      -3.981   3.932  24.191  0.00  0.00    -0.111 NA
ATOM     10  N   UNL     1      -4.640   3.809  24.672  0.00  0.00    -0.107 NA
ATOM     11  C   UNL     1      -4.750   2.995  24.751  0.00  0.00    +0.250 A 
ATOM     12  O   UNL     1      -4.159   2.615  24.319  0.00  0.00    -0.420 OA
BRANCH  11  13
ATOM     13  C   UNL     1      -5.346   2.626  25.185  0.00  0.00    +0.058 A 
ATOM     14  C   UNL     1      -5.837   2.070  24.823  0.00  0.00    +0.025 A 
ATOM     15  C   UNL     1      -6.434   1.700  25.257  0.00  0.00    +0.099 A 
ATOM     16  N   UNL     1      -6.539   1.887  26.054  0.00  0.00    -0.242 NA
ATOM     17  C   UNL     1      -6.049   2.442  26.417  0.00  0.00    +0.099 A 
ATOM     18  C   UNL     1      -5.452   2.812  25.981  0.00  0.00    +0.025 A 
ENDBRANCH  11  13
ENDBRANCH   7   8
ENDBRANCH   6   7
BRANCH  22  23
ATOM     23  C   UNL     1      -0.447   1.368  24.665  0.00  0.00    +0.076 C 
BRANCH  23  24
ATOM     24  N   UNL     1      -0.496   0.548  24.753  0.00  0.00    -0.272 NA
ATOM     25  C   UNL     1      -0.148   0.052  24.192  0.00  0.00    +0.073 C 
ATOM     26  C   UNL     1      -0.197  -0.767  24.280  0.00  0.00    +0.027 C 
ATOM     27  C   UNL     1      -0.593  -1.090  24.928  0.00  0.00    +0.083 C 
ATOM     28  C   UNL     1      -0.940  -0.593  25.488  0.00  0.00    +0.027 C 
ATOM     29  C   UNL     1      -0.892   0.226  25.400  0.00  0.00    +0.073 C 
BRANCH  27  30
ATOM     30  C   UNL     1      -0.642  -1.907  25.016  0.00  0.00    +0.260 C 
ATOM     31  N   UNL     1      -1.278  -2.321  24.690  0.00  0.00    -0.088 NA
ATOM     32  O   UNL     1      -0.056  -2.314  25.430  0.00  0.00    -0.272 OA
ENDBRANCH  27  30
ENDBRANCH  23  24
ENDBRANCH  22  23
TORSDOF 7
ENDMDL
MODEL 5
REMARK VINA RESULT:     -10.7      2.162      4.765
REMARK  Name = 
REMARK  7 active torsions:
REMARK  status: ('A' for Active; 'I' for Inactive)
REMARK    1  A    between atoms: C_2  and  C_4
REMARK    2  A    between atoms: C_6  and  C_7
REMARK    3  A    between atoms: C_7  and  C_8
REMARK    4  A    between atoms: C_11  and  C_13
REMARK    5  A    between atoms: C_22  and  C_23
REMARK    6  A    between atoms: C_23  and  N_24
REMARK    7  A    between atoms: C_27  and  C_30
REMARK                            x       y       z     vdW  Elec       q    Type
REMARK                         _______ _______ _______ _____ _____    ______ ____
ROOT
ATOM      4  C   UNL     1      -1.326   3.020  24.703  0.00  0.00    +0.006 C 
ATOM      5  C   UNL     1      -0.966   2.450  24.228  0.00  0.00    +0.005 C 
ATOM      6  C   UNL     1      -1.409   2.050  23.658  0.00  0.00    +0.027 C 
ATOM     19  C   UNL     1      -2.211   2.221  23.563  0.00  0.00    -0.048 C 
ATOM     20  C   UNL     1      -2.653   1.821  22.993  0.00  0.00    +0.026 C 
ATOM     21  C   UNL     1      -2.570   2.791  24.039  0.00  0.00    -0.034 C 
ATOM     22  C   UNL     1      -2.128   3.191  24.608  0.00  0.00    +0.037 C 
ENDROOT
BRANCH   4   2
ATOM      1  C   UNL     1      -0.711   3.054  25.993  0.00  0.00    +0.000 C 
ATOM      2  C   UNL     1      -0.883   3.420  25.273  0.00  0.00    +0.000 C 
ATOM      3  C   UNL     1      -0.613   4.184  25.124  0.00  0.00    +0.000 C 
ENDBRANCH   4   2
BRANCH   6   7
ATOM      7  C   UNL     1      -1.049   1.480  23.183  0.00  0.00    +0.091 C 
BRANCH   7   8
ATOM      8  C   UNL     1      -0.747   0.792  23.521  0.00  0.00    +0.227 A 
ATOM      9  N   UNL     1       0.051   0.585  23.568  0.00  0.00    -0.111 NA
ATOM     10  N   UNL     1       0.103  -0.146  23.948  0.00  0.00    -0.107 NA
ATOM     11  C   UNL     1      -0.662  -0.390  24.137  0.00  0.00    +0.250 A 
ATOM     12  O   UNL     1      -1.187   0.190  23.873  0.00  0.00    -0.420 OA
BRANCH  11  13
ATOM     13  C   UNL     1      -0.867  -1.090  24.522  0.00  0.00    +0.058 A 
ATOM     14  C   UNL     1      -0.562  -1.253  25.271  0.00  0.00    +0.025 A 
ATOM     15  C   UNL     1      -0.767  -1.953  25.657  0.00  0.00    +0.099 A 
ATOM     16  N   UNL     1      -1.277  -2.490  25.293  0.00  0.00    -0.242 NA
ATOM     17  C   UNL     1      -1.582  -2.328  24.544  0.00  0.00    +0.099 A 
ATOM     18  C   UNL     1      -1.377  -1.626  24.159  0.00  0.00    +0.025 A 
ENDBRANCH  11  13
ENDBRANCH   7   8
ENDBRANCH   6   7
BRANCH  22  23
ATOM     23  C   UNL     1      -2.487   3.761  25.084  0.00  0.00    +0.076 C 
BRANCH  23  24
ATOM     24  N   UNL     1      -3.297   3.719  25.239  0.00  0.00    -0.272 NA
ATOM     25  C   UNL     1      -3.830   4.124  24.757  0.00  0.00    +0.073 C 
ATOM     26  C   UNL     1      -4.639   4.082  24.912  0.00  0.00    +0.027 C 
ATOM     27  C   UNL     1      -4.915   3.635  25.549  0.00  0.00    +0.083 C 
ATOM     28  C   UNL     1      -4.381   3.230  26.030  0.00  0.00    +0.027 C 
ATOM     29  C   UNL     1      -3.572   3.272  25.875  0.00  0.00    +0.073 C 
BRANCH  27  30
ATOM     30  C   UNL     1      -5.723   3.592  25.703  0.00  0.00    +0.260 C 
ATOM     31  N   UNL     1      -6.073   2.865  25.880  0.00  0.00    -0.088 NA
ATOM     32  O   UNL     1      -6.184   4.276  25.682  0.00  0.00    -0.272 OA
ENDBRANCH  27  30
ENDBRANCH  23  24
ENDBRANCH  22  23
TORSDOF 7
ENDMDL
MODEL 6
REMARK VINA RESULT:     -10.7      2.764      4.379
REMARK  Name = 
REMARK  7 active torsions:
REMARK  status: ('A' for Active; 'I' for Inactive)
REMARK    1  A    between atoms: C_2  and  C_4
REMARK    2  A    between atoms: C_6  and  C_7
REMARK    3  A    between atoms: C_7  and  C_8
REMARK    4  A    between atoms: C_11  and  C_13
REMARK    5  A    between atoms: C_22  and  C_23
REMARK    6  A    between atoms: C_23  and  N_24
REMARK    7  A    between atoms: C_27  and  C_30
REMARK                            x       y       z     vdW  Elec       q    Type
REMARK                         _______ _______ _______ _____ _____    ______ ____
ROOT
ATOM      4  C   UNL     1      -3.111  -0.210  24.615  0.00  0.00    +0.006 C 
ATOM      5  C   UNL     1      -2.332  -0.385  24.822  0.00  0.00    +0.005 C 
ATOM      6  C   UNL     1      -1.827   0.217  25.074  0.00  0.00    +0.027 C 
ATOM     19  C   UNL     1      -2.100   0.994  25.117  0.00  0.00    -0.048 C 
ATOM     20  C   UNL     1      -1.595   1.596  25.368  0.00  0.00    +0.026 C 
ATOM     21  C   UNL     1      -2.880   1.169  24.909  0.00  0.00    -0.034 C 
ATOM     22  C   UNL     1      -3.385   0.568  24.658  0.00  0.00    +0.037 C 
ENDROOT
BRANCH   4   2
ATOM      1  C   UNL     1      -3.968  -1.312  24.918  0.00  0.00    +0.000 C 
ATOM      2  C   UNL     1      -3.616  -0.812  24.364  0.00  0.00    +0.000 C 
ATOM      3  C   UNL     1      -3.769  -0.914  23.561  0.00  0.00    +0.000 C 
ENDBRANCH   4   2
BRANCH   6   7
ATOM      7  C   UNL     1      -1.048   0.041  25.281  0.00  0.00    +0.091 C 
BRANCH   7   8
ATOM      8  C   UNL     1      -0.542  -0.303  24.730  0.00  0.00    +0.227 A 
ATOM      9  N   UNL     1      -0.431  -1.113  24.613  0.00  0.00    -0.111 NA
ATOM     10  N   UNL     1       0.123  -1.210  24.009  0.00  0.00    -0.107 NA
ATOM     11  C   UNL     1       0.354  -0.460  23.753  0.00  0.00    +0.250 A 
ATOM     12  O   UNL     1      -0.057   0.100  24.199  0.00  0.00    -0.420 OA
BRANCH  11  13
ATOM     13  C   UNL     1       0.900  -0.299  23.156  0.00  0.00    +0.058 A 
ATOM     14  C   UNL     1       1.625   0.047  23.342  0.00  0.00    +0.025 A 
ATOM     15  C   UNL     1       2.172   0.210  22.746  0.00  0.00    +0.099 A 
ATOM     16  N   UNL     1       1.992   0.025  21.962  0.00  0.00    -0.242 NA
ATOM     17  C   UNL     1       1.268  -0.321  21.774  0.00  0.00    +0.099 A 
ATOM     18  C   UNL     1       0.721  -0.483  22.372  0.00  0.00    +0.025 A 
ENDBRANCH  11  13
ENDBRANCH   7   8
ENDBRANCH   6   7
BRANCH  22  23
ATOM     23  C   UNL     1      -4.163   0.742  24.450  0.00  0.00    +0.076 C 
BRANCH  23  24
ATOM     24  N   UNL     1      -4.510   1.447  24.706  0.00  0.00    -0.272 NA
ATOM     25  C   UNL     1      -4.427   2.134  24.257  0.00  0.00    +0.073 C 
ATOM     26  C   UNL     1      -4.774   2.838  24.512  0.00  0.00    +0.027 C 
ATOM     27  C   UNL     1      -5.204   2.854  25.217  0.00  0.00    +0.083 C 
ATOM     28  C   UNL     1      -5.286   2.166  25.666  0.00  0.00    +0.027 C 
ATOM     29  C   UNL     1      -4.939   1.463  25.410  0.00  0.00    +0.073 C 
BRANCH  27  30
ATOM     30  C   UNL     1      -5.550   3.557  25.473  0.00  0.00    +0.260 C 
ATOM     31  N   UNL     1      -5.149   4.272  25.381  0.00  0.00    -0.088 NA
ATOM     32  O   UNL     1      -6.298   3.546  25.820  0.00  0.00    -0.272 OA
ENDBRANCH  27  30
ENDBRANCH  23  24
ENDBRANCH  22  23
TORSDOF 7
ENDMDL
MODEL 7
REMARK VINA RESULT:     -10.4      2.078      5.960
REMARK  Name = 
REMARK  7 active torsions:
REMARK  status: ('A' for Active; 'I' for Inactive)
REMARK    1  A    between atoms: C_2  and  C_4
REMARK    2  A    between atoms: C_6  and  C_7
REMARK    3  A    between atoms: C_7  and  C_8
REMARK    4  A    between atoms: C_11  and  C_13
REMARK    5  A    between atoms: C_22  and  C_23
REMARK    6  A    between atoms: C_23  and  N_24
REMARK    7  A    between atoms: C_27  and  C_30
REMARK                            x       y       z     vdW  Elec       q    Type
REMARK                         _______ _______ _______ _____ _____    ______ ____
ROOT
ATOM      4  C   UNL     1      -0.132   0.501  24.199  0.00  0.00    +0.006 C 
ATOM      5  C   UNL     1      -0.318  -0.232  24.529  0.00  0.00    +0.005 C 
ATOM      6  C   UNL     1      -0.706  -0.269  25.257  0.00  0.00    +0.027 C 
ATOM     19  C   UNL     1      -0.908   0.425  25.654  0.00  0.00    -0.048 C 
ATOM     20  C   UNL     1      -1.295   0.387  26.380  0.00  0.00    +0.026 C 
ATOM     21  C   UNL     1      -0.721   1.158  25.323  0.00  0.00    -0.034 C 
ATOM     22  C   UNL     1      -0.334   1.196  24.596  0.00  0.00    +0.037 C 
ENDROOT
BRANCH   4   2
ATOM      1  C   UNL     1      -0.180   0.513  22.771  0.00  0.00    +0.000 C 
ATOM      2  C   UNL     1       0.255   0.538  23.472  0.00  0.00    +0.000 C 
ATOM      3  C   UNL     1       1.077   0.601  23.445  0.00  0.00    +0.000 C 
ENDBRANCH   4   2
BRANCH   6   7
ATOM      7  C   UNL     1      -0.893  -1.002  25.587  0.00  0.00    +0.091 C 
BRANCH   7   8
ATOM      8  C   UNL     1      -1.379  -1.527  25.178  0.00  0.00    +0.227 A 
ATOM      9  N   UNL     1      -1.153  -2.260  24.873  0.00  0.00    -0.111 NA
ATOM     10  N   UNL     1      -1.811  -2.599  24.508  0.00  0.00    -0.107 NA
ATOM     11  C   UNL     1      -2.444  -2.075  24.587  0.00  0.00    +0.250 A 
ATOM     12  O   UNL     1      -2.176  -1.413  25.001  0.00  0.00    -0.420 OA
BRANCH  11  13
ATOM     13  C   UNL     1      -3.209  -2.192  24.303  0.00  0.00    +0.058 A 
ATOM     14  C   UNL     1      -3.673  -1.544  24.089  0.00  0.00    +0.025 A 
ATOM     15  C   UNL     1      -4.439  -1.660  23.805  0.00  0.00    +0.099 A 
ATOM     16  N   UNL     1      -4.740  -2.425  23.733  0.00  0.00    -0.242 NA
ATOM     17  C   UNL     1      -4.277  -3.073  23.946  0.00  0.00    +0.099 A 
ATOM     18  C   UNL     1      -3.510  -2.956  24.231  0.00  0.00    +0.025 A 
ENDBRANCH  11  13
ENDBRANCH   7   8
ENDBRANCH   6   7
BRANCH  22  23
ATOM     23  C   UNL     1      -0.147   1.928  24.266  0.00  0.00    +0.076 C 
BRANCH  23  24
ATOM     24  N   UNL     1      -0.533   2.609  24.529  0.00  0.00    -0.272 NA
ATOM     25  C   UNL     1      -0.183   3.083  25.107  0.00  0.00    +0.073 C 
ATOM     26  C   UNL     1      -0.568   3.764  25.370  0.00  0.00    +0.027 C 
ATOM     27  C   UNL     1      -1.303   3.971  25.054  0.00  0.00    +0.083 C 
ATOM     28  C   UNL     1      -1.651   3.497  24.475  0.00  0.00    +0.027 C 
ATOM     29  C   UNL     1      -1.266   2.816  24.213  0.00  0.00    +0.073 C 
BRANCH  27  30
ATOM     30  C   UNL     1      -1.687   4.651  25.316  0.00  0.00    +0.260 C 
ATOM     31  N   UNL     1      -2.386   4.589  25.752  0.00  0.00    -0.088 NA
ATOM     32  O   UNL     1      -1.375   5.395  25.143  0.00  0.00    -0.272 OA
ENDBRANCH  27  30
ENDBRANCH  23  24
ENDBRANCH  22  23
TORSDOF 7
ENDMDL
