MODEL 1
REMARK VINA RESULT:     -15.0      0.000      0.000
REMARK  Name = 
REMARK  4 active torsions:
REMARK  status: ('A' for Active; 'I' for Inactive)
REMARK    1  A    between atoms: O_2  and  C_3
REMARK    2  A    between atoms: C_3  and  C_4
REMARK    3  A    between atoms: C_4  and  C_5
REMARK    4  A    between atoms: C_16  and  C_17
REMARK                            x       y       z     vdW  Elec       q    Type
REMARK                         _______ _______ _______ _____ _____    ______ ____
ROOT
ATOM      5  C   UNL     1      -2.989   1.966  24.213  0.00  0.00    +0.228 C 
ATOM      6  O   UNL     1      -3.389   1.271  24.411  0.00  0.00    -0.275 OA
ATOM      7  N   UNL     1      -3.324   2.699  24.389  0.00  0.00    -0.279 N 
ATOM      8  C   UNL     1      -3.402   3.530  24.435  0.00  0.00    +0.095 C 
ATOM      9  C   UNL     1      -4.280   3.590  24.883  0.00  0.00    +0.043 C 
ATOM     10  C   UNL     1      -4.979   3.808  25.241  0.00  0.00    +0.011 C 
ATOM     11  C   UNL     1      -4.647   3.214  25.068  0.00  0.00    +0.058 C 
ATOM     12  C   UNL     1      -3.798   3.172  24.634  0.00  0.00    +0.099 C 
ATOM     13  C   UNL     1      -4.738   2.300  25.107  0.00  0.00    +0.041 A 
ATOM     14  C   UNL     1      -5.262   1.719  25.370  0.00  0.00    +0.013 A 
ATOM     15  C   UNL     1      -5.076   0.922  25.269  0.00  0.00    +0.006 A 
ATOM     16  C   UNL     1      -4.368   0.705  24.906  0.00  0.00    +0.062 A 
ATOM     26  C   UNL     1      -3.844   1.286  24.644  0.00  0.00    +0.261 A 
ATOM     27  O   UNL     1      -3.231   0.834  24.328  0.00  0.00    -0.267 OA
ATOM     28  N   UNL     1      -4.030   2.083  24.744  0.00  0.00    -0.299 N 
ATOM     29  C   UNL     1      -4.366   2.635  24.920  0.00  0.00    +0.110 C 
ENDROOT
BRANCH  16  17
ATOM     17  C   UNL     1      -4.183  -0.093  24.806  0.00  0.00    +0.034 A 
ATOM     18  C   UNL     1      -4.358  -0.552  24.144  0.00  0.00    +0.007 A 
ATOM     19  C   UNL     1      -4.075  -1.314  24.280  0.00  0.00    +0.006 A 
ATOM     20  C   UNL     1      -3.724  -1.326  25.027  0.00  0.00    +0.029 A 
ATOM     21  S   UNL     1      -3.791  -0.572  25.352  0.00  0.00    -0.087 S 
ATOM     22  C   UNL     1      -3.388  -2.024  25.314  0.00  0.00    +0.006 A 
ATOM     23  C   UNL     1      -3.404  -2.708  24.855  0.00  0.00    +0.001 A 
ATOM     24  C   UNL     1      -3.754  -2.697  24.108  0.00  0.00    +0.000 A 
ATOM     25  C   UNL     1      -4.089  -2.000  23.821  0.00  0.00    +0.001 A 
ENDBRANCH  16  17
BRANCH   5   4
ATOM      4  C   UNL     1      -2.256   1.927  23.838  0.00  0.00    +0.117 C 
BRANCH   4   3
ATOM      3  C   UNL     1      -1.562   1.957  24.285  0.00  0.00    +0.152 C 
BRANCH   3   2
ATOM      1  C   UNL     1      -0.136   1.928  24.359  0.00  0.00    +0.174 C 
ATOM      2  O   UNL     1      -0.829   1.882  23.914  0.00  0.00    -0.351 OA
ENDBRANCH   3   2
ENDBRANCH   4   3
ENDBRANCH   5   4
TORSDOF 4
ENDMDL
MODEL 2
REMARK VINA RESULT:     -14.0      1.534      4.025
REMARK  Name = 
REMARK  4 active torsions:
REMARK  status: ('A' for Active; 'I' for Inactive)
REMARK    1  A    between atoms: O_2  and  C_3
REMARK    2  A    between atoms: C_3  and  C_4
REMARK    3  A    between atoms: C_4  and  C_5
REMARK    4  A    between atoms: C_16  and  C_17
REMARK                            x       y       z     vdW  Elec       q    Type
REMARK                         _______ _______ _______ _____ _____    ______ ____
ROOT
ATOM      5  C   UNL     1      -1.949  -0.627  24.644  0.00  0.00    +0.228 C 
ATOM      6  O   UNL     1      -2.577  -0.097  24.569  0.00  0.00    -0.275 OA
ATOM      7  N   UNL     1      -2.090  -1.440  24.623  0.00  0.00    -0.279 N 
ATOM      8  C   UNL     1      -1.928  -2.260  24.640  0.00  0.00    +0.095 C 
ATOM      9  C   UNL     1      -2.844  -2.612  24.526  0.00  0.00    +0.043 C 
ATOM     10  C   UNL     1      -3.523  -3.054  24.441  0.00  0.00    +0.011 C 
ATOM     11  C   UNL     1      -3.345  -2.375  24.465  0.00  0.00    +0.058 C 
ATOM     12  C   UNL     1      -2.454  -2.051  24.576  0.00  0.00    +0.099 C 
ATOM     13  C   UNL     1      -3.710  -1.533  24.424  0.00  0.00    +0.041 A 
ATOM     14  C   UNL     1      -4.437  -1.153  24.336  0.00  0.00    +0.013 A 
ATOM     15  C   UNL     1      -4.474  -0.329  24.335  0.00  0.00    +0.006 A 
ATOM     16  C   UNL     1      -3.784   0.116  24.421  0.00  0.00    +0.062 A 
ATOM     26  C   UNL     1      -3.057  -0.264  24.509  0.00  0.00    +0.261 A 
ATOM     27  O   UNL     1      -2.538   0.373  24.575  0.00  0.00    -0.267 OA
ATOM     28  N   UNL     1      -3.020  -1.088  24.510  0.00  0.00    -0.299 N 
ATOM     29  C   UNL     1      -3.216  -1.728  24.484  0.00  0.00    +0.110 C 
ENDROOT
BRANCH  16  17
ATOM     17  C   UNL     1      -3.822   0.939  24.420  0.00  0.00    +0.034 A 
ATOM     18  C   UNL     1      -3.683   1.431  23.772  0.00  0.00    +0.007 A 
ATOM     19  C   UNL     1      -3.781   2.212  24.019  0.00  0.00    +0.006 A 
ATOM     20  C   UNL     1      -3.981   2.203  24.820  0.00  0.00    +0.029 A 
ATOM     21  S   UNL     1      -4.006   1.417  25.067  0.00  0.00    -0.087 S 
ATOM     22  C   UNL     1      -4.114   2.913  25.219  0.00  0.00    +0.006 A 
ATOM     23  C   UNL     1      -4.047   3.631  24.818  0.00  0.00    +0.001 A 
ATOM     24  C   UNL     1      -3.847   3.639  24.018  0.00  0.00    +0.000 A 
ATOM     25  C   UNL     1      -3.714   2.930  23.619  0.00  0.00    +0.001 A 
ENDBRANCH  16  17
BRANCH   5   4
ATOM      4  C   UNL     1      -1.180  -0.345  24.739  0.00  0.00    +0.117 C 
BRANCH   4   3
ATOM      3  C   UNL     1      -0.688  -0.258  24.082  0.00  0.00    +0.152 C 
BRANCH   3   2
ATOM      1  C   UNL     1       0.566   0.133  23.519  0.00  0.00    +0.174 C 
ATOM      2  O   UNL     1       0.061   0.080  24.169  0.00  0.00    -0.351 OA
ENDBRANCH   3   2
ENDBRANCH   4   3
ENDBRANCH   5   4
TORSDOF 4
ENDMDL
MODEL 3
REMARK VINA RESULT:     -13.6      1.708      4.468
REMARK  Name = 
REMARK  4 active torsions:
REMARK  status: ('A' for Active; 'I' for Inactive)
REMARK    1  A    between atoms: O_2  and  C_3
REMARK    2  A    between atoms: C_3  and  C_4
REMARK    3  A    between atoms: C_4  and  C_5
REMARK    4  A    between atoms: C_16  and  C_17
REMARK                            x       y       z     vdW  Elec       q    Type
REMARK                         _______ _______ _______ _____ _____    ______ ____
ROOT
ATOM      5  C   UNL     1      -3.605  -0.106  24.329  0.00  0.00    +0.228 C 
ATOM      6  O   UNL     1      -2.818   0.022  24.544  0.00  0.00    -0.275 OA
ATOM      7  N   UNL     1      -3.892  -0.876  24.254  0.00  0.00    -0.279 N 
ATOM      8  C   UNL     1      -4.434  -1.495  24.108  0.00  0.00    +0.095 C 
ATOM      9  C   UNL     1      -3.847  -2.272  24.273  0.00  0.00    +0.043 C 
ATOM     10  C   UNL     1      -3.501  -3.003  24.371  0.00  0.00    +0.011 C 
ATOM     11  C   UNL     1      -3.312  -2.329  24.420  0.00  0.00    +0.058 C 
ATOM     12  C   UNL     1      -3.892  -1.588  24.257  0.00  0.00    +0.099 C 
ATOM     13  C   UNL     1      -2.589  -1.796  24.616  0.00  0.00    +0.041 A 
ATOM     14  C   UNL     1      -1.795  -1.848  24.834  0.00  0.00    +0.013 A 
ATOM     15  C   UNL     1      -1.355  -1.161  24.951  0.00  0.00    +0.006 A 
ATOM     16  C   UNL     1      -1.707  -0.422  24.851  0.00  0.00    +0.062 A 
ATOM     26  C   UNL     1      -2.501  -0.370  24.633  0.00  0.00    +0.261 A 
ATOM     27  O   UNL     1      -2.617   0.446  24.598  0.00  0.00    -0.267 OA
ATOM     28  N   UNL     1      -2.942  -1.057  24.515  0.00  0.00    -0.299 N 
ATOM     29  C   UNL     1      -3.097  -1.707  24.476  0.00  0.00    +0.110 C 
ENDROOT
BRANCH  16  17
ATOM     17  C   UNL     1      -1.266   0.265  24.969  0.00  0.00    +0.034 A 
ATOM     18  C   UNL     1      -1.217   0.696  25.670  0.00  0.00    +0.007 A 
ATOM     19  C   UNL     1      -0.717   1.339  25.540  0.00  0.00    +0.006 A 
ATOM     20  C   UNL     1      -0.456   1.305  24.758  0.00  0.00    +0.029 A 
ATOM     21  S   UNL     1      -0.795   0.641  24.405  0.00  0.00    -0.087 S 
ATOM     22  C   UNL     1       0.058   1.883  24.469  0.00  0.00    +0.006 A 
ATOM     23  C   UNL     1       0.310   2.494  24.961  0.00  0.00    +0.001 A 
ATOM     24  C   UNL     1       0.049   2.529  25.743  0.00  0.00    +0.000 A 
ATOM     25  C   UNL     1      -0.464   1.951  26.032  0.00  0.00    +0.001 A 
ENDBRANCH  16  17
BRANCH   5   4
ATOM      4  C   UNL     1      -4.104   0.536  24.189  0.00  0.00    +0.117 C 
BRANCH   4   3
ATOM      3  C   UNL     1      -4.572   0.835  24.800  0.00  0.00    +0.152 C 
BRANCH   3   2
ATOM      1  C   UNL     1      -5.513   1.797  25.279  0.00  0.00    +0.174 C 
ATOM      2  O   UNL     1      -5.062   1.485  24.663  0.00  0.00    -0.351 OA
ENDBRANCH   3   2
ENDBRANCH   4   3
ENDBRANCH   5   4
TORSDOF 4
ENDMDL
MODEL 4
REMARK VINA RESULT:     -13.0      1.192      2.507
REMARK  Name = 
REMARK  4 active torsions:
REMARK  status: ('A' for Active; 'I' for Inactive)
REMARK    1  A    between atoms: O_2  and  C_3
REMARK    2  A    between atoms: C_3  and  C_4
REMARK    3  A    between atoms: C_4  and  C_5
REMARK    4  A    between atoms: C_16  and  C_17
REMARK                            x       y       z     vdW  Elec       q    Type
REMARK                         _______ _______ _______ _____ _____    ______ ____
ROOT
ATOM      5  C   UNL     1      -3.674   2.455  24.947  0.00  0.00    +0.228 C 
ATOM      6  O   UNL     1      -3.357   1.694  24.907  0.00  0.00    -0.275 OA
ATOM      7  N   UNL     1      -3.177   3.105  25.055  0.00  0.00    -0.279 N 
ATOM      8  C   UNL     1      -2.946   3.902  25.152  0.00  0.00    +0.095 C 
ATOM      9  C   UNL     1      -1.969   3.782  25.235  0.00  0.00    +0.043 C 
ATOM     10  C   UNL     1      -1.162   3.853  25.320  0.00  0.00    +0.011 C 
ATOM     11  C   UNL     1      -1.630   3.339  25.227  0.00  0.00    +0.058 C 
ATOM     12  C   UNL     1      -2.573   3.471  25.148  0.00  0.00    +0.099 C 
ATOM     13  C   UNL     1      -1.691   2.426  25.137  0.00  0.00    +0.041 A 
ATOM     14  C   UNL     1      -1.217   1.752  25.120  0.00  0.00    +0.013 A 
ATOM     15  C   UNL     1      -1.561   1.009  25.018  0.00  0.00    +0.006 A 
ATOM     16  C   UNL     1      -2.379   0.941  24.932  0.00  0.00    +0.062 A 
ATOM     26  C   UNL     1      -2.853   1.616  24.948  0.00  0.00    +0.261 A 
ATOM     27  O   UNL     1      -3.607   1.299  24.846  0.00  0.00    -0.267 OA
ATOM     28  N   UNL     1      -2.509   2.359  25.051  0.00  0.00    -0.299 N 
ATOM     29  C   UNL     1      -2.042   2.830  25.140  0.00  0.00    +0.110 C 
ENDROOT
BRANCH  16  17
ATOM     17  C   UNL     1      -2.722   0.198  24.830  0.00  0.00    +0.034 A 
ATOM     18  C   UNL     1      -3.059  -0.090  24.134  0.00  0.00    +0.007 A 
ATOM     19  C   UNL     1      -3.334  -0.853  24.280  0.00  0.00    +0.006 A 
ATOM     20  C   UNL     1      -3.167  -1.038  25.067  0.00  0.00    +0.029 A 
ATOM     21  S   UNL     1      -2.789  -0.389  25.406  0.00  0.00    -0.087 S 
ATOM     22  C   UNL     1      -3.381  -1.775  25.372  0.00  0.00    +0.006 A 
ATOM     23  C   UNL     1      -3.761  -2.326  24.891  0.00  0.00    +0.001 A 
ATOM     24  C   UNL     1      -3.928  -2.141  24.104  0.00  0.00    +0.000 A 
ATOM     25  C   UNL     1      -3.714  -1.405  23.799  0.00  0.00    +0.001 A 
ENDBRANCH  16  17
BRANCH   5   4
ATOM      4  C   UNL     1      -4.489   2.567  24.878  0.00  0.00    +0.117 C 
BRANCH   4   3
ATOM      3  C   UNL     1      -4.962   2.579  25.554  0.00  0.00    +0.152 C 
BRANCH   3   2
ATOM      1  C   UNL     1      -6.272   2.412  26.098  0.00  0.00    +0.174 C 
ATOM      2  O   UNL     1      -5.781   2.658  25.483  0.00  0.00    -0.351 OA
ENDBRANCH   3   2
ENDBRANCH   4   3
ENDBRANCH   5   4
TORSDOF 4
ENDMDL
