MODEL 1
REMARK VINA RESULT:     -13.1      0.000      0.000
REMARK  Name = 
REMARK  6 active torsions:
REMARK  status: ('A' for Active; 'I' for Inactive)
REMARK    1  A    between atoms: S_2  and  C_5
REMARK    2  A    between atoms: C_8  and  C_9
REMARK    3  A    between atoms: C_9  and  N_10
REMARK    4  A    between atoms: C_15  and  C_16
REMARK    5  A    between atoms: C_18  and  C_21
REMARK    6  A    between atoms: C_25  and  N_27
REMARK                            x       y       z     vdW  Elec       q    Type
REMARK                         _______ _______ _______ _____ _____    ______ ____
ROOT
ATOM     10  N   UNL     1      -4.551   1.639  25.013  0.00  0.00    -0.260 NA
ATOM     11  C   UNL     1      -5.288   1.340  24.792  0.00  0.00    +0.106 C 
ATOM     12  C   UNL     1      -5.840   1.950  24.862  0.00  0.00    +0.170 C 
ATOM     13  O   UNL     1      -6.646   1.894  24.696  0.00  0.00    -0.222 OA
ATOM     14  C   UNL     1      -5.444   2.624  25.126  0.00  0.00    +0.060 C 
ATOM     15  C   UNL     1      -4.647   2.431  25.219  0.00  0.00    +0.140 C 
ENDROOT
BRANCH  15  16
ATOM     16  C   UNL     1      -4.052   2.941  25.474  0.00  0.00    +0.251 A 
ATOM     17  N   UNL     1      -3.342   3.093  25.081  0.00  0.00    -0.190 NA
ATOM     18  C   UNL     1      -2.912   3.635  25.531  0.00  0.00    +0.203 A 
ATOM     19  N   UNL     1      -3.356   3.818  26.201  0.00  0.00    -0.056 NA
ATOM     20  O   UNL     1      -4.059   3.390  26.166  0.00  0.00    -0.336 OA
BRANCH  18  21
ATOM     21  C   UNL     1      -2.169   3.940  25.342  0.00  0.00    +0.041 A 
ATOM     22  C   UNL     1      -2.073   4.751  25.231  0.00  0.00    +0.003 A 
ATOM     23  C   UNL     1      -1.329   5.056  25.043  0.00  0.00    +0.002 A 
ATOM     24  C   UNL     1      -0.683   4.550  24.966  0.00  0.00    +0.024 A 
ATOM     25  C   UNL     1      -0.779   3.738  25.078  0.00  0.00    +0.143 A 
ATOM     26  C   UNL     1      -1.522   3.433  25.266  0.00  0.00    +0.027 A 
BRANCH  25  27
ATOM     27  N   UNL     1      -0.132   3.231  25.001  0.00  0.00    +0.058 N 
ATOM     28  O   UNL     1       0.069   2.930  24.261  0.00  0.00    -0.126 OA
ATOM     29  O   UNL     1       0.312   3.027  25.666  0.00  0.00    -0.126 OA
ENDBRANCH  25  27
ENDBRANCH  18  21
ENDBRANCH  15  16
BRANCH  10   9
ATOM      9  C   UNL     1      -3.842   1.217  25.026  0.00  0.00    +0.100 C 
BRANCH   9   8
ATOM      5  C   UNL     1      -3.834  -1.207  24.524  0.00  0.00    +0.106 A 
ATOM      6  C   UNL     1      -3.907  -0.948  25.304  0.00  0.00    +0.018 A 
ATOM      7  C   UNL     1      -3.910  -0.140  25.471  0.00  0.00    -0.002 A 
ATOM      8  C   UNL     1      -3.839   0.409  24.858  0.00  0.00    -0.006 A 
ATOM     30  C   UNL     1      -3.766   0.149  24.079  0.00  0.00    -0.002 A 
ATOM     31  C   UNL     1      -3.763  -0.659  23.912  0.00  0.00    +0.018 A 
BRANCH   5   2
ATOM      1  C   UNL     1      -3.828  -2.823  24.190  0.00  0.00    +0.182 C 
ATOM      2  S   UNL     1      -3.831  -2.014  24.357  0.00  0.00    +0.010 S 
ATOM      3  O   UNL     1      -3.247  -2.131  24.928  0.00  0.00    -0.169 OA
ATOM      4  O   UNL     1      -4.415  -1.899  23.786  0.00  0.00    -0.169 OA
ENDBRANCH   5   2
ENDBRANCH   9   8
ENDBRANCH  10   9
TORSDOF 6
ENDMDL
MODEL 2
REMARK VINA RESULT:     -12.8      1.961      3.500
REMARK  Name = 
REMARK  6 active torsions:
REMARK  status: ('A' for Active; 'I' for Inactive)
REMARK    1  A    between atoms: S_2  and  C_5
REMARK    2  A    between atoms: C_8  and  C_9
REMARK    3  A    between atoms: C_9  and  N_10
REMARK    4  A    between atoms: C_15  and  C_16
REMARK    5  A    between atoms: C_18  and  C_21
REMARK    6  A    between atoms: C_25  and  N_27
REMARK                            x       y       z     vdW  Elec       q    Type
REMARK                         _______ _______ _______ _____ _____    ______ ____
ROOT
ATOM     10  N   UNL     1      -0.417   0.273  24.484  0.00  0.00    -0.260 NA
ATOM     11  C   UNL     1      -0.138  -0.259  23.919  0.00  0.00    +0.106 C 
ATOM     12  C   UNL     1       0.400   0.141  23.437  0.00  0.00    +0.170 C 
ATOM     13  O   UNL     1       0.812  -0.181  22.799  0.00  0.00    -0.222 OA
ATOM     14  C   UNL     1       0.452   0.919  23.705  0.00  0.00    +0.060 C 
ATOM     15  C   UNL     1      -0.053   1.001  24.353  0.00  0.00    +0.140 C 
ENDROOT
BRANCH  15  16
ATOM     16  C   UNL     1      -0.172   1.689  24.791  0.00  0.00    +0.251 A 
ATOM     17  N   UNL     1      -0.724   2.280  24.625  0.00  0.00    -0.190 NA
ATOM     18  C   UNL     1      -0.654   2.863  25.203  0.00  0.00    +0.203 A 
ATOM     19  N   UNL     1      -0.060   2.633  25.727  0.00  0.00    -0.056 NA
ATOM     20  O   UNL     1       0.237   1.908  25.472  0.00  0.00    -0.336 OA
BRANCH  18  21
ATOM     21  C   UNL     1      -1.100   3.556  25.250  0.00  0.00    +0.041 A 
ATOM     22  C   UNL     1      -0.771   4.275  25.013  0.00  0.00    +0.003 A 
ATOM     23  C   UNL     1      -1.218   4.968  25.060  0.00  0.00    +0.002 A 
ATOM     24  C   UNL     1      -1.992   4.941  25.343  0.00  0.00    +0.024 A 
ATOM     25  C   UNL     1      -2.321   4.222  25.580  0.00  0.00    +0.143 A 
ATOM     26  C   UNL     1      -1.875   3.530  25.533  0.00  0.00    +0.027 A 
BRANCH  25  27
ATOM     27  N   UNL     1      -3.095   4.196  25.863  0.00  0.00    +0.058 N 
ATOM     28  O   UNL     1      -3.241   4.267  26.671  0.00  0.00    -0.126 OA
ATOM     29  O   UNL     1      -3.723   4.098  25.337  0.00  0.00    -0.126 OA
ENDBRANCH  25  27
ENDBRANCH  18  21
ENDBRANCH  15  16
BRANCH  10   9
ATOM      9  C   UNL     1      -0.964   0.105  25.078  0.00  0.00    +0.100 C 
BRANCH   9   8
ATOM      5  C   UNL     1      -2.589  -1.738  24.779  0.00  0.00    +0.106 A 
ATOM      6  C   UNL     1      -1.852  -1.889  25.116  0.00  0.00    +0.018 A 
ATOM      7  C   UNL     1      -1.310  -1.275  25.216  0.00  0.00    -0.002 A 
ATOM      8  C   UNL     1      -1.506  -0.509  24.978  0.00  0.00    -0.006 A 
ATOM     30  C   UNL     1      -2.244  -0.359  24.641  0.00  0.00    -0.002 A 
ATOM     31  C   UNL     1      -2.785  -0.973  24.542  0.00  0.00    +0.018 A 
BRANCH   5   2
ATOM      1  C   UNL     1      -3.672  -2.967  24.581  0.00  0.00    +0.182 C 
ATOM      2  S   UNL     1      -3.130  -2.352  24.680  0.00  0.00    +0.010 S 
ATOM      3  O   UNL     1      -3.595  -2.042  25.287  0.00  0.00    -0.169 OA
ATOM      4  O   UNL     1      -2.667  -2.664  24.073  0.00  0.00    -0.169 OA
ENDBRANCH   5   2
ENDBRANCH   9   8
ENDBRANCH  10   9
TORSDOF 6
ENDMDL
MODEL 3
REMARK VINA RESULT:     -12.1      2.042      4.884
REMARK  Name = 
REMARK  6 active torsions:
REMARK  status: ('A' for Active; 'I' for Inactive)
REMARK    1  A    between atoms: S_2  and  C_5
REMARK    2  A    between atoms: C_8  and  C_9
REMARK    3  A    between atoms: C_9  and  N_10
REMARK    4  A    between atoms: C_15  and  C_16
REMARK    5  A    between atoms: C_18  and  C_21
REMARK    6  A    between atoms: C_25  and  N_27
REMARK                            x       y       z     vdW  Elec       q    Type
REMARK                         _______ _______ _______ _____ _____    ______ ____
ROOT
ATOM     10  N   UNL     1      -4.360   2.042  24.961  0.00  0.00    -0.260 NA
ATOM     11  C   UNL     1      -4.749   2.635  25.383  0.00  0.00    +0.106 C 
ATOM     12  C   UNL     1      -5.375   2.287  25.792  0.00  0.00    +0.170 C 
ATOM     13  O   UNL     1      -5.910   2.678  26.283  0.00  0.00    -0.222 OA
ATOM     14  C   UNL     1      -5.373   1.480  25.623  0.00  0.00    +0.060 C 
ATOM     15  C   UNL     1      -4.745   1.328  25.109  0.00  0.00    +0.140 C 
ENDROOT
BRANCH  15  16
ATOM     16  C   UNL     1      -4.539   0.593  24.799  0.00  0.00    +0.251 A 
ATOM     17  N   UNL     1      -3.977   0.075  25.110  0.00  0.00    -0.190 NA
ATOM     18  C   UNL     1      -3.950  -0.592  24.626  0.00  0.00    +0.203 A 
ATOM     19  N   UNL     1      -4.495  -0.488  24.016  0.00  0.00    -0.056 NA
ATOM     20  O   UNL     1      -4.859   0.244  24.123  0.00  0.00    -0.336 OA
BRANCH  18  21
ATOM     21  C   UNL     1      -3.462  -1.250  24.733  0.00  0.00    +0.041 A 
ATOM     22  C   UNL     1      -3.795  -1.988  24.891  0.00  0.00    +0.003 A 
ATOM     23  C   UNL     1      -3.307  -2.645  24.998  0.00  0.00    +0.002 A 
ATOM     24  C   UNL     1      -2.488  -2.564  24.948  0.00  0.00    +0.024 A 
ATOM     25  C   UNL     1      -2.155  -1.825  24.790  0.00  0.00    +0.143 A 
ATOM     26  C   UNL     1      -2.643  -1.168  24.683  0.00  0.00    +0.027 A 
BRANCH  25  27
ATOM     27  N   UNL     1      -1.336  -1.744  24.740  0.00  0.00    +0.058 N 
ATOM     28  O   UNL     1      -0.880  -1.736  25.427  0.00  0.00    -0.126 OA
ATOM     29  O   UNL     1      -0.974  -1.670  24.002  0.00  0.00    -0.126 OA
ENDBRANCH  25  27
ENDBRANCH  18  21
ENDBRANCH  15  16
BRANCH  10   9
ATOM      9  C   UNL     1      -3.701   2.145  24.476  0.00  0.00    +0.100 C 
BRANCH   9   8
ATOM      5  C   UNL     1      -2.109   3.986  24.926  0.00  0.00    +0.106 A 
ATOM      6  C   UNL     1      -1.983   3.242  25.259  0.00  0.00    +0.018 A 
ATOM      7  C   UNL     1      -2.513   2.628  25.110  0.00  0.00    -0.002 A 
ATOM      8  C   UNL     1      -3.170   2.759  24.626  0.00  0.00    -0.006 A 
ATOM     30  C   UNL     1      -3.295   3.503  24.293  0.00  0.00    -0.002 A 
ATOM     31  C   UNL     1      -2.764   4.117  24.444  0.00  0.00    +0.018 A 
BRANCH   5   2
ATOM      1  C   UNL     1      -1.047   5.213  25.226  0.00  0.00    +0.182 C 
ATOM      2  S   UNL     1      -1.578   4.600  25.076  0.00  0.00    +0.010 S 
ATOM      3  O   UNL     1      -0.995   4.199  24.652  0.00  0.00    -0.169 OA
ATOM      4  O   UNL     1      -2.161   5.001  25.501  0.00  0.00    -0.169 OA
ENDBRANCH   5   2
ENDBRANCH   9   8
ENDBRANCH  10   9
TORSDOF 6
ENDMDL
MODEL 4
REMARK VINA RESULT:     -11.5      2.659      6.071
REMARK  Name = 
REMARK  6 active torsions:
REMARK  status: ('A' for Active; 'I' for Inactive)
REMARK    1  A    between atoms: S_2  and  C_5
REMARK    2  A    between atoms: C_8  and  C_9
REMARK    3  A    between atoms: C_9  and  N_10
REMARK    4  A    between atoms: C_15  and  C_16
REMARK    5  A    between atoms: C_18  and  C_21
REMARK    6  A    between atoms: C_25  and  N_27
REMARK                            x       y       z     vdW  Elec       q    Type
REMARK                         _______ _______ _______ _____ _____    ______ ____
ROOT
ATOM     10  N   UNL     1      -0.316   0.941  24.615  0.00  0.00    -0.260 NA
ATOM     11  C   UNL     1       0.252   1.353  24.181  0.00  0.00    +0.106 C 
ATOM     12  C   UNL     1       0.653   0.811  23.706  0.00  0.00    +0.170 C 
ATOM     13  O   UNL     1       1.266   0.985  23.182  0.00  0.00    -0.222 OA
ATOM     14  C   UNL     1       0.332   0.063  23.846  0.00  0.00    +0.060 C 
ATOM     15  C   UNL     1      -0.266   0.144  24.409  0.00  0.00    +0.140 C 
ENDROOT
BRANCH  15  16
ATOM     16  C   UNL     1      -0.733  -0.464  24.711  0.00  0.00    +0.251 A 
ATOM     17  N   UNL     1      -1.406  -0.783  24.353  0.00  0.00    -0.190 NA
ATOM     18  C   UNL     1      -1.698  -1.377  24.845  0.00  0.00    +0.203 A 
ATOM     19  N   UNL     1      -1.207  -1.426  25.506  0.00  0.00    -0.056 NA
ATOM     20  O   UNL     1      -0.612  -0.862  25.423  0.00  0.00    -0.336 OA
BRANCH  18  21
ATOM     21  C   UNL     1      -2.365  -1.841  24.701  0.00  0.00    +0.041 A 
ATOM     22  C   UNL     1      -2.330  -2.658  24.809  0.00  0.00    +0.003 A 
ATOM     23  C   UNL     1      -2.997  -3.123  24.665  0.00  0.00    +0.002 A 
ATOM     24  C   UNL     1      -3.698  -2.769  24.413  0.00  0.00    +0.024 A 
ATOM     25  C   UNL     1      -3.734  -1.952  24.305  0.00  0.00    +0.143 A 
ATOM     26  C   UNL     1      -3.067  -1.488  24.449  0.00  0.00    +0.027 A 
BRANCH  25  27
ATOM     27  N   UNL     1      -4.436  -1.599  24.054  0.00  0.00    +0.058 N 
ATOM     28  O   UNL     1      -4.941  -2.005  23.544  0.00  0.00    -0.126 OA
ATOM     29  O   UNL     1      -4.631  -0.841  24.312  0.00  0.00    -0.126 OA
ENDBRANCH  25  27
ENDBRANCH  18  21
ENDBRANCH  15  16
BRANCH  10   9
ATOM      9  C   UNL     1      -0.841   1.269  25.160  0.00  0.00    +0.100 C 
BRANCH   9   8
ATOM      5  C   UNL     1      -1.256   3.710  25.166  0.00  0.00    +0.106 A 
ATOM      6  C   UNL     1      -1.698   3.217  24.674  0.00  0.00    +0.018 A 
ATOM      7  C   UNL     1      -1.561   2.404  24.671  0.00  0.00    -0.002 A 
ATOM      8  C   UNL     1      -0.979   2.083  25.162  0.00  0.00    -0.006 A 
ATOM     30  C   UNL     1      -0.536   2.575  25.654  0.00  0.00    -0.002 A 
ATOM     31  C   UNL     1      -0.675   3.389  25.656  0.00  0.00    +0.018 A 
BRANCH   5   2
ATOM      1  C   UNL     1      -1.533   5.336  25.170  0.00  0.00    +0.182 C 
ATOM      2  S   UNL     1      -1.394   4.522  25.168  0.00  0.00    +0.010 S 
ATOM      3  O   UNL     1      -2.086   4.404  25.601  0.00  0.00    -0.169 OA
ATOM      4  O   UNL     1      -0.702   4.642  24.735  0.00  0.00    -0.169 OA
ENDBRANCH   5   2
ENDBRANCH   9   8
ENDBRANCH  10   9
TORSDOF 6
ENDMDL
MODEL 5
REMARK VINA RESULT:     -11.3      1.900      3.949
REMARK  Name = 
REMARK  6 active torsions:
REMARK  status: ('A' for Active; 'I' for Inactive)
REMARK    1  A    between atoms: S_2  and  C_5
REMARK    2  A    between atoms: C_8  and  C_9
REMARK    3  A    between atoms: C_9  and  N_10
REMARK    4  A    between atoms: C_15  and  C_16
REMARK    5  A    between atoms: C_18  and  C_21
REMARK    6  A    between atoms: C_25  and  N_27
REMARK                            x       y       z     vdW  Elec       q    Type
REMARK                         _______ _______ _______ _____ _____    ______ ____
ROOT
ATOM     10  N   UNL     1      -1.011   1.927  25.085  0.00  0.00    -0.260 NA
ATOM     11  C   UNL     1      -0.284   1.835  25.463  0.00  0.00    +0.106 C 
ATOM     12  C   UNL     1      -0.159   2.498  25.938  0.00  0.00    +0.170 C 
ATOM     13  O   UNL     1       0.500   2.634  26.415  0.00  0.00    -0.222 OA
ATOM     14  C   UNL     1      -0.809   2.999  25.853  0.00  0.00    +0.060 C 
ATOM     15  C   UNL     1      -1.335   2.646  25.325  0.00  0.00    +0.140 C 
ENDROOT
BRANCH  15  16
ATOM     16  C   UNL     1      -2.059   2.957  25.081  0.00  0.00    +0.251 A 
ATOM     17  N   UNL     1      -2.783   2.859  25.464  0.00  0.00    -0.190 NA
ATOM     18  C   UNL     1      -3.357   3.263  25.031  0.00  0.00    +0.203 A 
ATOM     19  N   UNL     1      -2.989   3.610  24.381  0.00  0.00    -0.056 NA
ATOM     20  O   UNL     1      -2.187   3.421  24.411  0.00  0.00    -0.336 OA
BRANCH  18  21
ATOM     21  C   UNL     1      -4.160   3.311  25.216  0.00  0.00    +0.041 A 
ATOM     22  C   UNL     1      -4.497   4.040  25.404  0.00  0.00    +0.003 A 
ATOM     23  C   UNL     1      -5.300   4.088  25.590  0.00  0.00    +0.002 A 
ATOM     24  C   UNL     1      -5.765   3.407  25.587  0.00  0.00    +0.024 A 
ATOM     25  C   UNL     1      -5.428   2.677  25.399  0.00  0.00    +0.143 A 
ATOM     26  C   UNL     1      -4.625   2.629  25.214  0.00  0.00    +0.027 A 
BRANCH  25  27
ATOM     27  N   UNL     1      -5.894   1.996  25.396  0.00  0.00    +0.058 N 
ATOM     28  O   UNL     1      -6.156   1.679  24.682  0.00  0.00    -0.126 OA
ATOM     29  O   UNL     1      -6.096   1.633  26.109  0.00  0.00    -0.126 OA
ENDBRANCH  25  27
ENDBRANCH  18  21
ENDBRANCH  15  16
BRANCH  10   9
ATOM      9  C   UNL     1      -1.354   1.394  24.557  0.00  0.00    +0.100 C 
BRANCH   9   8
ATOM      5  C   UNL     1      -0.993  -1.039  24.847  0.00  0.00    +0.106 A 
ATOM      6  C   UNL     1      -0.508  -0.607  24.338  0.00  0.00    +0.018 A 
ATOM      7  C   UNL     1      -0.627   0.203  24.241  0.00  0.00    -0.002 A 
ATOM      8  C   UNL     1      -1.234   0.582  24.654  0.00  0.00    -0.006 A 
ATOM     30  C   UNL     1      -1.719   0.151  25.163  0.00  0.00    -0.002 A 
ATOM     31  C   UNL     1      -1.598  -0.660  25.259  0.00  0.00    +0.018 A 
BRANCH   5   2
ATOM      1  C   UNL     1      -0.752  -2.660  25.040  0.00  0.00    +0.182 C 
ATOM      2  S   UNL     1      -0.873  -1.848  24.944  0.00  0.00    +0.010 S 
ATOM      3  O   UNL     1      -1.470  -2.003  24.395  0.00  0.00    -0.169 OA
ATOM      4  O   UNL     1      -0.276  -1.695  25.492  0.00  0.00    -0.169 OA
ENDBRANCH   5   2
ENDBRANCH   9   8
ENDBRANCH  10   9
TORSDOF 6
ENDMDL
