MODEL 1
REMARK VINA RESULT:      -9.8      0.000      0.000
REMARK  Name = 
REMARK  8 active torsions:
REMARK  status: ('A' for Active; 'I' for Inactive)
REMARK    1  A    between atoms: O_2  and  C_3
REMARK    2  A    between atoms: C_3  and  C_4
REMARK    3  A    between atoms: N_8  and  C_9
REMARK    4  A    between atoms: C_10  and  C_11
REMARK    5  A    between atoms: C_11  and  N_12
REMARK    6  A    between atoms: N_12  and  C_13
REMARK    7  A    between atoms: C_13  and  C_14
REMARK    8  A    between atoms: C_22  and  C_23
REMARK                            x       y       z     vdW  Elec       q    Type
REMARK                         _______ _______ _______ _____ _____    ______ ____
ROOT
ATOM      9  C   UNL     1      -3.986   2.260  24.126  0.00  0.00    +0.120 C 
ATOM     10  C   UNL     1      -3.610   1.526  24.111  0.00  0.00    +0.150 C 
ATOM     21  O   UNL     1      -3.114   1.508  23.451  0.00  0.00    -0.350 OA
ATOM     22  C   UNL     1      -3.186   2.230  23.059  0.00  0.00    +0.180 C 
ATOM     25  C   UNL     1      -3.724   2.695  23.476  0.00  0.00    +0.198 C 
ATOM     26  O   UNL     1      -3.960   3.460  23.278  0.00  0.00    -0.219 OA
ENDROOT
BRANCH   9   8
ATOM      4  C   UNL     1      -4.368   3.007  25.333  0.00  0.00    +0.087 C 
ATOM      5  C   UNL     1      -5.069   3.117  25.754  0.00  0.00    +0.020 C 
ATOM      6  C   UNL     1      -5.664   2.692  25.374  0.00  0.00    +0.019 C 
ATOM      7  C   UNL     1      -5.330   2.318  24.717  0.00  0.00    +0.072 C 
ATOM      8  N   UNL     1      -4.530   2.514  24.693  0.00  0.00    -0.269 NA
BRANCH   4   3
ATOM      3  C   UNL     1      -3.633   3.334  25.521  0.00  0.00    +0.158 C 
BRANCH   3   2
ATOM      1  C   UNL     1      -2.830   4.180  26.346  0.00  0.00    +0.174 C 
ATOM      2  O   UNL     1      -3.555   3.822  26.182  0.00  0.00    -0.350 OA
ENDBRANCH   3   2
ENDBRANCH   4   3
ENDBRANCH   9   8
BRANCH  22  23
ATOM     23  C   UNL     1      -2.788   2.449  22.370  0.00  0.00    +0.214 C 
ATOM     24  O   UNL     1      -2.450   1.871  21.887  0.00  0.00    -0.218 OA
ENDBRANCH  22  23
BRANCH  10  11
ATOM     11  C   UNL     1      -3.710   0.918  24.659  0.00  0.00    +0.120 C 
BRANCH  11  12
ATOM     12  N   UNL     1      -3.458   0.153  24.477  0.00  0.00    -0.211 NA
BRANCH  12  13
ATOM     13  C   UNL     1      -3.541  -0.451  25.032  0.00  0.00    +0.115 C 
BRANCH  13  14
ATOM     14  C   UNL     1      -3.377  -1.231  24.821  0.00  0.00    -0.004 A 
ATOM     15  C   UNL     1      -3.979  -1.716  24.533  0.00  0.00    -0.003 A 
ATOM     16  C   UNL     1      -3.814  -2.497  24.321  0.00  0.00    +0.001 A 
ATOM     17  C   UNL     1      -3.048  -2.792  24.398  0.00  0.00    +0.011 A 
ATOM     18  C   UNL     1      -2.446  -2.307  24.686  0.00  0.00    +0.057 A 
ATOM     19 CL   UNL     1      -1.679  -2.603  24.763  0.00  0.00    -0.082 Cl
ATOM     20  C   UNL     1      -2.610  -1.527  24.898  0.00  0.00    +0.009 A 
ENDBRANCH  13  14
ENDBRANCH  12  13
ENDBRANCH  11  12
ENDBRANCH  10  11
TORSDOF 8
ENDMDL
MODEL 2
REMARK VINA RESULT:      -9.7      1.643      1.950
REMARK  Name = 
REMARK  8 active torsions:
REMARK  status: ('A' for Active; 'I' for Inactive)
REMARK    1  A    between atoms: O_2  and  C_3
REMARK    2  A    between atoms: C_3  and  C_4
REMARK    3  A    between atoms: N_8  and  C_9
REMARK    4  A    between atoms: C_10  and  C_11
REMARK    5  A    between atoms: C_11  and  N_12
REMARK    6  A    between atoms: N_12  and  C_13
REMARK    7  A    between atoms: C_13  and  C_14
REMARK    8  A    between atoms: C_22  and  C_23
REMARK                            x       y       z     vdW  Elec       q    Type
REMARK                         _______ _______ _______ _____ _____    ______ ____
ROOT
ATOM      9  C   UNL     1      -2.193   2.128  24.262  0.00  0.00    +0.120 C 
ATOM     10  C   UNL     1      -2.218   1.370  24.585  0.00  0.00    +0.150 C 
ATOM     21  O   UNL     1      -1.441   1.106  24.677  0.00  0.00    -0.350 OA
ATOM     22  C   UNL     1      -0.936   1.703  24.411  0.00  0.00    +0.180 C 
ATOM     25  C   UNL     1      -1.401   2.334  24.154  0.00  0.00    +0.198 C 
ATOM     26  O   UNL     1      -1.123   3.046  23.845  0.00  0.00    -0.219 OA
ENDROOT
BRANCH   9   8
ATOM      4  C   UNL     1      -3.179   3.175  24.564  0.00  0.00    +0.087 C 
ATOM      5  C   UNL     1      -3.819   3.507  24.163  0.00  0.00    +0.020 C 
ATOM      6  C   UNL     1      -3.881   3.136  23.430  0.00  0.00    +0.019 C 
ATOM      7  C   UNL     1      -3.278   2.574  23.377  0.00  0.00    +0.072 C 
ATOM      8  N   UNL     1      -2.846   2.599  24.078  0.00  0.00    -0.269 NA
BRANCH   4   3
ATOM      3  C   UNL     1      -2.919   3.384  25.319  0.00  0.00    +0.158 C 
BRANCH   3   2
ATOM      1  C   UNL     1      -3.036   4.208  26.481  0.00  0.00    +0.174 C 
ATOM      2  O   UNL     1      -3.337   3.942  25.760  0.00  0.00    -0.350 OA
ENDBRANCH   3   2
ENDBRANCH   4   3
ENDBRANCH   9   8
BRANCH  22  23
ATOM     23  C   UNL     1      -0.112   1.673  24.403  0.00  0.00    +0.214 C 
ATOM     24  O   UNL     1       0.273   0.993  24.137  0.00  0.00    -0.218 OA
ENDBRANCH  22  23
BRANCH  10  11
ATOM     11  C   UNL     1      -2.899   0.948  24.781  0.00  0.00    +0.120 C 
BRANCH  11  12
ATOM     12  N   UNL     1      -2.866   0.128  24.865  0.00  0.00    -0.211 NA
BRANCH  12  13
ATOM     13  C   UNL     1      -3.543  -0.292  25.080  0.00  0.00    +0.115 C 
BRANCH  13  14
ATOM     14  C   UNL     1      -3.583  -1.106  24.950  0.00  0.00    -0.004 A 
ATOM     15  C   UNL     1      -3.238  -1.627  25.489  0.00  0.00    -0.003 A 
ATOM     16  C   UNL     1      -3.279  -2.441  25.358  0.00  0.00    +0.001 A 
ATOM     17  C   UNL     1      -3.664  -2.733  24.690  0.00  0.00    +0.011 A 
ATOM     18  C   UNL     1      -4.009  -2.211  24.152  0.00  0.00    +0.057 A 
ATOM     19 CL   UNL     1      -4.395  -2.504  23.483  0.00  0.00    -0.082 Cl
ATOM     20  C   UNL     1      -3.969  -1.398  24.281  0.00  0.00    +0.009 A 
ENDBRANCH  13  14
ENDBRANCH  12  13
ENDBRANCH  11  12
ENDBRANCH  10  11
TORSDOF 8
ENDMDL
MODEL 3
REMARK VINA RESULT:      -9.5      1.312      2.324
REMARK  Name = 
REMARK  8 active torsions:
REMARK  status: ('A' for Active; 'I' for Inactive)
REMARK    1  A    between atoms: O_2  and  C_3
REMARK    2  A    between atoms: C_3  and  C_4
REMARK    3  A    between atoms: N_8  and  C_9
REMARK    4  A    between atoms: C_10  and  C_11
REMARK    5  A    between atoms: C_11  and  N_12
REMARK    6  A    between atoms: N_12  and  C_13
REMARK    7  A    between atoms: C_13  and  C_14
REMARK    8  A    between atoms: C_22  and  C_23
REMARK                            x       y       z     vdW  Elec       q    Type
REMARK                         _______ _______ _______ _____ _____    ______ ____
ROOT
ATOM      9  C   UNL     1      -3.609   2.305  24.446  0.00  0.00    +0.120 C 
ATOM     10  C   UNL     1      -3.896   1.667  24.882  0.00  0.00    +0.150 C 
ATOM     21  O   UNL     1      -4.556   1.924  25.306  0.00  0.00    -0.350 OA
ATOM     22  C   UNL     1      -4.676   2.722  25.131  0.00  0.00    +0.180 C 
ATOM     25  C   UNL     1      -4.091   2.958  24.600  0.00  0.00    +0.198 C 
ATOM     26  O   UNL     1      -4.002   3.712  24.279  0.00  0.00    -0.219 OA
ENDROOT
BRANCH   9   8
ATOM      4  C   UNL     1      -2.179   2.480  24.155  0.00  0.00    +0.087 C 
ATOM      5  C   UNL     1      -1.706   2.396  23.484  0.00  0.00    +0.020 C 
ATOM      6  C   UNL     1      -2.188   2.158  22.859  0.00  0.00    +0.019 C 
ATOM      7  C   UNL     1      -2.961   2.096  23.144  0.00  0.00    +0.072 C 
ATOM      8  N   UNL     1      -2.954   2.294  23.944  0.00  0.00    -0.269 NA
BRANCH   4   3
ATOM      3  C   UNL     1      -1.921   2.709  24.904  0.00  0.00    +0.158 C 
BRANCH   3   2
ATOM      1  C   UNL     1      -0.860   3.077  25.789  0.00  0.00    +0.174 C 
ATOM      2  O   UNL     1      -1.125   2.886  25.031  0.00  0.00    -0.350 OA
ENDBRANCH   3   2
ENDBRANCH   4   3
ENDBRANCH   9   8
BRANCH  22  23
ATOM     23  C   UNL     1      -5.276   3.199  25.435  0.00  0.00    +0.214 C 
ATOM     24  O   UNL     1      -5.638   3.002  26.150  0.00  0.00    -0.218 OA
ENDBRANCH  22  23
BRANCH  10  11
ATOM     11  C   UNL     1      -3.580   0.905  24.893  0.00  0.00    +0.120 C 
BRANCH  11  12
ATOM     12  N   UNL     1      -4.082   0.251  24.926  0.00  0.00    -0.211 NA
BRANCH  12  13
ATOM     13  C   UNL     1      -3.827  -0.446  25.285  0.00  0.00    +0.115 C 
BRANCH  13  14
ATOM     14  C   UNL     1      -3.871  -1.162  24.876  0.00  0.00    -0.004 A 
ATOM     15  C   UNL     1      -4.313  -1.214  24.181  0.00  0.00    -0.003 A 
ATOM     16  C   UNL     1      -4.357  -1.930  23.774  0.00  0.00    +0.001 A 
ATOM     17  C   UNL     1      -3.960  -2.593  24.060  0.00  0.00    +0.011 A 
ATOM     18  C   UNL     1      -3.518  -2.541  24.755  0.00  0.00    +0.057 A 
ATOM     19 CL   UNL     1      -3.120  -3.205  25.042  0.00  0.00    -0.082 Cl
ATOM     20  C   UNL     1      -3.473  -1.826  25.163  0.00  0.00    +0.009 A 
ENDBRANCH  13  14
ENDBRANCH  12  13
ENDBRANCH  11  12
ENDBRANCH  10  11
TORSDOF 8
ENDMDL
MODEL 4
REMARK VINA RESULT:      -9.0      2.498      3.091
REMARK  Name = 
REMARK  8 active torsions:
REMARK  status: ('A' for Active; 'I' for Inactive)
REMARK    1  A    between atoms: O_2  and  C_3
REMARK    2  A    between atoms: C_3  and  C_4
REMARK    3  A    between atoms: N_8  and  C_9
REMARK    4  A    between atoms: C_10  and  C_11
REMARK    5  A    between atoms: C_11  and  N_12
REMARK    6  A    between atoms: N_12  and  C_13
REMARK    7  A    between atoms: C_13  and  C_14
REMARK    8  A    between atoms: C_22  and  C_23
REMARK                            x       y       z     vdW  Elec       q    Type
REMARK                         _______ _______ _______ _____ _____    ______ ____
ROOT
ATOM      9  C   UNL     1      -0.501   1.312  24.704  0.00  0.00    +0.120 C 
ATOM     10  C   UNL     1      -0.835   0.560  24.648  0.00  0.00    +0.150 C 
ATOM     21  O   UNL     1      -0.413   0.136  24.079  0.00  0.00    -0.350 OA
ATOM     22  C   UNL     1       0.181   0.626  23.784  0.00  0.00    +0.180 C 
ATOM     25  C   UNL     1       0.127   1.353  24.170  0.00  0.00    +0.198 C 
ATOM     26  O   UNL     1       0.614   2.007  24.045  0.00  0.00    -0.219 OA
ENDROOT
BRANCH   9   8
ATOM      4  C   UNL     1      -1.324   2.485  25.033  0.00  0.00    +0.087 C 
ATOM      5  C   UNL     1      -1.400   2.979  25.689  0.00  0.00    +0.020 C 
ATOM      6  C   UNL     1      -0.874   2.717  26.268  0.00  0.00    +0.019 C 
ATOM      7  C   UNL     1      -0.473   2.060  25.969  0.00  0.00    +0.072 C 
ATOM      8  N   UNL     1      -0.752   1.917  25.206  0.00  0.00    -0.269 NA
BRANCH   4   3
ATOM      3  C   UNL     1      -1.748   2.547  24.327  0.00  0.00    +0.158 C 
BRANCH   3   2
ATOM      1  C   UNL     1      -2.888   3.055  23.631  0.00  0.00    +0.174 C 
ATOM      2  O   UNL     1      -2.353   3.104  24.257  0.00  0.00    -0.350 OA
ENDBRANCH   3   2
ENDBRANCH   4   3
ENDBRANCH   9   8
BRANCH  22  23
ATOM     23  C   UNL     1       0.733   0.425  23.205  0.00  0.00    +0.214 C 
ATOM     24  O   UNL     1       0.863  -0.368  23.018  0.00  0.00    -0.218 OA
ENDBRANCH  22  23
BRANCH  10  11
ATOM     11  C   UNL     1      -1.477   0.280  25.084  0.00  0.00    +0.120 C 
BRANCH  11  12
ATOM     12  N   UNL     1      -1.878  -0.398  24.838  0.00  0.00    -0.211 NA
BRANCH  12  13
ATOM     13  C   UNL     1      -2.560  -0.639  25.234  0.00  0.00    +0.115 C 
BRANCH  13  14
ATOM     14  C   UNL     1      -3.113  -1.117  24.851  0.00  0.00    -0.004 A 
ATOM     15  C   UNL     1      -3.733  -0.774  24.429  0.00  0.00    -0.003 A 
ATOM     16  C   UNL     1      -4.286  -1.254  24.046  0.00  0.00    +0.001 A 
ATOM     17  C   UNL     1      -4.218  -2.074  24.085  0.00  0.00    +0.011 A 
ATOM     18  C   UNL     1      -3.597  -2.417  24.507  0.00  0.00    +0.057 A 
ATOM     19 CL   UNL     1      -3.529  -3.239  24.546  0.00  0.00    -0.082 Cl
ATOM     20  C   UNL     1      -3.044  -1.939  24.890  0.00  0.00    +0.009 A 
ENDBRANCH  13  14
ENDBRANCH  12  13
ENDBRANCH  11  12
ENDBRANCH  10  11
TORSDOF 8
ENDMDL
MODEL 5
REMARK VINA RESULT:      -8.5      2.767      4.675
REMARK  Name = 
REMARK  8 active torsions:
REMARK  status: ('A' for Active; 'I' for Inactive)
REMARK    1  A    between atoms: O_2  and  C_3
REMARK    2  A    between atoms: C_3  and  C_4
REMARK    3  A    between atoms: N_8  and  C_9
REMARK    4  A    between atoms: C_10  and  C_11
REMARK    5  A    between atoms: C_11  and  N_12
REMARK    6  A    between atoms: N_12  and  C_13
REMARK    7  A    between atoms: C_13  and  C_14
REMARK    8  A    between atoms: C_22  and  C_23
REMARK                            x       y       z     vdW  Elec       q    Type
REMARK                         _______ _______ _______ _____ _____    ______ ____
ROOT
ATOM      9  C   UNL     1      -1.544  -0.005  24.995  0.00  0.00    +0.120 C 
ATOM     10  C   UNL     1      -2.311   0.069  24.701  0.00  0.00    +0.150 C 
ATOM     21  O   UNL     1      -2.660  -0.679  24.707  0.00  0.00    -0.350 OA
ATOM     22  C   UNL     1      -2.108  -1.216  25.004  0.00  0.00    +0.180 C 
ATOM     25  C   UNL     1      -1.418  -0.799  25.183  0.00  0.00    +0.198 C 
ATOM     26  O   UNL     1      -0.725  -1.120  25.494  0.00  0.00    -0.219 OA
ENDROOT
BRANCH   9   8
ATOM      4  C   UNL     1      -0.382   0.788  24.568  0.00  0.00    +0.087 C 
ATOM      5  C   UNL     1       0.023   1.438  24.873  0.00  0.00    +0.020 C 
ATOM      6  C   UNL     1      -0.341   1.659  25.579  0.00  0.00    +0.019 C 
ATOM      7  C   UNL     1      -0.974   1.144  25.710  0.00  0.00    +0.072 C 
ATOM      8  N   UNL     1      -0.998   0.607  25.086  0.00  0.00    -0.269 NA
BRANCH   4   3
ATOM      3  C   UNL     1      -0.204   0.389  23.869  0.00  0.00    +0.158 C 
BRANCH   3   2
ATOM      1  C   UNL     1       0.733   0.107  22.827  0.00  0.00    +0.174 C 
ATOM      2  O   UNL     1       0.467   0.597  23.435  0.00  0.00    -0.350 OA
ENDBRANCH   3   2
ENDBRANCH   4   3
ENDBRANCH   9   8
BRANCH  22  23
ATOM     23  C   UNL     1      -2.225  -2.026  25.106  0.00  0.00    +0.214 C 
ATOM     24  O   UNL     1      -2.968  -2.356  24.962  0.00  0.00    -0.218 OA
ENDBRANCH  22  23
BRANCH  10  11
ATOM     11  C   UNL     1      -2.667   0.768  24.446  0.00  0.00    +0.120 C 
BRANCH  11  12
ATOM     12  N   UNL     1      -3.476   0.885  24.564  0.00  0.00    -0.211 NA
BRANCH  12  13
ATOM     13  C   UNL     1      -3.851   1.537  24.226  0.00  0.00    +0.115 C 
BRANCH  13  14
ATOM     14  C   UNL     1      -4.479   1.901  24.618  0.00  0.00    -0.004 A 
ATOM     15  C   UNL     1      -5.177   1.484  24.757  0.00  0.00    -0.003 A 
ATOM     16  C   UNL     1      -5.804   1.849  25.149  0.00  0.00    +0.001 A 
ATOM     17  C   UNL     1      -5.735   2.631  25.402  0.00  0.00    +0.011 A 
ATOM     18  C   UNL     1      -5.037   3.048  25.262  0.00  0.00    +0.057 A 
ATOM     19 CL   UNL     1      -4.967   3.831  25.515  0.00  0.00    -0.082 Cl
ATOM     20  C   UNL     1      -4.409   2.684  24.870  0.00  0.00    +0.009 A 
ENDBRANCH  13  14
ENDBRANCH  12  13
ENDBRANCH  11  12
ENDBRANCH  10  11
TORSDOF 8
ENDMDL
