MODEL 1
REMARK VINA RESULT:     -12.6      0.000      0.000
REMARK  Name = 
REMARK  2 active torsions:
REMARK  status: ('A' for Active; 'I' for Inactive)
REMARK    1  A    between atoms: C_3  and  C_11
REMARK    2  A    between atoms: N_14  and  C_16
REMARK                            x       y       z     vdW  Elec       q    Type
REMARK                         _______ _______ _______ _____ _____    ______ ____
ROOT
ATOM     11  C   UNL     1      -3.300   2.060  24.804  0.00  0.00    +0.074 C 
ATOM     12  C   UNL     1      -4.117   2.065  24.691  0.00  0.00    +0.026 C 
ATOM     13  C   UNL     1      -4.373   1.282  24.644  0.00  0.00    +0.073 C 
ATOM     14  N   UNL     1      -3.715   0.793  24.729  0.00  0.00    -0.273 NA
ATOM     15  C   UNL     1      -3.051   1.273  24.828  0.00  0.00    +0.080 C 
ENDROOT
BRANCH  11   3
ATOM      1  C   UNL     1      -3.753   3.611  25.585  0.00  0.00    +0.132 C 
ATOM      2  N   UNL     1      -3.025   3.437  25.240  0.00  0.00    -0.313 N 
ATOM      3  C   UNL     1      -2.816   2.724  24.881  0.00  0.00    +0.121 A 
ATOM      4  N   UNL     1      -2.039   2.791  24.612  0.00  0.00    -0.231 NA
ATOM      5  C   UNL     1      -1.768   3.545  24.805  0.00  0.00    +0.098 A 
ATOM      6  C   UNL     1      -2.377   3.944  25.193  0.00  0.00    +0.079 A 
ATOM      7  C   UNL     1      -2.262   4.719  25.453  0.00  0.00    +0.019 A 
ATOM      8  C   UNL     1      -1.539   5.094  25.325  0.00  0.00    +0.002 A 
ATOM      9  C   UNL     1      -0.930   4.695  24.937  0.00  0.00    +0.002 A 
ATOM     10  C   UNL     1      -1.044   3.921  24.677  0.00  0.00    +0.021 A 
ENDBRANCH  11   3
BRANCH  14  16
ATOM     16  C   UNL     1      -3.719  -0.032  24.717  0.00  0.00    +0.061 C 
ATOM     17  C   UNL     1      -3.929  -0.433  24.026  0.00  0.00    +0.038 C 
ATOM     18  C   UNL     1      -3.933  -1.258  24.014  0.00  0.00    +0.095 C 
ATOM     19  N   UNL     1      -3.727  -1.681  24.691  0.00  0.00    -0.279 N 
ATOM     20  C   UNL     1      -3.517  -1.281  25.380  0.00  0.00    +0.095 C 
ATOM     21  C   UNL     1      -3.513  -0.456  25.393  0.00  0.00    +0.038 C 
ATOM     22  C   UNL     1      -3.731  -2.507  24.678  0.00  0.00    +0.226 C 
ATOM     23  C   UNL     1      -3.941  -2.908  23.989  0.00  0.00    +0.095 C 
ATOM     24  O   UNL     1      -3.525  -2.930  25.356  0.00  0.00    -0.275 OA
ENDBRANCH  14  16
TORSDOF 2
ENDMDL
MODEL 2
REMARK VINA RESULT:     -12.6      1.841      5.295
REMARK  Name = 
REMARK  2 active torsions:
REMARK  status: ('A' for Active; 'I' for Inactive)
REMARK    1  A    between atoms: C_3  and  C_11
REMARK    2  A    between atoms: N_14  and  C_16
REMARK                            x       y       z     vdW  Elec       q    Type
REMARK                         _______ _______ _______ _____ _____    ______ ____
ROOT
ATOM     11  C   UNL     1      -3.844   0.682  24.798  0.00  0.00    +0.074 C 
ATOM     12  C   UNL     1      -4.510   1.147  24.943  0.00  0.00    +0.026 C 
ATOM     13  C   UNL     1      -4.262   1.929  25.030  0.00  0.00    +0.073 C 
ATOM     14  N   UNL     1      -3.442   1.948  24.940  0.00  0.00    -0.273 NA
ATOM     15  C   UNL     1      -3.183   1.177  24.797  0.00  0.00    +0.080 C 
ENDROOT
BRANCH  11   3
ATOM      1  C   UNL     1      -3.164  -0.546  25.916  0.00  0.00    +0.132 C 
ATOM      2  N   UNL     1      -3.526  -0.699  25.191  0.00  0.00    -0.313 N 
ATOM      3  C   UNL     1      -3.839  -0.134  24.677  0.00  0.00    +0.121 A 
ATOM      4  N   UNL     1      -4.145  -0.529  24.021  0.00  0.00    -0.231 NA
ATOM      5  C   UNL     1      -4.022  -1.337  24.129  0.00  0.00    +0.098 A 
ATOM      6  C   UNL     1      -3.639  -1.442  24.852  0.00  0.00    +0.079 A 
ATOM      7  C   UNL     1      -3.444  -2.201  25.108  0.00  0.00    +0.019 A 
ATOM      8  C   UNL     1      -3.630  -2.855  24.642  0.00  0.00    +0.002 A 
ATOM      9  C   UNL     1      -4.013  -2.750  23.919  0.00  0.00    +0.002 A 
ATOM     10  C   UNL     1      -4.209  -1.991  23.662  0.00  0.00    +0.021 A 
ENDBRANCH  11   3
BRANCH  14  16
ATOM     16  C   UNL     1      -2.964   2.618  24.985  0.00  0.00    +0.061 C 
ATOM     17  C   UNL     1      -2.197   2.599  24.680  0.00  0.00    +0.038 C 
ATOM     18  C   UNL     1      -1.719   3.270  24.725  0.00  0.00    +0.095 C 
ATOM     19  N   UNL     1      -2.007   3.959  25.075  0.00  0.00    -0.279 N 
ATOM     20  C   UNL     1      -2.773   3.978  25.380  0.00  0.00    +0.095 C 
ATOM     21  C   UNL     1      -3.252   3.307  25.335  0.00  0.00    +0.038 C 
ATOM     22  C   UNL     1      -1.529   4.630  25.120  0.00  0.00    +0.226 C 
ATOM     23  C   UNL     1      -0.763   4.612  24.815  0.00  0.00    +0.095 C 
ATOM     24  O   UNL     1      -1.818   5.320  25.470  0.00  0.00    -0.275 OA
ENDBRANCH  14  16
TORSDOF 2
ENDMDL
MODEL 3
REMARK VINA RESULT:     -10.6      2.312      5.312
REMARK  Name = 
REMARK  2 active torsions:
REMARK  status: ('A' for Active; 'I' for Inactive)
REMARK    1  A    between atoms: C_3  and  C_11
REMARK    2  A    between atoms: N_14  and  C_16
REMARK                            x       y       z     vdW  Elec       q    Type
REMARK                         _______ _______ _______ _____ _____    ______ ____
ROOT
ATOM     11  C   UNL     1      -3.694   0.262  24.195  0.00  0.00    +0.074 C 
ATOM     12  C   UNL     1      -3.257   0.736  23.681  0.00  0.00    +0.026 C 
ATOM     13  C   UNL     1      -3.478   1.521  23.807  0.00  0.00    +0.073 C 
ATOM     14  N   UNL     1      -4.053   1.532  24.398  0.00  0.00    -0.273 NA
ATOM     15  C   UNL     1      -4.186   0.753  24.639  0.00  0.00    +0.080 C 
ENDROOT
BRANCH  11   3
ATOM      1  C   UNL     1      -2.510  -0.659  25.181  0.00  0.00    +0.132 C 
ATOM      2  N   UNL     1      -3.103  -0.983  24.709  0.00  0.00    -0.313 N 
ATOM      3  C   UNL     1      -3.647  -0.560  24.255  0.00  0.00    +0.121 A 
ATOM      4  N   UNL     1      -4.137  -1.103  23.873  0.00  0.00    -0.231 NA
ATOM      5  C   UNL     1      -3.895  -1.860  24.089  0.00  0.00    +0.098 A 
ATOM      6  C   UNL     1      -3.256  -1.786  24.606  0.00  0.00    +0.079 A 
ATOM      7  C   UNL     1      -2.896  -2.461  24.916  0.00  0.00    +0.019 A 
ATOM      8  C   UNL     1      -3.175  -3.209  24.710  0.00  0.00    +0.002 A 
ATOM      9  C   UNL     1      -3.814  -3.283  24.194  0.00  0.00    +0.002 A 
ATOM     10  C   UNL     1      -4.174  -2.609  23.883  0.00  0.00    +0.021 A 
ENDBRANCH  11   3
BRANCH  14  16
ATOM     16  C   UNL     1      -4.428   2.202  24.698  0.00  0.00    +0.061 C 
ATOM     17  C   UNL     1      -4.026   2.922  24.725  0.00  0.00    +0.038 C 
ATOM     18  C   UNL     1      -4.401   3.593  25.024  0.00  0.00    +0.095 C 
ATOM     19  N   UNL     1      -5.178   3.544  25.296  0.00  0.00    -0.279 N 
ATOM     20  C   UNL     1      -5.580   2.825  25.270  0.00  0.00    +0.095 C 
ATOM     21  C   UNL     1      -5.205   2.153  24.970  0.00  0.00    +0.038 C 
ATOM     22  C   UNL     1      -5.553   4.216  25.596  0.00  0.00    +0.226 C 
ATOM     23  C   UNL     1      -5.152   4.935  25.623  0.00  0.00    +0.095 C 
ATOM     24  O   UNL     1      -6.331   4.166  25.869  0.00  0.00    -0.275 OA
ENDBRANCH  14  16
TORSDOF 2
ENDMDL
MODEL 4
REMARK VINA RESULT:      -9.7      2.981      4.197
REMARK  Name = 
REMARK  2 active torsions:
REMARK  status: ('A' for Active; 'I' for Inactive)
REMARK    1  A    between atoms: C_3  and  C_11
REMARK    2  A    between atoms: N_14  and  C_16
REMARK                            x       y       z     vdW  Elec       q    Type
REMARK                         _______ _______ _______ _____ _____    ______ ____
ROOT
ATOM     11  C   UNL     1      -2.336   0.773  24.898  0.00  0.00    +0.074 C 
ATOM     12  C   UNL     1      -2.050   0.217  25.435  0.00  0.00    +0.026 C 
ATOM     13  C   UNL     1      -1.284   0.013  25.208  0.00  0.00    +0.073 C 
ATOM     14  N   UNL     1      -1.096   0.443  24.530  0.00  0.00    -0.273 NA
ATOM     15  C   UNL     1      -1.746   0.913  24.337  0.00  0.00    +0.080 C 
ENDROOT
BRANCH  11   3
ATOM      1  C   UNL     1      -3.911  -0.070  24.720  0.00  0.00    +0.132 C 
ATOM      2  N   UNL     1      -3.805   0.740  24.835  0.00  0.00    -0.313 N 
ATOM      3  C   UNL     1      -3.081   1.128  24.916  0.00  0.00    +0.121 A 
ATOM      4  N   UNL     1      -3.233   1.932  25.019  0.00  0.00    -0.231 NA
ATOM      5  C   UNL     1      -4.050   2.041  25.001  0.00  0.00    +0.098 A 
ATOM      6  C   UNL     1      -4.403   1.305  24.887  0.00  0.00    +0.079 A 
ATOM      7  C   UNL     1      -5.225   1.244  24.846  0.00  0.00    +0.019 A 
ATOM      8  C   UNL     1      -5.693   1.919  24.919  0.00  0.00    +0.002 A 
ATOM      9  C   UNL     1      -5.340   2.655  25.033  0.00  0.00    +0.002 A 
ATOM     10  C   UNL     1      -4.518   2.717  25.075  0.00  0.00    +0.021 A 
ENDBRANCH  11   3
BRANCH  14  16
ATOM     16  C   UNL     1      -0.383   0.409  24.116  0.00  0.00    +0.061 C 
ATOM     17  C   UNL     1      -0.210  -0.248  23.647  0.00  0.00    +0.038 C 
ATOM     18  C   UNL     1       0.503  -0.282  23.233  0.00  0.00    +0.095 C 
ATOM     19  N   UNL     1       1.042   0.340  23.287  0.00  0.00    -0.279 N 
ATOM     20  C   UNL     1       0.869   0.996  23.755  0.00  0.00    +0.095 C 
ATOM     21  C   UNL     1       0.155   1.031  24.170  0.00  0.00    +0.038 C 
ATOM     22  C   UNL     1       1.755   0.305  22.873  0.00  0.00    +0.226 C 
ATOM     23  C   UNL     1       1.928  -0.350  22.405  0.00  0.00    +0.095 C 
ATOM     24  O   UNL     1       2.294   0.928  22.928  0.00  0.00    -0.275 OA
ENDBRANCH  14  16
TORSDOF 2
ENDMDL
MODEL 5
REMARK VINA RESULT:      -9.4      1.889      2.762
REMARK  Name = 
REMARK  2 active torsions:
REMARK  status: ('A' for Active; 'I' for Inactive)
REMARK    1  A    between atoms: C_3  and  C_11
REMARK    2  A    between atoms: N_14  and  C_16
REMARK                            x       y       z     vdW  Elec       q    Type
REMARK                         _______ _______ _______ _____ _____    ______ ____
ROOT
ATOM     11  C   UNL     1      -3.375   1.559  24.417  0.00  0.00    +0.074 C 
ATOM     12  C   UNL     1      -3.039   1.575  23.664  0.00  0.00    +0.026 C 
ATOM     13  C   UNL     1      -2.492   0.959  23.615  0.00  0.00    +0.073 C 
ATOM     14  N   UNL     1      -2.490   0.562  24.338  0.00  0.00    -0.273 NA
ATOM     15  C   UNL     1      -3.036   0.933  24.834  0.00  0.00    +0.080 C 
ENDROOT
BRANCH  11   3
ATOM      1  C   UNL     1      -3.137   3.302  24.774  0.00  0.00    +0.132 C 
ATOM      2  N   UNL     1      -3.839   2.880  24.867  0.00  0.00    -0.313 N 
ATOM      3  C   UNL     1      -3.949   2.078  24.703  0.00  0.00    +0.121 A 
ATOM      4  N   UNL     1      -4.732   1.888  24.875  0.00  0.00    -0.231 NA
ATOM      5  C   UNL     1      -5.107   2.570  25.145  0.00  0.00    +0.098 A 
ATOM      6  C   UNL     1      -4.555   3.183  25.141  0.00  0.00    +0.079 A 
ATOM      7  C   UNL     1      -4.777   3.939  25.386  0.00  0.00    +0.019 A 
ATOM      8  C   UNL     1      -5.550   4.082  25.636  0.00  0.00    +0.002 A 
ATOM      9  C   UNL     1      -6.102   3.469  25.641  0.00  0.00    +0.002 A 
ATOM     10  C   UNL     1      -5.881   2.713  25.396  0.00  0.00    +0.021 A 
ENDBRANCH  11   3
BRANCH  14  16
ATOM     16  C   UNL     1      -2.025  -0.091  24.532  0.00  0.00    +0.061 C 
ATOM     17  C   UNL     1      -2.330  -0.853  24.449  0.00  0.00    +0.038 C 
ATOM     18  C   UNL     1      -1.864  -1.506  24.643  0.00  0.00    +0.095 C 
ATOM     19  N   UNL     1      -1.095  -1.397  24.920  0.00  0.00    -0.279 N 
ATOM     20  C   UNL     1      -0.790  -0.636  25.003  0.00  0.00    +0.095 C 
ATOM     21  C   UNL     1      -1.256   0.018  24.809  0.00  0.00    +0.038 C 
ATOM     22  C   UNL     1      -0.630  -2.051  25.114  0.00  0.00    +0.226 C 
ATOM     23  C   UNL     1      -0.934  -2.813  25.031  0.00  0.00    +0.095 C 
ATOM     24  O   UNL     1       0.140  -1.941  25.390  0.00  0.00    -0.275 OA
ENDBRANCH  14  16
TORSDOF 2
ENDMDL
