MODEL 1
REMARK VINA RESULT:     -11.8      0.000      0.000
REMARK  Name = 
REMARK  4 active torsions:
REMARK  status: ('A' for Active; 'I' for Inactive)
REMARK    1  A    between atoms: C_2  and  S_3
REMARK    2  A    between atoms: S_3  and  C_6
REMARK    3  A    between atoms: C_11  and  C_13
REMARK    4  A    between atoms: N_16  and  C_18
REMARK                            x       y       z     vdW  Elec       q    Type
REMARK                         _______ _______ _______ _____ _____    ______ ____
ROOT
ATOM      6  C   UNL     1      -2.416  -1.613  24.863  0.00  0.00    +0.107 A 
ATOM      7  C   UNL     1      -2.605  -0.817  24.964  0.00  0.00    +0.041 A 
ATOM      8  C   UNL     1      -2.008  -0.265  25.105  0.00  0.00    +0.120 A 
ATOM      9  C   UNL     1      -1.221  -0.511  25.146  0.00  0.00    +0.164 A 
ATOM     10  O   UNL     1      -0.754   0.153  25.291  0.00  0.00    -0.438 OA
ATOM     11  C   UNL     1      -1.251   0.809  25.340  0.00  0.00    +0.207 A 
ATOM     12  N   UNL     1      -2.026   0.550  25.225  0.00  0.00    -0.212 NA
ATOM     24  C   UNL     1      -1.032  -1.308  25.045  0.00  0.00    +0.040 A 
ATOM     25  C   UNL     1      -1.629  -1.859  24.904  0.00  0.00    +0.022 A 
ENDROOT
BRANCH  11  13
ATOM     13  C   UNL     1      -1.015   1.587  25.480  0.00  0.00    +0.094 C 
ATOM     14  C   UNL     1      -0.339   1.823  25.889  0.00  0.00    +0.028 C 
ATOM     15  C   UNL     1      -0.319   2.648  25.897  0.00  0.00    +0.073 C 
ATOM     16  N   UNL     1      -0.984   2.922  25.492  0.00  0.00    -0.274 NA
ATOM     17  C   UNL     1      -1.414   2.266  25.235  0.00  0.00    +0.081 C 
BRANCH  16  18
ATOM     18  C   UNL     1      -1.184   3.712  25.367  0.00  0.00    +0.058 C 
ATOM     19  C   UNL     1      -0.665   4.211  24.965  0.00  0.00    +0.016 C 
ATOM     20  C   UNL     1      -0.865   5.001  24.840  0.00  0.00    +0.001 C 
ATOM     21  C   UNL     1      -1.584   5.293  25.117  0.00  0.00    +0.000 C 
ATOM     22  C   UNL     1      -2.105   4.796  25.519  0.00  0.00    +0.001 C 
ATOM     23  C   UNL     1      -1.905   4.005  25.644  0.00  0.00    +0.016 C 
ENDBRANCH  16  18
ENDBRANCH  11  13
BRANCH   6   3
ATOM      3  S   UNL     1      -3.013  -2.164  24.722  0.00  0.00    +0.009 S 
ATOM      4  O   UNL     1      -2.731  -2.273  23.954  0.00  0.00    -0.169 OA
ATOM      5  O   UNL     1      -3.295  -2.055  25.490  0.00  0.00    -0.169 OA
BRANCH   3   2
ATOM      1  C   UNL     1      -4.176  -2.570  23.998  0.00  0.00    +0.028 C 
ATOM      2  C   UNL     1      -3.611  -2.715  24.581  0.00  0.00    +0.156 C 
ENDBRANCH   3   2
ENDBRANCH   6   3
TORSDOF 4
ENDMDL
MODEL 2
REMARK VINA RESULT:     -11.7      2.481      5.818
REMARK  Name = 
REMARK  4 active torsions:
REMARK  status: ('A' for Active; 'I' for Inactive)
REMARK    1  A    between atoms: C_2  and  S_3
REMARK    2  A    between atoms: S_3  and  C_6
REMARK    3  A    between atoms: C_11  and  C_13
REMARK    4  A    between atoms: N_16  and  C_18
REMARK                            x       y       z     vdW  Elec       q    Type
REMARK                         _______ _______ _______ _____ _____    ______ ____
ROOT
ATOM      6  C   UNL     1      -2.078   3.878  25.233  0.00  0.00    +0.107 A 
ATOM      7  C   UNL     1      -2.045   3.127  24.894  0.00  0.00    +0.041 A 
ATOM      8  C   UNL     1      -2.683   2.610  24.973  0.00  0.00    +0.120 A 
ATOM      9  C   UNL     1      -3.354   2.845  25.391  0.00  0.00    +0.164 A 
ATOM     10  O   UNL     1      -3.894   2.221  25.378  0.00  0.00    -0.438 OA
ATOM     11  C   UNL     1      -3.556   1.601  24.952  0.00  0.00    +0.207 A 
ATOM     12  N   UNL     1      -2.808   1.842  24.702  0.00  0.00    -0.212 NA
ATOM     24  C   UNL     1      -3.388   3.597  25.730  0.00  0.00    +0.040 A 
ATOM     25  C   UNL     1      -2.749   4.113  25.651  0.00  0.00    +0.022 A 
ENDROOT
BRANCH  11  13
ATOM     13  C   UNL     1      -3.906   0.869  24.802  0.00  0.00    +0.094 C 
ATOM     14  C   UNL     1      -4.702   0.737  24.634  0.00  0.00    +0.028 C 
ATOM     15  C   UNL     1      -4.810  -0.074  24.522  0.00  0.00    +0.073 C 
ATOM     16  N   UNL     1      -4.079  -0.443  24.621  0.00  0.00    -0.274 NA
ATOM     17  C   UNL     1      -3.520   0.140  24.794  0.00  0.00    +0.081 C 
BRANCH  16  18
ATOM     18  C   UNL     1      -3.931  -1.252  24.558  0.00  0.00    +0.058 C 
ATOM     19  C   UNL     1      -3.513  -1.642  25.152  0.00  0.00    +0.016 C 
ATOM     20  C   UNL     1      -3.366  -2.451  25.089  0.00  0.00    +0.001 C 
ATOM     21  C   UNL     1      -3.636  -2.870  24.433  0.00  0.00    +0.000 C 
ATOM     22  C   UNL     1      -4.054  -2.481  23.838  0.00  0.00    +0.001 C 
ATOM     23  C   UNL     1      -4.202  -1.671  23.901  0.00  0.00    +0.016 C 
ENDBRANCH  16  18
ENDBRANCH  11  13
BRANCH   6   3
ATOM      3  S   UNL     1      -1.440   4.394  25.153  0.00  0.00    +0.009 S 
ATOM      4  O   UNL     1      -0.948   3.844  25.522  0.00  0.00    -0.169 OA
ATOM      5  O   UNL     1      -1.931   4.945  24.784  0.00  0.00    -0.169 OA
BRANCH   3   2
ATOM      1  C   UNL     1      -0.908   5.644  24.709  0.00  0.00    +0.028 C 
ATOM      2  C   UNL     1      -0.802   4.912  25.074  0.00  0.00    +0.156 C 
ENDBRANCH   3   2
ENDBRANCH   6   3
TORSDOF 4
ENDMDL
MODEL 3
REMARK VINA RESULT:     -11.7      1.889      5.429
REMARK  Name = 
REMARK  4 active torsions:
REMARK  status: ('A' for Active; 'I' for Inactive)
REMARK    1  A    between atoms: C_2  and  S_3
REMARK    2  A    between atoms: S_3  and  C_6
REMARK    3  A    between atoms: C_11  and  C_13
REMARK    4  A    between atoms: N_16  and  C_18
REMARK                            x       y       z     vdW  Elec       q    Type
REMARK                         _______ _______ _______ _____ _____    ______ ____
ROOT
ATOM      6  C   UNL     1      -0.890   3.368  25.297  0.00  0.00    +0.107 A 
ATOM      7  C   UNL     1      -1.431   2.825  24.993  0.00  0.00    +0.041 A 
ATOM      8  C   UNL     1      -1.364   2.025  25.182  0.00  0.00    +0.120 A 
ATOM      9  C   UNL     1      -0.754   1.768  25.674  0.00  0.00    +0.164 A 
ATOM     10  O   UNL     1      -0.825   0.951  25.763  0.00  0.00    -0.438 OA
ATOM     11  C   UNL     1      -1.478   0.703  25.326  0.00  0.00    +0.207 A 
ATOM     12  N   UNL     1      -1.811   1.367  24.966  0.00  0.00    -0.212 NA
ATOM     24  C   UNL     1      -0.212   2.311  25.979  0.00  0.00    +0.040 A 
ATOM     25  C   UNL     1      -0.281   3.111  25.790  0.00  0.00    +0.022 A 
ENDROOT
BRANCH  11  13
ATOM     13  C   UNL     1      -1.752  -0.072  25.259  0.00  0.00    +0.094 C 
ATOM     14  C   UNL     1      -1.401  -0.740  25.592  0.00  0.00    +0.028 C 
ATOM     15  C   UNL     1      -1.856  -1.398  25.387  0.00  0.00    +0.073 C 
ATOM     16  N   UNL     1      -2.488  -1.135  24.926  0.00  0.00    -0.274 NA
ATOM     17  C   UNL     1      -2.423  -0.316  24.847  0.00  0.00    +0.081 C 
BRANCH  16  18
ATOM     18  C   UNL     1      -3.080  -1.608  24.601  0.00  0.00    +0.058 C 
ATOM     19  C   UNL     1      -3.731  -1.260  24.234  0.00  0.00    +0.016 C 
ATOM     20  C   UNL     1      -4.324  -1.733  23.909  0.00  0.00    +0.001 C 
ATOM     21  C   UNL     1      -4.266  -2.554  23.951  0.00  0.00    +0.000 C 
ATOM     22  C   UNL     1      -3.616  -2.904  24.319  0.00  0.00    +0.001 C 
ATOM     23  C   UNL     1      -3.022  -2.431  24.644  0.00  0.00    +0.016 C 
ENDBRANCH  16  18
ENDBRANCH  11  13
BRANCH   6   3
ATOM      3  S   UNL     1      -0.959   4.168  25.109  0.00  0.00    +0.009 S 
ATOM      4  O   UNL     1      -1.499   4.268  25.724  0.00  0.00    -0.169 OA
ATOM      5  O   UNL     1      -0.418   4.070  24.493  0.00  0.00    -0.169 OA
BRANCH   3   2
ATOM      1  C   UNL     1      -1.694   5.392  25.155  0.00  0.00    +0.028 C 
ATOM      2  C   UNL     1      -1.027   4.969  24.920  0.00  0.00    +0.156 C 
ENDBRANCH   3   2
ENDBRANCH   6   3
TORSDOF 4
ENDMDL
MODEL 4
REMARK VINA RESULT:     -11.4      1.055      1.409
REMARK  Name = 
REMARK  4 active torsions:
REMARK  status: ('A' for Active; 'I' for Inactive)
REMARK    1  A    between atoms: C_2  and  S_3
REMARK    2  A    between atoms: S_3  and  C_6
REMARK    3  A    between atoms: C_11  and  C_13
REMARK    4  A    between atoms: N_16  and  C_18
REMARK                            x       y       z     vdW  Elec       q    Type
REMARK                         _______ _______ _______ _____ _____    ______ ____
ROOT
ATOM      6  C   UNL     1      -3.707  -1.124  24.469  0.00  0.00    +0.107 A 
ATOM      7  C   UNL     1      -2.948  -0.811  24.543  0.00  0.00    +0.041 A 
ATOM      8  C   UNL     1      -2.847  -0.013  24.727  0.00  0.00    +0.120 A 
ATOM      9  C   UNL     1      -3.506   0.471  24.839  0.00  0.00    +0.164 A 
ATOM     10  O   UNL     1      -3.237   1.231  25.015  0.00  0.00    -0.438 OA
ATOM     11  C   UNL     1      -2.413   1.217  25.012  0.00  0.00    +0.207 A 
ATOM     12  N   UNL     1      -2.172   0.448  24.835  0.00  0.00    -0.212 NA
ATOM     24  C   UNL     1      -4.266   0.157  24.765  0.00  0.00    +0.040 A 
ATOM     25  C   UNL     1      -4.366  -0.640  24.580  0.00  0.00    +0.022 A 
ENDROOT
BRANCH  11  13
ATOM     13  C   UNL     1      -1.916   1.858  25.162  0.00  0.00    +0.094 C 
ATOM     14  C   UNL     1      -1.179   1.826  25.530  0.00  0.00    +0.028 C 
ATOM     15  C   UNL     1      -0.876   2.593  25.565  0.00  0.00    +0.073 C 
ATOM     16  N   UNL     1      -1.427   3.099  25.218  0.00  0.00    -0.274 NA
ATOM     17  C   UNL     1      -2.070   2.645  24.969  0.00  0.00    +0.081 C 
BRANCH  16  18
ATOM     18  C   UNL     1      -1.349   3.916  25.134  0.00  0.00    +0.058 C 
ATOM     19  C   UNL     1      -0.665   4.234  24.800  0.00  0.00    +0.016 C 
ATOM     20  C   UNL     1      -0.587   5.050  24.717  0.00  0.00    +0.001 C 
ATOM     21  C   UNL     1      -1.193   5.550  24.967  0.00  0.00    +0.000 C 
ATOM     22  C   UNL     1      -1.878   5.234  25.301  0.00  0.00    +0.001 C 
ATOM     23  C   UNL     1      -1.956   4.417  25.385  0.00  0.00    +0.016 C 
ENDBRANCH  16  18
ENDBRANCH  11  13
BRANCH   6   3
ATOM      3  S   UNL     1      -3.807  -1.921  24.284  0.00  0.00    +0.009 S 
ATOM      4  O   UNL     1      -4.033  -1.716  23.518  0.00  0.00    -0.169 OA
ATOM      5  O   UNL     1      -3.582  -2.128  25.051  0.00  0.00    -0.169 OA
BRANCH   3   2
ATOM      1  C   UNL     1      -3.578  -3.299  24.585  0.00  0.00    +0.028 C 
ATOM      2  C   UNL     1      -3.908  -2.720  24.100  0.00  0.00    +0.156 C 
ENDBRANCH   3   2
ENDBRANCH   6   3
TORSDOF 4
ENDMDL
MODEL 5
REMARK VINA RESULT:      -9.6      2.740      3.827
REMARK  Name = 
REMARK  4 active torsions:
REMARK  status: ('A' for Active; 'I' for Inactive)
REMARK    1  A    between atoms: C_2  and  S_3
REMARK    2  A    between atoms: S_3  and  C_6
REMARK    3  A    between atoms: C_11  and  C_13
REMARK    4  A    between atoms: N_16  and  C_18
REMARK                            x       y       z     vdW  Elec       q    Type
REMARK                         _______ _______ _______ _____ _____    ______ ____
ROOT
ATOM      6  C   UNL     1       0.130   0.028  23.740  0.00  0.00    +0.107 A 
ATOM      7  C   UNL     1      -0.504   0.529  23.577  0.00  0.00    +0.041 A 
ATOM      8  C   UNL     1      -1.221   0.430  23.973  0.00  0.00    +0.120 A 
ATOM      9  C   UNL     1      -1.303  -0.171  24.533  0.00  0.00    +0.164 A 
ATOM     10  O   UNL     1      -2.070  -0.136  24.834  0.00  0.00    -0.438 OA
ATOM     11  C   UNL     1      -2.462   0.487  24.461  0.00  0.00    +0.207 A 
ATOM     12  N   UNL     1      -1.937   0.836  23.929  0.00  0.00    -0.212 NA
ATOM     24  C   UNL     1      -0.668  -0.673  24.696  0.00  0.00    +0.040 A 
ATOM     25  C   UNL     1       0.048  -0.573  24.299  0.00  0.00    +0.022 A 
ENDROOT
BRANCH  11  13
ATOM     13  C   UNL     1      -3.242   0.719  24.596  0.00  0.00    +0.094 C 
ATOM     14  C   UNL     1      -3.914   0.257  24.472  0.00  0.00    +0.028 C 
ATOM     15  C   UNL     1      -4.575   0.706  24.678  0.00  0.00    +0.073 C 
ATOM     16  N   UNL     1      -4.311   1.446  24.929  0.00  0.00    -0.274 NA
ATOM     17  C   UNL     1      -3.488   1.454  24.878  0.00  0.00    +0.081 C 
BRANCH  16  18
ATOM     18  C   UNL     1      -4.787   2.069  25.185  0.00  0.00    +0.058 C 
ATOM     19  C   UNL     1      -5.516   1.914  25.538  0.00  0.00    +0.016 C 
ATOM     20  C   UNL     1      -5.992   2.537  25.794  0.00  0.00    +0.001 C 
ATOM     21  C   UNL     1      -5.739   3.315  25.698  0.00  0.00    +0.000 C 
ATOM     22  C   UNL     1      -5.010   3.472  25.346  0.00  0.00    +0.001 C 
ATOM     23  C   UNL     1      -4.534   2.849  25.089  0.00  0.00    +0.016 C 
ENDBRANCH  16  18
ENDBRANCH  11  13
BRANCH   6   3
ATOM      3  S   UNL     1       0.846   0.127  23.344  0.00  0.00    +0.009 S 
ATOM      4  O   UNL     1       0.726  -0.586  22.946  0.00  0.00    -0.169 OA
ATOM      5  O   UNL     1       0.968   0.840  23.741  0.00  0.00    -0.169 OA
BRANCH   3   2
ATOM      1  C   UNL     1       1.698  -0.166  22.234  0.00  0.00    +0.028 C 
ATOM      2  C   UNL     1       1.564   0.227  22.947  0.00  0.00    +0.156 C 
ENDBRANCH   3   2
ENDBRANCH   6   3
TORSDOF 4
ENDMDL
