MODEL 1
REMARK VINA RESULT:     -11.5      0.000      0.000
REMARK  Name = 
REMARK  6 active torsions:
REMARK  status: ('A' for Active; 'I' for Inactive)
REMARK    1  A    between atoms: C_4  and  C_18
REMARK    2  A    between atoms: C_6  and  C_8
REMARK    3  A    between atoms: C_11  and  C_14
REMARK    4  A    between atoms: C_25  and  C_26
REMARK    5  A    between atoms: C_26  and  N_27
REMARK    6  A    between atoms: C_28  and  C_30
REMARK                            x       y       z     vdW  Elec       q    Type
REMARK                         _______ _______ _______ _____ _____    ______ ____
ROOT
ATOM      1  C   UNL     1      -1.605   4.761  25.237  0.00  0.00    +0.074 C 
ATOM      2  C   UNL     1      -1.828   4.002  25.003  0.00  0.00    +0.139 A 
ATOM      3  N   UNL     1      -1.260   3.472  24.727  0.00  0.00    -0.235 NA
ATOM      4  C   UNL     1      -1.484   2.712  24.493  0.00  0.00    +0.063 A 
ATOM      5  C   UNL     1      -2.275   2.484  24.535  0.00  0.00    +0.034 A 
ATOM      6  C   UNL     1      -2.843   3.014  24.812  0.00  0.00    +0.084 A 
ATOM      7  N   UNL     1      -2.620   3.773  25.046  0.00  0.00    -0.231 NA
ENDROOT
BRANCH   4  18
ATOM     18  C   UNL     1      -0.915   2.181  24.216  0.00  0.00    +0.056 C 
ATOM     19  C   UNL     1      -0.856   2.094  23.445  0.00  0.00    +0.078 C 
ATOM     20  N   UNL     1      -0.403   1.706  24.016  0.00  0.00    -0.272 NA
ATOM     21  C   UNL     1      -0.730   2.045  24.953  0.00  0.00    +0.072 C 
ATOM     22  C   UNL     1      -0.691   2.037  25.605  0.00  0.00    +0.018 C 
ATOM     23  C   UNL     1      -0.468   1.797  24.770  0.00  0.00    +0.010 C 
ATOM     24  C   UNL     1       0.177   1.206  24.699  0.00  0.00    +0.018 C 
ATOM     25  C   UNL     1       0.268   1.091  23.949  0.00  0.00    +0.079 C 
BRANCH  25  26
ATOM     26  C   UNL     1       0.711   0.662  23.402  0.00  0.00    +0.131 C 
BRANCH  26  27
ATOM     27  N   UNL     1       1.535   0.712  23.408  0.00  0.00    -0.198 NA
ATOM     28  C   UNL     1       1.976   0.304  22.843  0.00  0.00    +0.300 C 
ATOM     29  O   UNL     1       1.595  -0.153  22.272  0.00  0.00    -0.265 OA
BRANCH  28  30
ATOM     30  C   UNL     1       2.800   0.354  22.850  0.00  0.00    +0.200 A 
ATOM     31  C   UNL     1       3.246   1.030  22.695  0.00  0.00    +0.046 A 
ATOM     32  C   UNL     1       4.044   0.830  22.761  0.00  0.00    +0.044 A 
ATOM     33  C   UNL     1       4.090   0.030  22.958  0.00  0.00    +0.180 A 
ATOM     34  O   UNL     1       3.321  -0.264  23.012  0.00  0.00    -0.446 OA
ENDBRANCH  28  30
ENDBRANCH  26  27
ENDBRANCH  25  26
ENDBRANCH   4  18
BRANCH   6   8
ATOM      8  C   UNL     1      -3.635   2.786  24.855  0.00  0.00    +0.018 A 
ATOM      9  C   UNL     1      -4.031   2.541  24.173  0.00  0.00    +0.001 A 
ATOM     10  C   UNL     1      -4.823   2.313  24.216  0.00  0.00    +0.004 A 
ATOM     11  C   UNL     1      -5.218   2.330  24.940  0.00  0.00    +0.071 A 
ATOM     12  C   UNL     1      -4.822   2.575  25.620  0.00  0.00    +0.004 A 
ATOM     13  C   UNL     1      -4.030   2.803  25.578  0.00  0.00    +0.001 A 
BRANCH  11  14
ATOM     14  C   UNL     1      -6.010   2.102  24.982  0.00  0.00    +0.419 C 
ATOM     15  F   UNL     1      -6.802   1.873  25.024  0.00  0.00    -0.166 F 
ATOM     16  F   UNL     1      -6.219   2.867  25.212  0.00  0.00    -0.166 F 
ATOM     17  F   UNL     1      -5.801   1.338  24.752  0.00  0.00    -0.166 F 
ENDBRANCH  11  14
ENDBRANCH   6   8
TORSDOF 6
ENDMDL
MODEL 2
REMARK VINA RESULT:     -11.2      3.800      4.714
REMARK  Name = 
REMARK  6 active torsions:
REMARK  status: ('A' for Active; 'I' for Inactive)
REMARK    1  A    between atoms: C_4  and  C_18
REMARK    2  A    between atoms: C_6  and  C_8
REMARK    3  A    between atoms: C_11  and  C_14
REMARK    4  A    between atoms: C_25  and  C_26
REMARK    5  A    between atoms: C_26  and  N_27
REMARK    6  A    between atoms: C_28  and  C_30
REMARK                            x       y       z     vdW  Elec       q    Type
REMARK                         _______ _______ _______ _____ _____    ______ ____
ROOT
ATOM      1  C   UNL     1      -5.762   3.544  25.838  0.00  0.00    +0.074 C 
ATOM      2  C   UNL     1      -5.039   3.209  25.622  0.00  0.00    +0.139 A 
ATOM      3  N   UNL     1      -4.986   2.397  25.490  0.00  0.00    -0.235 NA
ATOM      4  C   UNL     1      -4.263   2.061  25.274  0.00  0.00    +0.063 A 
ATOM      5  C   UNL     1      -3.596   2.537  25.190  0.00  0.00    +0.034 A 
ATOM      6  C   UNL     1      -3.649   3.349  25.323  0.00  0.00    +0.084 A 
ATOM      7  N   UNL     1      -4.371   3.685  25.539  0.00  0.00    -0.231 NA
ENDROOT
BRANCH   4  18
ATOM     18  C   UNL     1      -4.210   1.247  25.141  0.00  0.00    +0.056 C 
ATOM     19  C   UNL     1      -3.815   0.826  25.663  0.00  0.00    +0.078 C 
ATOM     20  N   UNL     1      -4.188   0.537  24.986  0.00  0.00    -0.272 NA
ATOM     21  C   UNL     1      -4.626   1.357  24.500  0.00  0.00    +0.072 C 
ATOM     22  C   UNL     1      -4.974   1.604  24.006  0.00  0.00    +0.018 C 
ATOM     23  C   UNL     1      -4.573   0.956  24.478  0.00  0.00    +0.010 C 
ATOM     24  C   UNL     1      -4.639   0.144  24.153  0.00  0.00    +0.018 C 
ATOM     25  C   UNL     1      -4.260  -0.305  24.641  0.00  0.00    +0.079 C 
BRANCH  25  26
ATOM     26  C   UNL     1      -4.045  -1.089  24.777  0.00  0.00    +0.131 C 
BRANCH  26  27
ATOM     27  N   UNL     1      -3.276  -1.340  24.614  0.00  0.00    -0.198 NA
ATOM     28  C   UNL     1      -3.047  -2.110  24.799  0.00  0.00    +0.300 C 
ATOM     29  O   UNL     1      -3.585  -2.629  25.148  0.00  0.00    -0.265 OA
BRANCH  28  30
ATOM     30  C   UNL     1      -2.278  -2.362  24.636  0.00  0.00    +0.200 A 
ATOM     31  C   UNL     1      -1.604  -2.178  25.074  0.00  0.00    +0.046 A 
ATOM     32  C   UNL     1      -0.958  -2.544  24.715  0.00  0.00    +0.044 A 
ATOM     33  C   UNL     1      -1.233  -2.954  24.054  0.00  0.00    +0.180 A 
ATOM     34  O   UNL     1      -2.049  -2.842  24.006  0.00  0.00    -0.446 OA
ENDBRANCH  28  30
ENDBRANCH  26  27
ENDBRANCH  25  26
ENDBRANCH   4  18
BRANCH   6   8
ATOM      8  C   UNL     1      -2.982   3.826  25.240  0.00  0.00    +0.018 A 
ATOM      9  C   UNL     1      -2.446   3.897  25.863  0.00  0.00    +0.001 A 
ATOM     10  C   UNL     1      -1.777   4.374  25.781  0.00  0.00    +0.004 A 
ATOM     11  C   UNL     1      -1.645   4.780  25.074  0.00  0.00    +0.071 A 
ATOM     12  C   UNL     1      -2.181   4.709  24.451  0.00  0.00    +0.004 A 
ATOM     13  C   UNL     1      -2.849   4.232  24.534  0.00  0.00    +0.001 A 
BRANCH  11  14
ATOM     14  C   UNL     1      -0.977   5.258  24.992  0.00  0.00    +0.419 C 
ATOM     15  F   UNL     1      -0.308   5.734  24.909  0.00  0.00    -0.166 F 
ATOM     16  F   UNL     1      -1.413   5.912  25.242  0.00  0.00    -0.166 F 
ATOM     17  F   UNL     1      -0.542   4.603  24.742  0.00  0.00    -0.166 F 
ENDBRANCH  11  14
ENDBRANCH   6   8
TORSDOF 6
ENDMDL
MODEL 3
REMARK VINA RESULT:     -11.0      1.722      2.241
REMARK  Name = 
REMARK  6 active torsions:
REMARK  status: ('A' for Active; 'I' for Inactive)
REMARK    1  A    between atoms: C_4  and  C_18
REMARK    2  A    between atoms: C_6  and  C_8
REMARK    3  A    between atoms: C_11  and  C_14
REMARK    4  A    between atoms: C_25  and  C_26
REMARK    5  A    between atoms: C_26  and  N_27
REMARK    6  A    between atoms: C_28  and  C_30
REMARK                            x       y       z     vdW  Elec       q    Type
REMARK                         _______ _______ _______ _____ _____    ______ ____
ROOT
ATOM      1  C   UNL     1      -3.483  -1.275  25.521  0.00  0.00    +0.074 C 
ATOM      2  C   UNL     1      -3.168  -0.586  25.195  0.00  0.00    +0.139 A 
ATOM      3  N   UNL     1      -2.432  -0.605  24.822  0.00  0.00    -0.235 NA
ATOM      4  C   UNL     1      -2.117   0.085  24.496  0.00  0.00    +0.063 A 
ATOM      5  C   UNL     1      -2.537   0.793  24.543  0.00  0.00    +0.034 A 
ATOM      6  C   UNL     1      -3.272   0.812  24.916  0.00  0.00    +0.084 A 
ATOM      7  N   UNL     1      -3.588   0.123  25.242  0.00  0.00    -0.231 NA
ENDROOT
BRANCH   4  18
ATOM     18  C   UNL     1      -1.381   0.066  24.122  0.00  0.00    +0.056 C 
ATOM     19  C   UNL     1      -1.376   0.087  23.344  0.00  0.00    +0.078 C 
ATOM     20  N   UNL     1      -0.714   0.047  23.834  0.00  0.00    -0.272 NA
ATOM     21  C   UNL     1      -1.061   0.033  24.823  0.00  0.00    +0.072 C 
ATOM     22  C   UNL     1      -0.945   0.011  25.466  0.00  0.00    +0.018 C 
ATOM     23  C   UNL     1      -0.726   0.026  24.596  0.00  0.00    +0.010 C 
ATOM     24  C   UNL     1       0.132  -0.004  24.414  0.00  0.00    +0.018 C 
ATOM     25  C   UNL     1       0.180   0.016  23.652  0.00  0.00    +0.079 C 
BRANCH  25  26
ATOM     26  C   UNL     1       0.722   0.011  23.031  0.00  0.00    +0.131 C 
BRANCH  26  27
ATOM     27  N   UNL     1       1.523   0.141  23.180  0.00  0.00    -0.198 NA
ATOM     28  C   UNL     1       2.071   0.080  22.567  0.00  0.00    +0.300 C 
ATOM     29  O   UNL     1       1.819  -0.112  21.805  0.00  0.00    -0.265 OA
BRANCH  28  30
ATOM     30  C   UNL     1       2.872   0.210  22.716  0.00  0.00    +0.200 A 
ATOM     31  C   UNL     1       3.268   0.929  22.642  0.00  0.00    +0.046 A 
ATOM     32  C   UNL     1       4.058   0.808  22.846  0.00  0.00    +0.044 A 
ATOM     33  C   UNL     1       4.151   0.013  23.045  0.00  0.00    +0.180 A 
ATOM     34  O   UNL     1       3.417  -0.357  22.965  0.00  0.00    -0.446 OA
ENDBRANCH  28  30
ENDBRANCH  26  27
ENDBRANCH  25  26
ENDBRANCH   4  18
BRANCH   6   8
ATOM      8  C   UNL     1      -3.693   1.520  24.964  0.00  0.00    +0.018 A 
ATOM      9  C   UNL     1      -3.381   2.157  25.385  0.00  0.00    +0.001 A 
ATOM     10  C   UNL     1      -3.801   2.866  25.434  0.00  0.00    +0.004 A 
ATOM     11  C   UNL     1      -4.534   2.937  25.061  0.00  0.00    +0.071 A 
ATOM     12  C   UNL     1      -4.845   2.300  24.640  0.00  0.00    +0.004 A 
ATOM     13  C   UNL     1      -4.425   1.591  24.592  0.00  0.00    +0.001 A 
BRANCH  11  14
ATOM     14  C   UNL     1      -4.954   3.645  25.109  0.00  0.00    +0.419 C 
ATOM     15  F   UNL     1      -5.373   4.354  25.157  0.00  0.00    -0.166 F 
ATOM     16  F   UNL     1      -5.472   3.301  25.651  0.00  0.00    -0.166 F 
ATOM     17  F   UNL     1      -4.435   3.989  24.567  0.00  0.00    -0.166 F 
ENDBRANCH  11  14
ENDBRANCH   6   8
TORSDOF 6
ENDMDL
MODEL 4
REMARK VINA RESULT:     -10.4      2.539      3.445
REMARK  Name = 
REMARK  6 active torsions:
REMARK  status: ('A' for Active; 'I' for Inactive)
REMARK    1  A    between atoms: C_4  and  C_18
REMARK    2  A    between atoms: C_6  and  C_8
REMARK    3  A    between atoms: C_11  and  C_14
REMARK    4  A    between atoms: C_25  and  C_26
REMARK    5  A    between atoms: C_26  and  N_27
REMARK    6  A    between atoms: C_28  and  C_30
REMARK                            x       y       z     vdW  Elec       q    Type
REMARK                         _______ _______ _______ _____ _____    ______ ____
ROOT
ATOM      1  C   UNL     1      -0.620   4.131  24.496  0.00  0.00    +0.074 C 
ATOM      2  C   UNL     1      -1.206   3.570  24.647  0.00  0.00    +0.139 A 
ATOM      3  N   UNL     1      -1.018   2.767  24.650  0.00  0.00    -0.235 NA
ATOM      4  C   UNL     1      -1.604   2.207  24.801  0.00  0.00    +0.063 A 
ATOM      5  C   UNL     1      -2.378   2.449  24.950  0.00  0.00    +0.034 A 
ATOM      6  C   UNL     1      -2.566   3.252  24.948  0.00  0.00    +0.084 A 
ATOM      7  N   UNL     1      -1.981   3.813  24.796  0.00  0.00    -0.231 NA
ENDROOT
BRANCH   4  18
ATOM     18  C   UNL     1      -1.416   1.402  24.804  0.00  0.00    +0.056 C 
ATOM     19  C   UNL     1      -1.715   0.965  24.234  0.00  0.00    +0.078 C 
ATOM     20  N   UNL     1      -1.224   0.702  24.844  0.00  0.00    -0.272 NA
ATOM     21  C   UNL     1      -0.998   1.535  25.439  0.00  0.00    +0.072 C 
ATOM     22  C   UNL     1      -0.696   1.799  25.955  0.00  0.00    +0.018 C 
ATOM     23  C   UNL     1      -0.934   1.138  25.398  0.00  0.00    +0.010 C 
ATOM     24  C   UNL     1      -0.616   0.342  25.587  0.00  0.00    +0.018 C 
ATOM     25  C   UNL     1      -0.890  -0.122  25.046  0.00  0.00    +0.079 C 
BRANCH  25  26
ATOM     26  C   UNL     1      -0.885  -0.907  24.793  0.00  0.00    +0.131 C 
BRANCH  26  27
ATOM     27  N   UNL     1      -1.597  -1.295  24.639  0.00  0.00    -0.198 NA
ATOM     28  C   UNL     1      -1.640  -2.116  24.704  0.00  0.00    +0.300 C 
ATOM     29  O   UNL     1      -0.973  -2.549  24.923  0.00  0.00    -0.265 OA
BRANCH  28  30
ATOM     30  C   UNL     1      -2.352  -2.505  24.549  0.00  0.00    +0.200 A 
ATOM     31  C   UNL     1      -3.030  -2.481  25.018  0.00  0.00    +0.046 A 
ATOM     32  C   UNL     1      -3.607  -2.946  24.658  0.00  0.00    +0.044 A 
ATOM     33  C   UNL     1      -3.286  -3.259  23.965  0.00  0.00    +0.180 A 
ATOM     34  O   UNL     1      -2.510  -2.986  23.898  0.00  0.00    -0.446 OA
ENDBRANCH  28  30
ENDBRANCH  26  27
ENDBRANCH  25  26
ENDBRANCH   4  18
BRANCH   6   8
ATOM      8  C   UNL     1      -3.340   3.495  25.097  0.00  0.00    +0.018 A 
ATOM      9  C   UNL     1      -3.553   3.755  25.851  0.00  0.00    +0.001 A 
ATOM     10  C   UNL     1      -4.327   3.999  26.000  0.00  0.00    +0.004 A 
ATOM     11  C   UNL     1      -4.889   3.982  25.396  0.00  0.00    +0.071 A 
ATOM     12  C   UNL     1      -4.676   3.721  24.643  0.00  0.00    +0.004 A 
ATOM     13  C   UNL     1      -3.902   3.478  24.493  0.00  0.00    +0.001 A 
BRANCH  11  14
ATOM     14  C   UNL     1      -5.663   4.225  25.546  0.00  0.00    +0.419 C 
ATOM     15  F   UNL     1      -6.437   4.468  25.696  0.00  0.00    -0.166 F 
ATOM     16  F   UNL     1      -5.461   4.997  25.335  0.00  0.00    -0.166 F 
ATOM     17  F   UNL     1      -5.864   3.453  25.756  0.00  0.00    -0.166 F 
ENDBRANCH  11  14
ENDBRANCH   6   8
TORSDOF 6
ENDMDL
MODEL 5
REMARK VINA RESULT:     -10.1      3.183      4.894
REMARK  Name = 
REMARK  6 active torsions:
REMARK  status: ('A' for Active; 'I' for Inactive)
REMARK    1  A    between atoms: C_4  and  C_18
REMARK    2  A    between atoms: C_6  and  C_8
REMARK    3  A    between atoms: C_11  and  C_14
REMARK    4  A    between atoms: C_25  and  C_26
REMARK    5  A    between atoms: C_26  and  N_27
REMARK    6  A    between atoms: C_28  and  C_30
REMARK                            x       y       z     vdW  Elec       q    Type
REMARK                         _______ _______ _______ _____ _____    ______ ____
ROOT
ATOM      1  C   UNL     1       0.142  -2.298  25.539  0.00  0.00    +0.074 C 
ATOM      2  C   UNL     1      -0.416  -1.757  25.262  0.00  0.00    +0.139 A 
ATOM      3  N   UNL     1      -0.225  -0.955  25.215  0.00  0.00    -0.235 NA
ATOM      4  C   UNL     1      -0.783  -0.414  24.938  0.00  0.00    +0.063 A 
ATOM      5  C   UNL     1      -1.531  -0.674  24.707  0.00  0.00    +0.034 A 
ATOM      6  C   UNL     1      -1.721  -1.475  24.753  0.00  0.00    +0.084 A 
ATOM      7  N   UNL     1      -1.164  -2.016  25.031  0.00  0.00    -0.231 NA
ENDROOT
BRANCH   4  18
ATOM     18  C   UNL     1      -0.592   0.388  24.891  0.00  0.00    +0.056 C 
ATOM     19  C   UNL     1      -0.813   0.842  25.484  0.00  0.00    +0.078 C 
ATOM     20  N   UNL     1      -0.404   1.085  24.810  0.00  0.00    -0.272 NA
ATOM     21  C   UNL     1      -0.261   0.237  24.210  0.00  0.00    +0.072 C 
ATOM     22  C   UNL     1      -0.030  -0.042  23.667  0.00  0.00    +0.018 C 
ATOM     23  C   UNL     1      -0.191   0.635  24.233  0.00  0.00    +0.010 C 
ATOM     24  C   UNL     1       0.105   1.423  23.985  0.00  0.00    +0.018 C 
ATOM     25  C   UNL     1      -0.094   1.902  24.546  0.00  0.00    +0.079 C 
BRANCH  25  26
ATOM     26  C   UNL     1      -0.053   2.693  24.776  0.00  0.00    +0.131 C 
BRANCH  26  27
ATOM     27  N   UNL     1      -0.744   3.110  24.947  0.00  0.00    -0.198 NA
ATOM     28  C   UNL     1      -0.713   3.924  25.073  0.00  0.00    +0.300 C 
ATOM     29  O   UNL     1       0.008   4.322  25.028  0.00  0.00    -0.265 OA
BRANCH  28  30
ATOM     30  C   UNL     1      -1.404   4.341  25.244  0.00  0.00    +0.200 A 
ATOM     31  C   UNL     1      -1.546   5.136  25.075  0.00  0.00    +0.046 A 
ATOM     32  C   UNL     1      -2.303   5.323  25.340  0.00  0.00    +0.044 A 
ATOM     33  C   UNL     1      -2.631   4.643  25.675  0.00  0.00    +0.180 A 
ATOM     34  O   UNL     1      -2.075   4.037  25.615  0.00  0.00    -0.446 OA
ENDBRANCH  28  30
ENDBRANCH  26  27
ENDBRANCH  25  26
ENDBRANCH   4  18
BRANCH   6   8
ATOM      8  C   UNL     1      -2.469  -1.735  24.523  0.00  0.00    +0.018 A 
ATOM      9  C   UNL     1      -3.120  -1.233  24.590  0.00  0.00    +0.001 A 
ATOM     10  C   UNL     1      -3.868  -1.492  24.359  0.00  0.00    +0.004 A 
ATOM     11  C   UNL     1      -3.966  -2.256  24.061  0.00  0.00    +0.071 A 
ATOM     12  C   UNL     1      -3.315  -2.758  23.994  0.00  0.00    +0.004 A 
ATOM     13  C   UNL     1      -2.567  -2.498  24.225  0.00  0.00    +0.001 A 
BRANCH  11  14
ATOM     14  C   UNL     1      -4.714  -2.516  23.830  0.00  0.00    +0.419 C 
ATOM     15  F   UNL     1      -5.463  -2.775  23.600  0.00  0.00    -0.166 F 
ATOM     16  F   UNL     1      -4.443  -3.295  23.829  0.00  0.00    -0.166 F 
ATOM     17  F   UNL     1      -4.984  -1.736  23.832  0.00  0.00    -0.166 F 
ENDBRANCH  11  14
ENDBRANCH   6   8
TORSDOF 6
ENDMDL
MODEL 6
REMARK VINA RESULT:     -10.0      2.584      3.090
REMARK  Name = 
REMARK  6 active torsions:
REMARK  status: ('A' for Active; 'I' for Inactive)
REMARK    1  A    between atoms: C_4  and  C_18
REMARK    2  A    between atoms: C_6  and  C_8
REMARK    3  A    between atoms: C_11  and  C_14
REMARK    4  A    between atoms: C_25  and  C_26
REMARK    5  A    between atoms: C_26  and  N_27
REMARK    6  A    between atoms: C_28  and  C_30
REMARK                            x       y       z     vdW  Elec       q    Type
REMARK                         _______ _______ _______ _____ _____    ______ ____
ROOT
ATOM      1  C   UNL     1      -2.694   2.188  24.598  0.00  0.00    +0.074 C 
ATOM      2  C   UNL     1      -2.276   1.493  24.450  0.00  0.00    +0.139 A 
ATOM      3  N   UNL     1      -1.495   1.529  24.186  0.00  0.00    -0.235 NA
ATOM      4  C   UNL     1      -1.077   0.833  24.039  0.00  0.00    +0.063 A 
ATOM      5  C   UNL     1      -1.439   0.102  24.154  0.00  0.00    +0.034 A 
ATOM      6  C   UNL     1      -2.220   0.065  24.418  0.00  0.00    +0.084 A 
ATOM      7  N   UNL     1      -2.638   0.760  24.566  0.00  0.00    -0.231 NA
ENDROOT
BRANCH   4  18
ATOM     18  C   UNL     1      -0.295   0.870  23.775  0.00  0.00    +0.056 C 
ATOM     19  C   UNL     1      -0.139   0.555  23.080  0.00  0.00    +0.078 C 
ATOM     20  N   UNL     1       0.404   0.924  23.582  0.00  0.00    -0.272 NA
ATOM     21  C   UNL     1      -0.124   1.236  24.432  0.00  0.00    +0.072 C 
ATOM     22  C   UNL     1      -0.137   1.526  25.018  0.00  0.00    +0.018 C 
ATOM     23  C   UNL     1       0.243   1.229  24.261  0.00  0.00    +0.010 C 
ATOM     24  C   UNL     1       1.105   1.375  24.180  0.00  0.00    +0.018 C 
ATOM     25  C   UNL     1       1.300   1.078  23.504  0.00  0.00    +0.079 C 
BRANCH  25  26
ATOM     26  C   UNL     1       1.942   0.965  23.000  0.00  0.00    +0.131 C 
BRANCH  26  27
ATOM     27  N   UNL     1       2.674   0.739  23.309  0.00  0.00    -0.198 NA
ATOM     28  C   UNL     1       3.290   0.537  22.799  0.00  0.00    +0.300 C 
ATOM     29  O   UNL     1       3.176   0.560  21.983  0.00  0.00    -0.265 OA
BRANCH  28  30
ATOM     30  C   UNL     1       4.022   0.311  23.108  0.00  0.00    +0.200 A 
ATOM     31  C   UNL     1       4.700   0.779  23.139  0.00  0.00    +0.046 A 
ATOM     32  C   UNL     1       5.301   0.335  23.489  0.00  0.00    +0.044 A 
ATOM     33  C   UNL     1       4.993  -0.408  23.675  0.00  0.00    +0.180 A 
ATOM     34  O   UNL     1       4.203  -0.422  23.439  0.00  0.00    -0.446 OA
ENDBRANCH  28  30
ENDBRANCH  26  27
ENDBRANCH  25  26
ENDBRANCH   4  18
BRANCH   6   8
ATOM      8  C   UNL     1      -2.583  -0.667  24.534  0.00  0.00    +0.018 A 
ATOM      9  C   UNL     1      -2.287  -1.188  25.100  0.00  0.00    +0.001 A 
ATOM     10  C   UNL     1      -2.650  -1.920  25.217  0.00  0.00    +0.004 A 
ATOM     11  C   UNL     1      -3.309  -2.130  24.766  0.00  0.00    +0.071 A 
ATOM     12  C   UNL     1      -3.604  -1.609  24.200  0.00  0.00    +0.004 A 
ATOM     13  C   UNL     1      -3.241  -0.877  24.084  0.00  0.00    +0.001 A 
BRANCH  11  14
ATOM     14  C   UNL     1      -3.671  -2.862  24.883  0.00  0.00    +0.419 C 
ATOM     15  F   UNL     1      -4.034  -3.594  25.001  0.00  0.00    -0.166 F 
ATOM     16  F   UNL     1      -3.688  -2.984  24.067  0.00  0.00    -0.166 F 
ATOM     17  F   UNL     1      -3.654  -2.740  25.699  0.00  0.00    -0.166 F 
ENDBRANCH  11  14
ENDBRANCH   6   8
TORSDOF 6
ENDMDL
