MODEL 1
REMARK VINA RESULT:     -12.2      0.000      0.000
REMARK  Name = 
REMARK  8 active torsions:
REMARK  status: ('A' for Active; 'I' for Inactive)
REMARK    1  A    between atoms: C_2  and  C_4
REMARK    2  A    between atoms: C_4  and  C_5
REMARK    3  A    between atoms: C_4  and  N_15
REMARK    4  A    between atoms: C_5  and  C_6
REMARK    5  A    between atoms: C_16  and  C_18
REMARK    6  A    between atoms: N_23  and  S_24
REMARK    7  A    between atoms: S_24  and  C_27
REMARK    8  A    between atoms: C_33  and  C_35
REMARK                            x       y       z     vdW  Elec       q    Type
REMARK                         _______ _______ _______ _____ _____    ______ ____
ROOT
ATOM     18  C   UNL     1      -1.729   1.515  25.203  0.00  0.00    +0.177 C 
ATOM     19  C   UNL     1      -2.523   1.444  24.989  0.00  0.00    +0.121 C 
ATOM     20  N   UNL     1      -3.028   2.094  25.051  0.00  0.00    -0.273 N 
ATOM     21  C   UNL     1      -2.738   2.816  25.326  0.00  0.00    +0.113 C 
ATOM     22  C   UNL     1      -1.945   2.888  25.540  0.00  0.00    +0.118 C 
ATOM     23  N   UNL     1      -1.440   2.238  25.478  0.00  0.00    -0.145 NA
ATOM     33  C   UNL     1      -3.821   2.021  24.838  0.00  0.00    +0.249 C 
ATOM     34  O   UNL     1      -4.111   1.300  24.563  0.00  0.00    -0.270 OA
ENDROOT
BRANCH  33  35
ATOM     35  C   UNL     1      -4.326   2.672  24.900  0.00  0.00    +0.056 A 
ATOM     36  C   UNL     1      -4.284   3.280  24.344  0.00  0.00    +0.005 A 
ATOM     37  C   UNL     1      -4.789   3.930  24.406  0.00  0.00    +0.002 A 
ATOM     38  C   UNL     1      -5.334   3.972  25.023  0.00  0.00    +0.030 A 
ATOM     39  C   UNL     1      -5.375   3.363  25.579  0.00  0.00    +0.140 A 
ATOM     40  F   UNL     1      -5.921   3.405  26.196  0.00  0.00    -0.204 F 
ATOM     41  C   UNL     1      -4.871   2.713  25.517  0.00  0.00    +0.034 A 
ENDBRANCH  33  35
BRANCH  18  16
ATOM     15  N   UNL     1      -1.324   0.323  24.528  0.00  0.00    -0.196 NA
ATOM     16  C   UNL     1      -1.225   0.866  25.141  0.00  0.00    +0.260 C 
ATOM     17  O   UNL     1      -0.621   0.760  25.692  0.00  0.00    -0.272 OA
BRANCH  15   4
ATOM      4  C   UNL     1      -0.820  -0.326  24.466  0.00  0.00    +0.179 C 
BRANCH   4   2
ATOM      1  N   UNL     1       0.567  -0.582  24.233  0.00  0.00    -0.086 NA
ATOM      2  C   UNL     1      -0.158  -0.289  23.974  0.00  0.00    +0.281 C 
ATOM      3  O   UNL     1      -0.224   0.043  23.221  0.00  0.00    -0.270 OA
ENDBRANCH   4   2
BRANCH   4   5
ATOM      5  C   UNL     1      -0.976  -1.013  24.896  0.00  0.00    +0.059 C 
BRANCH   5   6
ATOM      6  C   UNL     1      -1.454  -1.602  24.573  0.00  0.00    +0.001 A 
ATOM      7  C   UNL     1      -1.324  -1.996  23.859  0.00  0.00    +0.095 A 
ATOM      8  N   UNL     1      -1.936  -2.539  23.752  0.00  0.00    -0.244 NA
ATOM      9  C   UNL     1      -2.444  -2.481  24.398  0.00  0.00    +0.081 A 
ATOM     10  C   UNL     1      -2.146  -1.902  24.906  0.00  0.00    +0.015 A 
ATOM     11  C   UNL     1      -2.545  -1.723  25.606  0.00  0.00    +0.001 A 
ATOM     12  C   UNL     1      -3.241  -2.122  25.798  0.00  0.00    +0.000 A 
ATOM     13  C   UNL     1      -3.538  -2.700  25.291  0.00  0.00    +0.002 A 
ATOM     14  C   UNL     1      -3.140  -2.880  24.591  0.00  0.00    +0.019 A 
ENDBRANCH   5   6
ENDBRANCH   4   5
ENDBRANCH  15   4
ENDBRANCH  18  16
BRANCH  23  24
ATOM     24  S   UNL     1      -0.646   2.310  25.691  0.00  0.00    +0.064 S 
ATOM     25  O   UNL     1       0.147   2.382  25.904  0.00  0.00    -0.153 OA
ATOM     26  O   UNL     1      -0.707   1.625  26.146  0.00  0.00    -0.153 OA
BRANCH  24  27
ATOM     27  C   UNL     1      -0.587   2.995  25.235  0.00  0.00    +0.122 A 
ATOM     28  C   UNL     1      -0.331   2.950  24.453  0.00  0.00    +0.020 A 
ATOM     29  C   UNL     1      -0.271   3.635  23.998  0.00  0.00    +0.001 A 
ATOM     30  C   UNL     1      -0.468   4.366  24.325  0.00  0.00    +0.000 A 
ATOM     31  C   UNL     1      -0.725   4.412  25.108  0.00  0.00    +0.001 A 
ATOM     32  C   UNL     1      -0.784   3.726  25.563  0.00  0.00    +0.020 A 
ENDBRANCH  24  27
ENDBRANCH  23  24
TORSDOF 8
ENDMDL
MODEL 2
REMARK VINA RESULT:     -11.9      1.431      2.890
REMARK  Name = 
REMARK  8 active torsions:
REMARK  status: ('A' for Active; 'I' for Inactive)
REMARK    1  A    between atoms: C_2  and  C_4
REMARK    2  A    between atoms: C_4  and  C_5
REMARK    3  A    between atoms: C_4  and  N_15
REMARK    4  A    between atoms: C_5  and  C_6
REMARK    5  A    between atoms: C_16  and  C_18
REMARK    6  A    between atoms: N_23  and  S_24
REMARK    7  A    between atoms: S_24  and  C_27
REMARK    8  A    between atoms: C_33  and  C_35
REMARK                            x       y       z     vdW  Elec       q    Type
REMARK                         _______ _______ _______ _____ _____    ______ ____
ROOT
ATOM     18  C   UNL     1      -1.656   1.769  23.880  0.00  0.00    +0.177 C 
ATOM     19  C   UNL     1      -1.193   2.277  24.338  0.00  0.00    +0.121 C 
ATOM     20  N   UNL     1      -1.448   3.047  24.487  0.00  0.00    -0.273 N 
ATOM     21  C   UNL     1      -2.167   3.311  24.178  0.00  0.00    +0.113 C 
ATOM     22  C   UNL     1      -2.629   2.803  23.721  0.00  0.00    +0.118 C 
ATOM     23  N   UNL     1      -2.375   2.033  23.572  0.00  0.00    -0.145 NA
ATOM     33  C   UNL     1      -0.985   3.554  24.944  0.00  0.00    +0.249 C 
ATOM     34  O   UNL     1      -0.267   3.291  25.253  0.00  0.00    -0.270 OA
ENDROOT
BRANCH  33  35
ATOM     35  C   UNL     1      -1.240   4.324  25.093  0.00  0.00    +0.056 A 
ATOM     36  C   UNL     1      -0.862   4.961  24.729  0.00  0.00    +0.005 A 
ATOM     37  C   UNL     1      -1.118   5.732  24.878  0.00  0.00    +0.002 A 
ATOM     38  C   UNL     1      -1.751   5.865  25.390  0.00  0.00    +0.030 A 
ATOM     39  C   UNL     1      -2.128   5.227  25.753  0.00  0.00    +0.140 A 
ATOM     40  F   UNL     1      -2.762   5.361  26.265  0.00  0.00    -0.204 F 
ATOM     41  C   UNL     1      -1.873   4.458  25.605  0.00  0.00    +0.034 A 
ENDBRANCH  33  35
BRANCH  18  16
ATOM     15  N   UNL     1      -1.217   0.497  24.360  0.00  0.00    -0.196 NA
ATOM     16  C   UNL     1      -1.401   0.999  23.732  0.00  0.00    +0.260 C 
ATOM     17  O   UNL     1      -1.330   0.732  22.955  0.00  0.00    -0.272 OA
BRANCH  15   4
ATOM      4  C   UNL     1      -0.962  -0.273  24.211  0.00  0.00    +0.179 C 
BRANCH   4   2
ATOM      1  N   UNL     1       0.128  -0.890  23.523  0.00  0.00    -0.086 NA
ATOM      2  C   UNL     1      -0.155  -0.435  24.149  0.00  0.00    +0.281 C 
ATOM      3  O   UNL     1       0.369  -0.140  24.715  0.00  0.00    -0.270 OA
ENDBRANCH   4   2
BRANCH   4   5
ATOM      5  C   UNL     1      -1.513  -0.881  24.124  0.00  0.00    +0.059 C 
BRANCH   5   6
ATOM      6  C   UNL     1      -1.859  -1.223  24.790  0.00  0.00    +0.001 A 
ATOM      7  C   UNL     1      -1.647  -1.078  25.575  0.00  0.00    +0.095 A 
ATOM      8  N   UNL     1      -2.135  -1.535  26.058  0.00  0.00    -0.244 NA
ATOM      9  C   UNL     1      -2.647  -1.962  25.573  0.00  0.00    +0.081 A 
ATOM     10  C   UNL     1      -2.477  -1.769  24.789  0.00  0.00    +0.015 A 
ATOM     11  C   UNL     1      -2.907  -2.116  24.177  0.00  0.00    +0.001 A 
ATOM     12  C   UNL     1      -3.507  -2.655  24.347  0.00  0.00    +0.000 A 
ATOM     13  C   UNL     1      -3.677  -2.848  25.131  0.00  0.00    +0.002 A 
ATOM     14  C   UNL     1      -3.248  -2.502  25.744  0.00  0.00    +0.019 A 
ENDBRANCH   5   6
ENDBRANCH   4   5
ENDBRANCH  15   4
ENDBRANCH  18  16
BRANCH  23  24
ATOM     24  S   UNL     1      -2.837   1.526  23.114  0.00  0.00    +0.064 S 
ATOM     25  O   UNL     1      -3.301   1.019  22.658  0.00  0.00    -0.153 OA
ATOM     26  O   UNL     1      -2.173   1.322  22.669  0.00  0.00    -0.153 OA
BRANCH  24  27
ATOM     27  C   UNL     1      -3.500   1.730  23.561  0.00  0.00    +0.122 A 
ATOM     28  C   UNL     1      -3.734   1.256  24.194  0.00  0.00    +0.020 A 
ATOM     29  C   UNL     1      -4.398   1.461  24.639  0.00  0.00    +0.001 A 
ATOM     30  C   UNL     1      -4.827   2.140  24.452  0.00  0.00    +0.000 A 
ATOM     31  C   UNL     1      -4.593   2.614  23.819  0.00  0.00    +0.001 A 
ATOM     32  C   UNL     1      -3.930   2.410  23.373  0.00  0.00    +0.020 A 
ENDBRANCH  24  27
ENDBRANCH  23  24
TORSDOF 8
ENDMDL
MODEL 3
REMARK VINA RESULT:     -11.6      1.634      4.562
REMARK  Name = 
REMARK  8 active torsions:
REMARK  status: ('A' for Active; 'I' for Inactive)
REMARK    1  A    between atoms: C_2  and  C_4
REMARK    2  A    between atoms: C_4  and  C_5
REMARK    3  A    between atoms: C_4  and  N_15
REMARK    4  A    between atoms: C_5  and  C_6
REMARK    5  A    between atoms: C_16  and  C_18
REMARK    6  A    between atoms: N_23  and  S_24
REMARK    7  A    between atoms: S_24  and  C_27
REMARK    8  A    between atoms: C_33  and  C_35
REMARK                            x       y       z     vdW  Elec       q    Type
REMARK                         _______ _______ _______ _____ _____    ______ ____
ROOT
ATOM     18  C   UNL     1      -2.005   0.907  25.028  0.00  0.00    +0.177 C 
ATOM     19  C   UNL     1      -2.755   0.594  24.882  0.00  0.00    +0.121 C 
ATOM     20  N   UNL     1      -2.847  -0.217  24.759  0.00  0.00    -0.273 N 
ATOM     21  C   UNL     1      -2.190  -0.715  24.783  0.00  0.00    +0.113 C 
ATOM     22  C   UNL     1      -1.440  -0.402  24.930  0.00  0.00    +0.118 C 
ATOM     23  N   UNL     1      -1.348   0.408  25.052  0.00  0.00    -0.145 NA
ATOM     33  C   UNL     1      -3.596  -0.530  24.613  0.00  0.00    +0.249 C 
ATOM     34  O   UNL     1      -4.253  -0.032  24.589  0.00  0.00    -0.270 OA
ENDROOT
BRANCH  33  35
ATOM     35  C   UNL     1      -3.688  -1.341  24.490  0.00  0.00    +0.056 A 
ATOM     36  C   UNL     1      -3.900  -1.623  23.745  0.00  0.00    +0.005 A 
ATOM     37  C   UNL     1      -3.992  -2.434  23.622  0.00  0.00    +0.002 A 
ATOM     38  C   UNL     1      -3.872  -2.962  24.245  0.00  0.00    +0.030 A 
ATOM     39  C   UNL     1      -3.660  -2.678  24.990  0.00  0.00    +0.140 A 
ATOM     40  F   UNL     1      -3.540  -3.207  25.613  0.00  0.00    -0.204 F 
ATOM     41  C   UNL     1      -3.568  -1.868  25.113  0.00  0.00    +0.034 A 
ENDBRANCH  33  35
BRANCH  18  16
ATOM     15  N   UNL     1      -2.257   2.255  24.629  0.00  0.00    -0.196 NA
ATOM     16  C   UNL     1      -1.913   1.717  25.151  0.00  0.00    +0.260 C 
ATOM     17  O   UNL     1      -1.477   1.989  25.795  0.00  0.00    -0.272 OA
BRANCH  15   4
ATOM      4  C   UNL     1      -2.165   3.065  24.751  0.00  0.00    +0.179 C 
BRANCH   4   2
ATOM      1  N   UNL     1      -1.059   3.963  24.863  0.00  0.00    -0.086 NA
ATOM      2  C   UNL     1      -1.530   3.464  24.407  0.00  0.00    +0.281 C 
ATOM      3  O   UNL     1      -1.367   3.362  23.604  0.00  0.00    -0.270 OA
ENDBRANCH   4   2
BRANCH   4   5
ATOM      5  C   UNL     1      -2.707   3.477  25.218  0.00  0.00    +0.059 C 
BRANCH   5   6
ATOM      6  C   UNL     1      -3.452   3.664  24.918  0.00  0.00    +0.001 A 
ATOM      7  C   UNL     1      -3.613   3.945  24.158  0.00  0.00    +0.095 A 
ATOM      8  N   UNL     1      -4.427   4.058  24.095  0.00  0.00    -0.244 NA
ATOM      9  C   UNL     1      -4.770   3.846  24.815  0.00  0.00    +0.081 A 
ATOM     10  C   UNL     1      -4.167   3.602  25.323  0.00  0.00    +0.015 A 
ATOM     11  C   UNL     1      -4.349   3.356  26.089  0.00  0.00    +0.001 A 
ATOM     12  C   UNL     1      -5.132   3.353  26.347  0.00  0.00    +0.000 A 
ATOM     13  C   UNL     1      -5.735   3.597  25.839  0.00  0.00    +0.002 A 
ATOM     14  C   UNL     1      -5.554   3.843  25.073  0.00  0.00    +0.019 A 
ENDBRANCH   5   6
ENDBRANCH   4   5
ENDBRANCH  15   4
ENDBRANCH  18  16
BRANCH  23  24
ATOM     24  S   UNL     1      -0.599   0.721  25.198  0.00  0.00    +0.064 S 
ATOM     25  O   UNL     1       0.151   1.033  25.344  0.00  0.00    -0.153 OA
ATOM     26  O   UNL     1      -0.897   1.131  25.849  0.00  0.00    -0.153 OA
BRANCH  24  27
ATOM     27  C   UNL     1      -0.301   0.310  24.548  0.00  0.00    +0.122 A 
ATOM     28  C   UNL     1      -0.109  -0.489  24.616  0.00  0.00    +0.020 A 
ATOM     29  C   UNL     1       0.188  -0.899  23.965  0.00  0.00    +0.001 A 
ATOM     30  C   UNL     1       0.294  -0.510  23.246  0.00  0.00    +0.000 A 
ATOM     31  C   UNL     1       0.102   0.289  23.177  0.00  0.00    +0.001 A 
ATOM     32  C   UNL     1      -0.196   0.700  23.828  0.00  0.00    +0.020 A 
ENDBRANCH  24  27
ENDBRANCH  23  24
TORSDOF 8
ENDMDL
MODEL 4
REMARK VINA RESULT:     -11.6      1.226      2.526
REMARK  Name = 
REMARK  8 active torsions:
REMARK  status: ('A' for Active; 'I' for Inactive)
REMARK    1  A    between atoms: C_2  and  C_4
REMARK    2  A    between atoms: C_4  and  C_5
REMARK    3  A    between atoms: C_4  and  N_15
REMARK    4  A    between atoms: C_5  and  C_6
REMARK    5  A    between atoms: C_16  and  C_18
REMARK    6  A    between atoms: N_23  and  S_24
REMARK    7  A    between atoms: S_24  and  C_27
REMARK    8  A    between atoms: C_33  and  C_35
REMARK                            x       y       z     vdW  Elec       q    Type
REMARK                         _______ _______ _______ _____ _____    ______ ____
ROOT
ATOM     18  C   UNL     1      -1.588   1.291  25.221  0.00  0.00    +0.177 C 
ATOM     19  C   UNL     1      -2.369   1.147  24.995  0.00  0.00    +0.121 C 
ATOM     20  N   UNL     1      -2.928   1.752  25.032  0.00  0.00    -0.273 N 
ATOM     21  C   UNL     1      -2.707   2.502  25.295  0.00  0.00    +0.113 C 
ATOM     22  C   UNL     1      -1.927   2.647  25.520  0.00  0.00    +0.118 C 
ATOM     23  N   UNL     1      -1.368   2.042  25.484  0.00  0.00    -0.145 NA
ATOM     33  C   UNL     1      -3.708   1.607  24.806  0.00  0.00    +0.249 C 
ATOM     34  O   UNL     1      -3.929   0.857  24.543  0.00  0.00    -0.270 OA
ENDROOT
BRANCH  33  35
ATOM     35  C   UNL     1      -4.268   2.212  24.843  0.00  0.00    +0.056 A 
ATOM     36  C   UNL     1      -4.304   2.777  24.243  0.00  0.00    +0.005 A 
ATOM     37  C   UNL     1      -4.863   3.383  24.280  0.00  0.00    +0.002 A 
ATOM     38  C   UNL     1      -5.386   3.423  24.916  0.00  0.00    +0.030 A 
ATOM     39  C   UNL     1      -5.349   2.858  25.516  0.00  0.00    +0.140 A 
ATOM     40  F   UNL     1      -5.873   2.898  26.153  0.00  0.00    -0.204 F 
ATOM     41  C   UNL     1      -4.791   2.253  25.479  0.00  0.00    +0.034 A 
ENDBRANCH  33  35
BRANCH  18  16
ATOM     15  N   UNL     1      -0.954   0.235  24.497  0.00  0.00    -0.196 NA
ATOM     16  C   UNL     1      -1.029   0.686  25.184  0.00  0.00    +0.260 C 
ATOM     17  O   UNL     1      -0.545   0.533  25.834  0.00  0.00    -0.272 OA
BRANCH  15   4
ATOM      4  C   UNL     1      -0.394  -0.370  24.461  0.00  0.00    +0.179 C 
BRANCH   4   2
ATOM      1  N   UNL     1      -1.272  -1.491  24.345  0.00  0.00    -0.086 NA
ATOM      2  C   UNL     1      -0.605  -1.139  24.675  0.00  0.00    +0.281 C 
ATOM      3  O   UNL     1      -0.144  -1.554  25.220  0.00  0.00    -0.270 OA
ENDBRANCH   4   2
BRANCH   4   5
ATOM      5  C   UNL     1       0.375  -0.207  24.210  0.00  0.00    +0.059 C 
BRANCH   5   6
ATOM      6  C   UNL     1       0.565  -0.250  23.409  0.00  0.00    +0.001 A 
ATOM      7  C   UNL     1       0.052  -0.462  22.798  0.00  0.00    +0.095 A 
ATOM      8  N   UNL     1       0.472  -0.432  22.090  0.00  0.00    -0.244 NA
ATOM      9  C   UNL     1       1.245  -0.202  22.261  0.00  0.00    +0.081 A 
ATOM     10  C   UNL     1       1.303  -0.089  23.077  0.00  0.00    +0.015 A 
ATOM     11  C   UNL     1       2.020   0.145  23.411  0.00  0.00    +0.001 A 
ATOM     12  C   UNL     1       2.679   0.267  22.930  0.00  0.00    +0.000 A 
ATOM     13  C   UNL     1       2.621   0.155  22.115  0.00  0.00    +0.002 A 
ATOM     14  C   UNL     1       1.905  -0.080  21.780  0.00  0.00    +0.019 A 
ENDBRANCH   5   6
ENDBRANCH   4   5
ENDBRANCH  15   4
ENDBRANCH  18  16
BRANCH  23  24
ATOM     24  S   UNL     1      -0.588   2.187  25.709  0.00  0.00    +0.064 S 
ATOM     25  O   UNL     1       0.193   2.332  25.935  0.00  0.00    -0.153 OA
ATOM     26  O   UNL     1      -0.590   1.496  26.160  0.00  0.00    -0.153 OA
BRANCH  24  27
ATOM     27  C   UNL     1      -0.586   2.877  25.258  0.00  0.00    +0.122 A 
ATOM     28  C   UNL     1      -0.330   2.858  24.474  0.00  0.00    +0.020 A 
ATOM     29  C   UNL     1      -0.329   3.549  24.024  0.00  0.00    +0.001 A 
ATOM     30  C   UNL     1      -0.583   4.259  24.357  0.00  0.00    +0.000 A 
ATOM     31  C   UNL     1      -0.839   4.279  25.141  0.00  0.00    +0.001 A 
ATOM     32  C   UNL     1      -0.841   3.588  25.592  0.00  0.00    +0.020 A 
ENDBRANCH  24  27
ENDBRANCH  23  24
TORSDOF 8
ENDMDL
MODEL 5
REMARK VINA RESULT:     -11.4      2.098      4.911
REMARK  Name = 
REMARK  8 active torsions:
REMARK  status: ('A' for Active; 'I' for Inactive)
REMARK    1  A    between atoms: C_2  and  C_4
REMARK    2  A    between atoms: C_4  and  C_5
REMARK    3  A    between atoms: C_4  and  N_15
REMARK    4  A    between atoms: C_5  and  C_6
REMARK    5  A    between atoms: C_16  and  C_18
REMARK    6  A    between atoms: N_23  and  S_24
REMARK    7  A    between atoms: S_24  and  C_27
REMARK    8  A    between atoms: C_33  and  C_35
REMARK                            x       y       z     vdW  Elec       q    Type
REMARK                         _______ _______ _______ _____ _____    ______ ____
ROOT
ATOM     18  C   UNL     1      -3.443   1.877  24.706  0.00  0.00    +0.177 C 
ATOM     19  C   UNL     1      -3.027   1.170  24.795  0.00  0.00    +0.121 C 
ATOM     20  N   UNL     1      -3.418   0.448  24.712  0.00  0.00    -0.273 N 
ATOM     21  C   UNL     1      -4.224   0.433  24.539  0.00  0.00    +0.113 C 
ATOM     22  C   UNL     1      -4.640   1.140  24.450  0.00  0.00    +0.118 C 
ATOM     23  N   UNL     1      -4.250   1.861  24.533  0.00  0.00    -0.145 NA
ATOM     33  C   UNL     1      -3.001  -0.259  24.801  0.00  0.00    +0.249 C 
ATOM     34  O   UNL     1      -2.195  -0.244  24.973  0.00  0.00    -0.270 OA
ENDROOT
BRANCH  33  35
ATOM     35  C   UNL     1      -3.392  -0.981  24.717  0.00  0.00    +0.056 A 
ATOM     36  C   UNL     1      -3.518  -1.460  25.377  0.00  0.00    +0.005 A 
ATOM     37  C   UNL     1      -3.909  -2.183  25.293  0.00  0.00    +0.002 A 
ATOM     38  C   UNL     1      -4.174  -2.425  24.550  0.00  0.00    +0.030 A 
ATOM     39  C   UNL     1      -4.048  -1.945  23.891  0.00  0.00    +0.140 A 
ATOM     40  F   UNL     1      -4.313  -2.187  23.148  0.00  0.00    -0.204 F 
ATOM     41  C   UNL     1      -3.657  -1.223  23.974  0.00  0.00    +0.034 A 
ENDBRANCH  33  35
BRANCH  18  16
ATOM     15  N   UNL     1      -2.503   2.703  25.396  0.00  0.00    -0.196 NA
ATOM     16  C   UNL     1      -3.052   2.598  24.790  0.00  0.00    +0.260 C 
ATOM     17  O   UNL     1      -3.211   3.216  24.266  0.00  0.00    -0.272 OA
BRANCH  15   4
ATOM      4  C   UNL     1      -2.113   3.425  25.480  0.00  0.00    +0.179 C 
BRANCH   4   2
ATOM      1  N   UNL     1      -2.490   4.791  25.660  0.00  0.00    -0.086 NA
ATOM      2  C   UNL     1      -2.444   4.020  25.946  0.00  0.00    +0.281 C 
ATOM      3  O   UNL     1      -2.728   3.842  26.701  0.00  0.00    -0.270 OA
ENDBRANCH   4   2
BRANCH   4   5
ATOM      5  C   UNL     1      -1.393   3.552  25.098  0.00  0.00    +0.059 C 
BRANCH   5   6
ATOM      6  C   UNL     1      -0.729   3.112  25.311  0.00  0.00    +0.001 A 
ATOM      7  C   UNL     1      -0.449   2.998  26.080  0.00  0.00    +0.095 A 
ATOM      8  N   UNL     1       0.224   2.524  26.038  0.00  0.00    -0.244 NA
ATOM      9  C   UNL     1       0.361   2.345  25.244  0.00  0.00    +0.081 A 
ATOM     10  C   UNL     1      -0.228   2.708  24.796  0.00  0.00    +0.015 A 
ATOM     11  C   UNL     1      -0.232   2.624  23.975  0.00  0.00    +0.001 A 
ATOM     12  C   UNL     1       0.353   2.178  23.603  0.00  0.00    +0.000 A 
ATOM     13  C   UNL     1       0.942   1.814  24.052  0.00  0.00    +0.002 A 
ATOM     14  C   UNL     1       0.947   1.898  24.872  0.00  0.00    +0.019 A 
ENDBRANCH   5   6
ENDBRANCH   4   5
ENDBRANCH  15   4
ENDBRANCH  18  16
BRANCH  23  24
ATOM     24  S   UNL     1      -4.665   2.568  24.444  0.00  0.00    +0.064 S 
ATOM     25  O   UNL     1      -5.082   3.275  24.356  0.00  0.00    -0.153 OA
ATOM     26  O   UNL     1      -4.088   2.842  23.923  0.00  0.00    -0.153 OA
BRANCH  24  27
ATOM     27  C   UNL     1      -5.243   2.294  24.966  0.00  0.00    +0.122 A 
ATOM     28  C   UNL     1      -5.206   2.493  25.765  0.00  0.00    +0.020 A 
ATOM     29  C   UNL     1      -5.783   2.218  26.286  0.00  0.00    +0.001 A 
ATOM     30  C   UNL     1      -6.398   1.744  26.008  0.00  0.00    +0.000 A 
ATOM     31  C   UNL     1      -6.435   1.544  25.208  0.00  0.00    +0.001 A 
ATOM     32  C   UNL     1      -5.858   1.819  24.687  0.00  0.00    +0.020 A 
ENDBRANCH  24  27
ENDBRANCH  23  24
TORSDOF 8
ENDMDL
MODEL 6
REMARK VINA RESULT:     -11.4      2.203      5.222
REMARK  Name = 
REMARK  8 active torsions:
REMARK  status: ('A' for Active; 'I' for Inactive)
REMARK    1  A    between atoms: C_2  and  C_4
REMARK    2  A    between atoms: C_4  and  C_5
REMARK    3  A    between atoms: C_4  and  N_15
REMARK    4  A    between atoms: C_5  and  C_6
REMARK    5  A    between atoms: C_16  and  C_18
REMARK    6  A    between atoms: N_23  and  S_24
REMARK    7  A    between atoms: S_24  and  C_27
REMARK    8  A    between atoms: C_33  and  C_35
REMARK                            x       y       z     vdW  Elec       q    Type
REMARK                         _______ _______ _______ _____ _____    ______ ____
ROOT
ATOM     18  C   UNL     1      -3.484   1.221  24.116  0.00  0.00    +0.177 C 
ATOM     19  C   UNL     1      -3.863   0.654  24.580  0.00  0.00    +0.121 C 
ATOM     20  N   UNL     1      -3.617  -0.134  24.552  0.00  0.00    -0.273 N 
ATOM     21  C   UNL     1      -2.993  -0.354  24.060  0.00  0.00    +0.113 C 
ATOM     22  C   UNL     1      -2.614   0.214  23.596  0.00  0.00    +0.118 C 
ATOM     23  N   UNL     1      -2.859   1.000  23.624  0.00  0.00    -0.145 NA
ATOM     33  C   UNL     1      -3.996  -0.700  25.017  0.00  0.00    +0.249 C 
ATOM     34  O   UNL     1      -4.621  -0.480  25.509  0.00  0.00    -0.270 OA
ENDROOT
BRANCH  33  35
ATOM     35  C   UNL     1      -3.750  -1.488  24.989  0.00  0.00    +0.056 A 
ATOM     36  C   UNL     1      -3.208  -1.770  25.544  0.00  0.00    +0.005 A 
ATOM     37  C   UNL     1      -2.962  -2.557  25.516  0.00  0.00    +0.002 A 
ATOM     38  C   UNL     1      -3.259  -3.062  24.934  0.00  0.00    +0.030 A 
ATOM     39  C   UNL     1      -3.801  -2.779  24.380  0.00  0.00    +0.140 A 
ATOM     40  F   UNL     1      -4.097  -3.284  23.798  0.00  0.00    -0.204 F 
ATOM     41  C   UNL     1      -4.046  -1.992  24.408  0.00  0.00    +0.034 A 
ENDBRANCH  33  35
BRANCH  18  16
ATOM     15  N   UNL     1      -3.753   2.408  24.864  0.00  0.00    -0.196 NA
ATOM     16  C   UNL     1      -3.730   2.008  24.143  0.00  0.00    +0.260 C 
ATOM     17  O   UNL     1      -3.952   2.395  23.450  0.00  0.00    -0.272 OA
BRANCH  15   4
ATOM      4  C   UNL     1      -3.998   3.195  24.892  0.00  0.00    +0.179 C 
BRANCH   4   2
ATOM      1  N   UNL     1      -5.097   2.998  25.785  0.00  0.00    -0.086 NA
ATOM      2  C   UNL     1      -4.766   3.379  25.133  0.00  0.00    +0.281 C 
ATOM      3  O   UNL     1      -5.203   3.945  24.720  0.00  0.00    -0.270 OA
ENDBRANCH   4   2
BRANCH   4   5
ATOM      5  C   UNL     1      -3.477   3.798  24.679  0.00  0.00    +0.059 C 
BRANCH   5   6
ATOM      6  C   UNL     1      -2.920   4.073  25.220  0.00  0.00    +0.001 A 
ATOM      7  C   UNL     1      -2.928   3.939  26.035  0.00  0.00    +0.095 A 
ATOM      8  N   UNL     1      -2.269   4.313  26.361  0.00  0.00    -0.244 NA
ATOM      9  C   UNL     1      -1.854   4.677  25.749  0.00  0.00    +0.081 A 
ATOM     10  C   UNL     1      -2.256   4.529  25.044  0.00  0.00    +0.015 A 
ATOM     11  C   UNL     1      -1.965   4.829  24.333  0.00  0.00    +0.001 A 
ATOM     12  C   UNL     1      -1.273   5.276  24.326  0.00  0.00    +0.000 A 
ATOM     13  C   UNL     1      -0.871   5.425  25.031  0.00  0.00    +0.002 A 
ATOM     14  C   UNL     1      -1.161   5.126  25.743  0.00  0.00    +0.019 A 
ENDBRANCH   5   6
ENDBRANCH   4   5
ENDBRANCH  15   4
ENDBRANCH  18  16
BRANCH  23  24
ATOM     24  S   UNL     1      -2.481   1.568  23.159  0.00  0.00    +0.064 S 
ATOM     25  O   UNL     1      -2.102   2.134  22.695  0.00  0.00    -0.153 OA
ATOM     26  O   UNL     1      -3.214   1.850  22.907  0.00  0.00    -0.153 OA
BRANCH  24  27
ATOM     27  C   UNL     1      -1.749   1.284  23.412  0.00  0.00    +0.122 A 
ATOM     28  C   UNL     1      -1.428   1.547  24.125  0.00  0.00    +0.020 A 
ATOM     29  C   UNL     1      -0.695   1.263  24.378  0.00  0.00    +0.001 A 
ATOM     30  C   UNL     1      -0.284   0.718  23.917  0.00  0.00    +0.000 A 
ATOM     31  C   UNL     1      -0.604   0.455  23.204  0.00  0.00    +0.001 A 
ATOM     32  C   UNL     1      -1.336   0.738  22.951  0.00  0.00    +0.020 A 
ENDBRANCH  24  27
ENDBRANCH  23  24
TORSDOF 8
ENDMDL
MODEL 7
REMARK VINA RESULT:     -11.1      1.958      4.788
REMARK  Name = 
REMARK  8 active torsions:
REMARK  status: ('A' for Active; 'I' for Inactive)
REMARK    1  A    between atoms: C_2  and  C_4
REMARK    2  A    between atoms: C_4  and  C_5
REMARK    3  A    between atoms: C_4  and  N_15
REMARK    4  A    between atoms: C_5  and  C_6
REMARK    5  A    between atoms: C_16  and  C_18
REMARK    6  A    between atoms: N_23  and  S_24
REMARK    7  A    between atoms: S_24  and  C_27
REMARK    8  A    between atoms: C_33  and  C_35
REMARK                            x       y       z     vdW  Elec       q    Type
REMARK                         _______ _______ _______ _____ _____    ______ ____
ROOT
ATOM     18  C   UNL     1      -1.184   0.823  24.742  0.00  0.00    +0.177 C 
ATOM     19  C   UNL     1      -1.587   0.279  25.214  0.00  0.00    +0.121 C 
ATOM     20  N   UNL     1      -2.064  -0.297  24.864  0.00  0.00    -0.273 N 
ATOM     21  C   UNL     1      -2.138  -0.329  24.043  0.00  0.00    +0.113 C 
ATOM     22  C   UNL     1      -1.734   0.215  23.571  0.00  0.00    +0.118 C 
ATOM     23  N   UNL     1      -1.258   0.791  23.921  0.00  0.00    -0.145 NA
ATOM     33  C   UNL     1      -2.467  -0.841  25.336  0.00  0.00    +0.249 C 
ATOM     34  O   UNL     1      -2.394  -0.809  26.157  0.00  0.00    -0.270 OA
ENDROOT
BRANCH  33  35
ATOM     35  C   UNL     1      -2.944  -1.416  24.986  0.00  0.00    +0.056 A 
ATOM     36  C   UNL     1      -2.672  -2.192  24.921  0.00  0.00    +0.005 A 
ATOM     37  C   UNL     1      -3.149  -2.768  24.571  0.00  0.00    +0.002 A 
ATOM     38  C   UNL     1      -3.897  -2.568  24.287  0.00  0.00    +0.030 A 
ATOM     39  C   UNL     1      -4.168  -1.791  24.352  0.00  0.00    +0.140 A 
ATOM     40  F   UNL     1      -4.916  -1.591  24.068  0.00  0.00    -0.204 F 
ATOM     41  C   UNL     1      -3.692  -1.216  24.702  0.00  0.00    +0.034 A 
ENDBRANCH  33  35
BRANCH  18  16
ATOM     15  N   UNL     1      -1.021   1.902  25.665  0.00  0.00    -0.196 NA
ATOM     16  C   UNL     1      -0.708   1.398  25.091  0.00  0.00    +0.260 C 
ATOM     17  O   UNL     1       0.083   1.470  24.867  0.00  0.00    -0.272 OA
BRANCH  15   4
ATOM      4  C   UNL     1      -0.545   2.477  26.014  0.00  0.00    +0.179 C 
BRANCH   4   2
ATOM      1  N   UNL     1       0.719   2.517  26.680  0.00  0.00    -0.086 NA
ATOM      2  C   UNL     1      -0.071   2.282  26.661  0.00  0.00    +0.281 C 
ATOM      3  O   UNL     1      -0.389   1.851  27.289  0.00  0.00    -0.270 OA
ENDBRANCH   4   2
BRANCH   4   5
ATOM      5  C   UNL     1      -0.542   3.247  25.717  0.00  0.00    +0.059 C 
BRANCH   5   6
ATOM      6  C   UNL     1      -1.207   3.727  25.808  0.00  0.00    +0.001 A 
ATOM      7  C   UNL     1      -1.865   3.560  26.277  0.00  0.00    +0.095 A 
ATOM      8  N   UNL     1      -2.395   4.188  26.205  0.00  0.00    -0.244 NA
ATOM      9  C   UNL     1      -2.065   4.742  25.692  0.00  0.00    +0.081 A 
ATOM     10  C   UNL     1      -1.330   4.458  25.447  0.00  0.00    +0.015 A 
ATOM     11  C   UNL     1      -0.869   4.902  24.926  0.00  0.00    +0.001 A 
ATOM     12  C   UNL     1      -1.142   5.629  24.651  0.00  0.00    +0.000 A 
ATOM     13  C   UNL     1      -1.876   5.914  24.896  0.00  0.00    +0.002 A 
ATOM     14  C   UNL     1      -2.338   5.471  25.416  0.00  0.00    +0.019 A 
ENDBRANCH   5   6
ENDBRANCH   4   5
ENDBRANCH  15   4
ENDBRANCH  18  16
BRANCH  23  24
ATOM     24  S   UNL     1      -0.855   1.335  23.449  0.00  0.00    +0.064 S 
ATOM     25  O   UNL     1      -0.452   1.879  22.978  0.00  0.00    -0.153 OA
ATOM     26  O   UNL     1      -0.153   1.158  23.846  0.00  0.00    -0.153 OA
BRANCH  24  27
ATOM     27  C   UNL     1      -1.557   1.511  23.054  0.00  0.00    +0.122 A 
ATOM     28  C   UNL     1      -2.079   2.067  23.367  0.00  0.00    +0.020 A 
ATOM     29  C   UNL     1      -2.781   2.242  22.971  0.00  0.00    +0.001 A 
ATOM     30  C   UNL     1      -2.960   1.863  22.261  0.00  0.00    +0.000 A 
ATOM     31  C   UNL     1      -2.438   1.307  21.947  0.00  0.00    +0.001 A 
ATOM     32  C   UNL     1      -1.736   1.131  22.343  0.00  0.00    +0.020 A 
ENDBRANCH  24  27
ENDBRANCH  23  24
TORSDOF 8
ENDMDL
MODEL 8
REMARK VINA RESULT:     -10.8      1.681      3.648
REMARK  Name = 
REMARK  8 active torsions:
REMARK  status: ('A' for Active; 'I' for Inactive)
REMARK    1  A    between atoms: C_2  and  C_4
REMARK    2  A    between atoms: C_4  and  C_5
REMARK    3  A    between atoms: C_4  and  N_15
REMARK    4  A    between atoms: C_5  and  C_6
REMARK    5  A    between atoms: C_16  and  C_18
REMARK    6  A    between atoms: N_23  and  S_24
REMARK    7  A    between atoms: S_24  and  C_27
REMARK    8  A    between atoms: C_33  and  C_35
REMARK                            x       y       z     vdW  Elec       q    Type
REMARK                         _______ _______ _______ _____ _____    ______ ____
ROOT
ATOM     18  C   UNL     1      -3.172   1.338  24.726  0.00  0.00    +0.177 C 
ATOM     19  C   UNL     1      -2.481   1.716  24.972  0.00  0.00    +0.121 C 
ATOM     20  N   UNL     1      -2.456   2.539  25.024  0.00  0.00    -0.273 N 
ATOM     21  C   UNL     1      -3.123   2.985  24.831  0.00  0.00    +0.113 C 
ATOM     22  C   UNL     1      -3.814   2.607  24.585  0.00  0.00    +0.118 C 
ATOM     23  N   UNL     1      -3.839   1.785  24.532  0.00  0.00    -0.145 NA
ATOM     33  C   UNL     1      -1.765   2.916  25.270  0.00  0.00    +0.249 C 
ATOM     34  O   UNL     1      -1.098   2.471  25.464  0.00  0.00    -0.270 OA
ENDROOT
BRANCH  33  35
ATOM     35  C   UNL     1      -1.741   3.740  25.322  0.00  0.00    +0.056 A 
ATOM     36  C   UNL     1      -2.244   4.134  25.843  0.00  0.00    +0.005 A 
ATOM     37  C   UNL     1      -2.220   4.958  25.895  0.00  0.00    +0.002 A 
ATOM     38  C   UNL     1      -1.692   5.385  25.427  0.00  0.00    +0.030 A 
ATOM     39  C   UNL     1      -1.188   4.990  24.907  0.00  0.00    +0.140 A 
ATOM     40  F   UNL     1      -0.660   5.418  24.439  0.00  0.00    -0.204 F 
ATOM     41  C   UNL     1      -1.212   4.167  24.855  0.00  0.00    +0.034 A 
ENDBRANCH  33  35
BRANCH  18  16
ATOM     15  N   UNL     1      -2.754   0.055  25.196  0.00  0.00    -0.196 NA
ATOM     16  C   UNL     1      -3.197   0.516  24.674  0.00  0.00    +0.260 C 
ATOM     17  O   UNL     1      -3.664   0.153  24.099  0.00  0.00    -0.272 OA
BRANCH  15   4
ATOM      4  C   UNL     1      -2.779  -0.767  25.143  0.00  0.00    +0.179 C 
BRANCH   4   2
ATOM      1  N   UNL     1      -3.764  -1.794  25.274  0.00  0.00    -0.086 NA
ATOM      2  C   UNL     1      -3.310  -1.194  25.609  0.00  0.00    +0.281 C 
ATOM      3  O   UNL     1      -3.386  -1.018  26.412  0.00  0.00    -0.270 OA
ENDBRANCH   4   2
BRANCH   4   5
ATOM      5  C   UNL     1      -2.273  -1.164  24.626  0.00  0.00    +0.059 C 
BRANCH   5   6
ATOM      6  C   UNL     1      -1.478  -1.260  24.819  0.00  0.00    +0.001 A 
ATOM      7  C   UNL     1      -1.184  -1.566  25.527  0.00  0.00    +0.095 A 
ATOM      8  N   UNL     1      -0.361  -1.563  25.484  0.00  0.00    -0.244 NA
ATOM      9  C   UNL     1      -0.145  -1.256  24.750  0.00  0.00    +0.081 A 
ATOM     10  C   UNL     1      -0.835  -1.069  24.339  0.00  0.00    +0.015 A 
ATOM     11  C   UNL     1      -0.789  -0.748  23.580  0.00  0.00    +0.001 A 
ATOM     12  C   UNL     1      -0.053  -0.614  23.233  0.00  0.00    +0.000 A 
ATOM     13  C   UNL     1       0.637  -0.802  23.644  0.00  0.00    +0.002 A 
ATOM     14  C   UNL     1       0.592  -1.122  24.402  0.00  0.00    +0.019 A 
ENDBRANCH   5   6
ENDBRANCH   4   5
ENDBRANCH  15   4
ENDBRANCH  18  16
BRANCH  23  24
ATOM     24  S   UNL     1      -4.530   1.407  24.287  0.00  0.00    +0.064 S 
ATOM     25  O   UNL     1      -5.222   1.030  24.041  0.00  0.00    -0.153 OA
ATOM     26  O   UNL     1      -4.097   0.974  23.734  0.00  0.00    -0.153 OA
BRANCH  24  27
ATOM     27  C   UNL     1      -4.963   1.841  24.839  0.00  0.00    +0.122 A 
ATOM     28  C   UNL     1      -5.151   1.507  25.570  0.00  0.00    +0.020 A 
ATOM     29  C   UNL     1      -5.584   1.942  26.122  0.00  0.00    +0.001 A 
ATOM     30  C   UNL     1      -5.828   2.709  25.944  0.00  0.00    +0.000 A 
ATOM     31  C   UNL     1      -5.639   3.043  25.213  0.00  0.00    +0.001 A 
ATOM     32  C   UNL     1      -5.206   2.609  24.661  0.00  0.00    +0.020 A 
ENDBRANCH  24  27
ENDBRANCH  23  24
TORSDOF 8
ENDMDL
MODEL 9
REMARK VINA RESULT:     -10.6      2.183      5.219
REMARK  Name = 
REMARK  8 active torsions:
REMARK  status: ('A' for Active; 'I' for Inactive)
REMARK    1  A    between atoms: C_2  and  C_4
REMARK    2  A    between atoms: C_4  and  C_5
REMARK    3  A    between atoms: C_4  and  N_15
REMARK    4  A    between atoms: C_5  and  C_6
REMARK    5  A    between atoms: C_16  and  C_18
REMARK    6  A    between atoms: N_23  and  S_24
REMARK    7  A    between atoms: S_24  and  C_27
REMARK    8  A    between atoms: C_33  and  C_35
REMARK                            x       y       z     vdW  Elec       q    Type
REMARK                         _______ _______ _______ _____ _____    ______ ____
ROOT
ATOM     18  C   UNL     1      -0.746   0.916  24.922  0.00  0.00    +0.177 C 
ATOM     19  C   UNL     1      -0.240   1.198  24.335  0.00  0.00    +0.121 C 
ATOM     20  N   UNL     1       0.238   0.674  23.914  0.00  0.00    -0.273 N 
ATOM     21  C   UNL     1       0.211  -0.134  24.080  0.00  0.00    +0.113 C 
ATOM     22  C   UNL     1      -0.295  -0.417  24.668  0.00  0.00    +0.118 C 
ATOM     23  N   UNL     1      -0.773   0.107  25.088  0.00  0.00    -0.145 NA
ATOM     33  C   UNL     1       0.744   0.957  23.327  0.00  0.00    +0.249 C 
ATOM     34  O   UNL     1       0.771   1.764  23.160  0.00  0.00    -0.270 OA
ENDROOT
BRANCH  33  35
ATOM     35  C   UNL     1       1.222   0.432  22.906  0.00  0.00    +0.056 A 
ATOM     36  C   UNL     1       0.897  -0.028  22.303  0.00  0.00    +0.005 A 
ATOM     37  C   UNL     1       1.375  -0.553  21.882  0.00  0.00    +0.002 A 
ATOM     38  C   UNL     1       2.178  -0.617  22.064  0.00  0.00    +0.030 A 
ATOM     39  C   UNL     1       2.501  -0.156  22.667  0.00  0.00    +0.140 A 
ATOM     40  F   UNL     1       3.304  -0.220  22.849  0.00  0.00    -0.204 F 
ATOM     41  C   UNL     1       2.024   0.368  23.088  0.00  0.00    +0.034 A 
ENDBRANCH  33  35
BRANCH  18  16
ATOM     15  N   UNL     1      -1.650   2.022  24.943  0.00  0.00    -0.196 NA
ATOM     16  C   UNL     1      -1.223   1.440  25.343  0.00  0.00    +0.260 C 
ATOM     17  O   UNL     1      -1.275   1.382  26.164  0.00  0.00    -0.272 OA
BRANCH  15   4
ATOM      4  C   UNL     1      -2.128   2.546  25.363  0.00  0.00    +0.179 C 
BRANCH   4   2
ATOM      1  N   UNL     1      -1.396   3.742  25.090  0.00  0.00    -0.086 NA
ATOM      2  C   UNL     1      -1.823   3.271  25.614  0.00  0.00    +0.281 C 
ATOM      3  O   UNL     1      -1.946   3.523  26.390  0.00  0.00    -0.270 OA
ENDBRANCH   4   2
BRANCH   4   5
ATOM      5  C   UNL     1      -2.910   2.346  25.534  0.00  0.00    +0.059 C 
BRANCH   5   6
ATOM      6  C   UNL     1      -3.503   2.487  24.979  0.00  0.00    +0.001 A 
ATOM      7  C   UNL     1      -3.411   2.885  24.261  0.00  0.00    +0.095 A 
ATOM      8  N   UNL     1      -4.143   2.899  23.882  0.00  0.00    -0.244 NA
ATOM      9  C   UNL     1      -4.687   2.510  24.364  0.00  0.00    +0.081 A 
ATOM     10  C   UNL     1      -4.291   2.255  25.042  0.00  0.00    +0.015 A 
ATOM     11  C   UNL     1      -4.701   1.845  25.628  0.00  0.00    +0.001 A 
ATOM     12  C   UNL     1      -5.506   1.689  25.538  0.00  0.00    +0.000 A 
ATOM     13  C   UNL     1      -5.902   1.944  24.860  0.00  0.00    +0.002 A 
ATOM     14  C   UNL     1      -5.493   2.355  24.273  0.00  0.00    +0.019 A 
ENDBRANCH   5   6
ENDBRANCH   4   5
ENDBRANCH  15   4
ENDBRANCH  18  16
BRANCH  23  24
ATOM     24  S   UNL     1      -1.279  -0.175  25.676  0.00  0.00    +0.064 S 
ATOM     25  O   UNL     1      -1.785  -0.459  26.262  0.00  0.00    -0.153 OA
ATOM     26  O   UNL     1      -1.010   0.412  26.190  0.00  0.00    -0.153 OA
BRANCH  24  27
ATOM     27  C   UNL     1      -1.547  -0.762  25.161  0.00  0.00    +0.122 A 
ATOM     28  C   UNL     1      -2.213  -0.627  24.693  0.00  0.00    +0.020 A 
ATOM     29  C   UNL     1      -2.480  -1.215  24.179  0.00  0.00    +0.001 A 
ATOM     30  C   UNL     1      -2.083  -1.935  24.132  0.00  0.00    +0.000 A 
ATOM     31  C   UNL     1      -1.417  -2.070  24.601  0.00  0.00    +0.001 A 
ATOM     32  C   UNL     1      -1.148  -1.483  25.115  0.00  0.00    +0.020 A 
ENDBRANCH  24  27
ENDBRANCH  23  24
TORSDOF 8
ENDMDL
