MODEL 1
REMARK VINA RESULT:     -11.6      0.000      0.000
REMARK  Name = 
REMARK  8 active torsions:
REMARK  status: ('A' for Active; 'I' for Inactive)
REMARK    1  A    between atoms: C_2  and  C_4
REMARK    2  A    between atoms: C_6  and  C_7
REMARK    3  A    between atoms: C_7  and  C_8
REMARK    4  A    between atoms: C_11  and  C_12
REMARK    5  A    between atoms: C_12  and  O_13
REMARK    6  A    between atoms: O_13  and  C_14
REMARK    7  A    between atoms: C_25  and  C_26
REMARK    8  A    between atoms: C_26  and  N_27
REMARK                            x       y       z     vdW  Elec       q    Type
REMARK                         _______ _______ _______ _____ _____    ______ ____
ROOT
ATOM      4  C   UNL     1      -3.291  -0.493  25.132  0.00  0.00    +0.006 C 
ATOM      5  C   UNL     1      -3.947   0.001  25.067  0.00  0.00    +0.005 C 
ATOM      6  C   UNL     1      -3.993   0.549  24.451  0.00  0.00    +0.027 C 
ATOM     22  C   UNL     1      -3.380   0.601  23.900  0.00  0.00    -0.048 C 
ATOM     23  C   UNL     1      -3.424   1.148  23.284  0.00  0.00    +0.026 C 
ATOM     24  C   UNL     1      -2.723   0.106  23.966  0.00  0.00    -0.034 C 
ATOM     25  C   UNL     1      -2.679  -0.441  24.582  0.00  0.00    +0.037 C 
ENDROOT
BRANCH   4   2
ATOM      1  C   UNL     1      -2.925  -0.818  26.475  0.00  0.00    +0.000 C 
ATOM      2  C   UNL     1      -3.246  -1.040  25.748  0.00  0.00    +0.000 C 
ATOM      3  C   UNL     1      -3.522  -1.810  25.637  0.00  0.00    +0.000 C 
ENDBRANCH   4   2
BRANCH   6   7
ATOM      7  C   UNL     1      -4.649   1.043  24.385  0.00  0.00    +0.091 C 
BRANCH   7   8
ATOM      8  C   UNL     1      -4.699   1.727  24.846  0.00  0.00    +0.227 A 
ATOM      9  N   UNL     1      -5.319   1.924  25.353  0.00  0.00    -0.112 NA
ATOM     10  N   UNL     1      -5.141   2.651  25.701  0.00  0.00    -0.108 NA
ATOM     11  C   UNL     1      -4.411   2.902  25.409  0.00  0.00    +0.270 A 
ATOM     21  O   UNL     1      -4.138   2.329  24.880  0.00  0.00    -0.420 OA
BRANCH  11  12
ATOM     12  C   UNL     1      -4.022   3.601  25.609  0.00  0.00    +0.291 C 
BRANCH  12  13
ATOM     13  O   UNL     1      -3.307   3.572  26.021  0.00  0.00    -0.465 OA
BRANCH  13  14
ATOM     14  C   UNL     1      -2.661   4.012  25.758  0.00  0.00    +0.139 A 
ATOM     15  C   UNL     1      -2.740   4.821  25.621  0.00  0.00    +0.039 A 
ATOM     16  C   UNL     1      -2.092   5.260  25.358  0.00  0.00    +0.033 A 
ATOM     17  C   UNL     1      -1.366   4.889  25.233  0.00  0.00    +0.140 A 
ATOM     18  F   UNL     1      -0.719   5.328  24.971  0.00  0.00    -0.204 F 
ATOM     19  C   UNL     1      -1.287   4.080  25.371  0.00  0.00    +0.033 A 
ATOM     20  C   UNL     1      -1.934   3.640  25.633  0.00  0.00    +0.039 A 
ENDBRANCH  13  14
ENDBRANCH  12  13
ENDBRANCH  11  12
ENDBRANCH   7   8
ENDBRANCH   6   7
BRANCH  25  26
ATOM     26  C   UNL     1      -2.021  -0.935  24.647  0.00  0.00    +0.076 C 
BRANCH  26  27
ATOM     27  N   UNL     1      -1.300  -0.708  24.319  0.00  0.00    -0.269 NA
ATOM     28  C   UNL     1      -0.993  -1.119  23.673  0.00  0.00    +0.094 C 
ATOM     29  C   UNL     1      -0.271  -0.892  23.344  0.00  0.00    +0.111 C 
ATOM     30  N   UNL     1       0.143  -0.253  23.662  0.00  0.00    -0.275 N 
ATOM     31  C   UNL     1      -0.163   0.158  24.308  0.00  0.00    +0.111 C 
ATOM     32  C   UNL     1      -0.885  -0.069  24.636  0.00  0.00    +0.094 C 
ATOM     33  C   UNL     1       0.866  -0.026  23.334  0.00  0.00    +0.220 A 
ATOM     34  N   UNL     1       1.173  -0.438  22.688  0.00  0.00    -0.212 NA
ATOM     35  C   UNL     1       1.895  -0.210  22.360  0.00  0.00    +0.103 A 
ATOM     36  C   UNL     1       2.310   0.429  22.677  0.00  0.00    +0.041 A 
ATOM     37  C   UNL     1       2.002   0.840  23.323  0.00  0.00    +0.103 A 
ATOM     38  N   UNL     1       1.280   0.613  23.651  0.00  0.00    -0.212 NA
ENDBRANCH  26  27
ENDBRANCH  25  26
TORSDOF 8
ENDMDL
MODEL 2
REMARK VINA RESULT:     -10.4      2.722      6.441
REMARK  Name = 
REMARK  8 active torsions:
REMARK  status: ('A' for Active; 'I' for Inactive)
REMARK    1  A    between atoms: C_2  and  C_4
REMARK    2  A    between atoms: C_6  and  C_7
REMARK    3  A    between atoms: C_7  and  C_8
REMARK    4  A    between atoms: C_11  and  C_12
REMARK    5  A    between atoms: C_12  and  O_13
REMARK    6  A    between atoms: O_13  and  C_14
REMARK    7  A    between atoms: C_25  and  C_26
REMARK    8  A    between atoms: C_26  and  N_27
REMARK                            x       y       z     vdW  Elec       q    Type
REMARK                         _______ _______ _______ _____ _____    ______ ____
ROOT
ATOM      4  C   UNL     1      -0.578   2.067  24.343  0.00  0.00    +0.006 C 
ATOM      5  C   UNL     1      -0.094   1.406  24.248  0.00  0.00    +0.005 C 
ATOM      6  C   UNL     1      -0.428   0.665  24.106  0.00  0.00    +0.027 C 
ATOM     22  C   UNL     1      -1.248   0.586  24.059  0.00  0.00    -0.048 C 
ATOM     23  C   UNL     1      -1.583  -0.154  23.917  0.00  0.00    +0.026 C 
ATOM     24  C   UNL     1      -1.733   1.247  24.154  0.00  0.00    -0.034 C 
ATOM     25  C   UNL     1      -1.398   1.987  24.296  0.00  0.00    +0.037 C 
ENDROOT
BRANCH   4   2
ATOM      1  C   UNL     1      -0.143   3.341  23.864  0.00  0.00    +0.000 C 
ATOM      2  C   UNL     1      -0.243   2.807  24.485  0.00  0.00    +0.000 C 
ATOM      3  C   UNL     1      -0.008   3.013  25.249  0.00  0.00    +0.000 C 
ENDBRANCH   4   2
BRANCH   6   7
ATOM      7  C   UNL     1       0.056   0.005  24.011  0.00  0.00    +0.091 C 
BRANCH   7   8
ATOM      8  C   UNL     1       0.677   0.023  23.467  0.00  0.00    +0.227 A 
ATOM      9  N   UNL     1       0.621  -0.155  22.663  0.00  0.00    -0.112 NA
ATOM     10  N   UNL     1       1.371  -0.066  22.330  0.00  0.00    -0.108 NA
ATOM     11  C   UNL     1       1.889   0.167  22.928  0.00  0.00    +0.270 A 
ATOM     21  O   UNL     1       1.460   0.222  23.631  0.00  0.00    -0.420 OA
BRANCH  11  12
ATOM     12  C   UNL     1       2.695   0.319  22.840  0.00  0.00    +0.291 C 
BRANCH  12  13
ATOM     13  O   UNL     1       3.234  -0.306  22.835  0.00  0.00    -0.465 OA
BRANCH  13  14
ATOM     14  C   UNL     1       4.003  -0.192  23.113  0.00  0.00    +0.139 A 
ATOM     15  C   UNL     1       4.400   0.512  22.952  0.00  0.00    +0.039 A 
ATOM     16  C   UNL     1       5.169   0.625  23.231  0.00  0.00    +0.033 A 
ATOM     17  C   UNL     1       5.538   0.034  23.671  0.00  0.00    +0.140 A 
ATOM     18  F   UNL     1       6.307   0.147  23.949  0.00  0.00    -0.204 F 
ATOM     19  C   UNL     1       5.141  -0.671  23.832  0.00  0.00    +0.033 A 
ATOM     20  C   UNL     1       4.372  -0.784  23.553  0.00  0.00    +0.039 A 
ENDBRANCH  13  14
ENDBRANCH  12  13
ENDBRANCH  11  12
ENDBRANCH   7   8
ENDBRANCH   6   7
BRANCH  25  26
ATOM     26  C   UNL     1      -1.883   2.647  24.391  0.00  0.00    +0.076 C 
BRANCH  26  27
ATOM     27  N   UNL     1      -2.677   2.551  24.588  0.00  0.00    -0.269 NA
ATOM     28  C   UNL     1      -3.233   2.392  23.998  0.00  0.00    +0.094 C 
ATOM     29  C   UNL     1      -4.028   2.295  24.195  0.00  0.00    +0.111 C 
ATOM     30  N   UNL     1      -4.268   2.357  24.983  0.00  0.00    -0.275 N 
ATOM     31  C   UNL     1      -3.713   2.516  25.572  0.00  0.00    +0.111 C 
ATOM     32  C   UNL     1      -2.918   2.612  25.374  0.00  0.00    +0.094 C 
ATOM     33  C   UNL     1      -5.064   2.260  25.180  0.00  0.00    +0.220 A 
ATOM     34  N   UNL     1      -5.618   2.101  24.590  0.00  0.00    -0.212 NA
ATOM     35  C   UNL     1      -6.413   2.005  24.787  0.00  0.00    +0.103 A 
ATOM     36  C   UNL     1      -6.654   2.067  25.575  0.00  0.00    +0.041 A 
ATOM     37  C   UNL     1      -6.099   2.225  26.164  0.00  0.00    +0.103 A 
ATOM     38  N   UNL     1      -5.304   2.322  25.966  0.00  0.00    -0.212 NA
ENDBRANCH  26  27
ENDBRANCH  25  26
TORSDOF 8
ENDMDL
MODEL 3
REMARK VINA RESULT:     -10.1      2.350      6.018
REMARK  Name = 
REMARK  8 active torsions:
REMARK  status: ('A' for Active; 'I' for Inactive)
REMARK    1  A    between atoms: C_2  and  C_4
REMARK    2  A    between atoms: C_6  and  C_7
REMARK    3  A    between atoms: C_7  and  C_8
REMARK    4  A    between atoms: C_11  and  C_12
REMARK    5  A    between atoms: C_12  and  O_13
REMARK    6  A    between atoms: O_13  and  C_14
REMARK    7  A    between atoms: C_25  and  C_26
REMARK    8  A    between atoms: C_26  and  N_27
REMARK                            x       y       z     vdW  Elec       q    Type
REMARK                         _______ _______ _______ _____ _____    ______ ____
ROOT
ATOM      4  C   UNL     1      -0.358   2.244  25.316  0.00  0.00    +0.006 C 
ATOM      5  C   UNL     1      -0.023   1.632  24.877  0.00  0.00    +0.005 C 
ATOM      6  C   UNL     1      -0.332   1.435  24.138  0.00  0.00    +0.027 C 
ATOM     22  C   UNL     1      -0.978   1.851  23.838  0.00  0.00    -0.048 C 
ATOM     23  C   UNL     1      -1.288   1.655  23.099  0.00  0.00    +0.026 C 
ATOM     24  C   UNL     1      -1.314   2.465  24.276  0.00  0.00    -0.034 C 
ATOM     25  C   UNL     1      -1.004   2.661  25.015  0.00  0.00    +0.037 C 
ENDROOT
BRANCH   4   2
ATOM      1  C   UNL     1       0.445   3.097  26.134  0.00  0.00    +0.000 C 
ATOM      2  C   UNL     1      -0.049   2.440  26.054  0.00  0.00    +0.000 C 
ATOM      3  C   UNL     1      -0.232   1.980  26.714  0.00  0.00    +0.000 C 
ENDBRANCH   4   2
BRANCH   6   7
ATOM      7  C   UNL     1       0.003   0.822  23.700  0.00  0.00    +0.091 C 
BRANCH   7   8
ATOM      8  C   UNL     1      -0.122   0.037  23.925  0.00  0.00    +0.227 A 
ATOM      9  N   UNL     1       0.465  -0.517  24.094  0.00  0.00    -0.112 NA
ATOM     10  N   UNL     1       0.094  -1.227  24.293  0.00  0.00    -0.108 NA
ATOM     11  C   UNL     1      -0.721  -1.110  24.247  0.00  0.00    +0.270 A 
ATOM     21  O   UNL     1      -0.854  -0.328  24.019  0.00  0.00    -0.420 OA
BRANCH  11  12
ATOM     12  C   UNL     1      -1.302  -1.676  24.401  0.00  0.00    +0.291 C 
BRANCH  12  13
ATOM     13  O   UNL     1      -2.007  -1.454  24.766  0.00  0.00    -0.465 OA
BRANCH  13  14
ATOM     14  C   UNL     1      -2.718  -1.808  24.543  0.00  0.00    +0.139 A 
ATOM     15  C   UNL     1      -3.349  -1.344  24.287  0.00  0.00    +0.039 A 
ATOM     16  C   UNL     1      -4.060  -1.700  24.064  0.00  0.00    +0.033 A 
ATOM     17  C   UNL     1      -4.138  -2.520  24.099  0.00  0.00    +0.140 A 
ATOM     18  F   UNL     1      -4.849  -2.876  23.876  0.00  0.00    -0.204 F 
ATOM     19  C   UNL     1      -3.507  -2.985  24.355  0.00  0.00    +0.033 A 
ATOM     20  C   UNL     1      -2.796  -2.629  24.578  0.00  0.00    +0.039 A 
ENDBRANCH  13  14
ENDBRANCH  12  13
ENDBRANCH  11  12
ENDBRANCH   7   8
ENDBRANCH   6   7
BRANCH  25  26
ATOM     26  C   UNL     1      -1.340   3.273  25.453  0.00  0.00    +0.076 C 
BRANCH  26  27
ATOM     27  N   UNL     1      -2.159   3.361  25.478  0.00  0.00    -0.269 NA
ATOM     28  C   UNL     1      -2.506   4.069  25.233  0.00  0.00    +0.094 C 
ATOM     29  C   UNL     1      -3.326   4.157  25.258  0.00  0.00    +0.111 C 
ATOM     30  N   UNL     1      -3.799   3.538  25.529  0.00  0.00    -0.275 N 
ATOM     31  C   UNL     1      -3.452   2.831  25.775  0.00  0.00    +0.111 C 
ATOM     32  C   UNL     1      -2.632   2.743  25.750  0.00  0.00    +0.094 C 
ATOM     33  C   UNL     1      -4.619   3.626  25.555  0.00  0.00    +0.220 A 
ATOM     34  N   UNL     1      -4.966   4.333  25.309  0.00  0.00    -0.212 NA
ATOM     35  C   UNL     1      -5.786   4.421  25.334  0.00  0.00    +0.103 A 
ATOM     36  C   UNL     1      -6.259   3.802  25.606  0.00  0.00    +0.041 A 
ATOM     37  C   UNL     1      -5.912   3.095  25.851  0.00  0.00    +0.103 A 
ATOM     38  N   UNL     1      -5.092   3.007  25.826  0.00  0.00    -0.212 NA
ENDBRANCH  26  27
ENDBRANCH  25  26
TORSDOF 8
ENDMDL
MODEL 4
REMARK VINA RESULT:     -10.0      2.011      3.988
REMARK  Name = 
REMARK  8 active torsions:
REMARK  status: ('A' for Active; 'I' for Inactive)
REMARK    1  A    between atoms: C_2  and  C_4
REMARK    2  A    between atoms: C_6  and  C_7
REMARK    3  A    between atoms: C_7  and  C_8
REMARK    4  A    between atoms: C_11  and  C_12
REMARK    5  A    between atoms: C_12  and  O_13
REMARK    6  A    between atoms: O_13  and  C_14
REMARK    7  A    between atoms: C_25  and  C_26
REMARK    8  A    between atoms: C_26  and  N_27
REMARK                            x       y       z     vdW  Elec       q    Type
REMARK                         _______ _______ _______ _____ _____    ______ ____
ROOT
ATOM      4  C   UNL     1      -2.071   3.182  24.997  0.00  0.00    +0.006 C 
ATOM      5  C   UNL     1      -2.869   3.122  24.799  0.00  0.00    +0.005 C 
ATOM      6  C   UNL     1      -3.093   2.794  24.076  0.00  0.00    +0.027 C 
ATOM     22  C   UNL     1      -2.517   2.526  23.550  0.00  0.00    -0.048 C 
ATOM     23  C   UNL     1      -2.739   2.198  22.827  0.00  0.00    +0.026 C 
ATOM     24  C   UNL     1      -1.717   2.585  23.747  0.00  0.00    -0.034 C 
ATOM     25  C   UNL     1      -1.495   2.913  24.471  0.00  0.00    +0.037 C 
ENDROOT
BRANCH   4   2
ATOM      1  C   UNL     1      -1.771   3.028  26.386  0.00  0.00    +0.000 C 
ATOM      2  C   UNL     1      -1.848   3.510  25.720  0.00  0.00    +0.000 C 
ATOM      3  C   UNL     1      -1.702   4.320  25.778  0.00  0.00    +0.000 C 
ENDBRANCH   4   2
BRANCH   6   7
ATOM      7  C   UNL     1      -3.891   2.735  23.879  0.00  0.00    +0.091 C 
BRANCH   7   8
ATOM      8  C   UNL     1      -4.359   2.149  24.224  0.00  0.00    +0.227 A 
ATOM      9  N   UNL     1      -5.068   2.272  24.629  0.00  0.00    -0.112 NA
ATOM     10  N   UNL     1      -5.347   1.537  24.881  0.00  0.00    -0.108 NA
ATOM     11  C   UNL     1      -4.811   0.962  24.631  0.00  0.00    +0.270 A 
ATOM     21  O   UNL     1      -4.201   1.341  24.225  0.00  0.00    -0.420 OA
BRANCH  11  12
ATOM     12  C   UNL     1      -4.875   0.150  24.764  0.00  0.00    +0.291 C 
BRANCH  12  13
ATOM     13  O   UNL     1      -4.262  -0.256  25.139  0.00  0.00    -0.465 OA
BRANCH  13  14
ATOM     14  C   UNL     1      -4.075  -1.026  24.910  0.00  0.00    +0.139 A 
ATOM     15  C   UNL     1      -4.376  -1.333  24.207  0.00  0.00    +0.039 A 
ATOM     16  C   UNL     1      -4.187  -2.104  23.979  0.00  0.00    +0.033 A 
ATOM     17  C   UNL     1      -3.698  -2.566  24.455  0.00  0.00    +0.140 A 
ATOM     18  F   UNL     1      -3.509  -3.336  24.227  0.00  0.00    -0.204 F 
ATOM     19  C   UNL     1      -3.396  -2.259  25.159  0.00  0.00    +0.033 A 
ATOM     20  C   UNL     1      -3.584  -1.488  25.387  0.00  0.00    +0.039 A 
ENDBRANCH  13  14
ENDBRANCH  12  13
ENDBRANCH  11  12
ENDBRANCH   7   8
ENDBRANCH   6   7
BRANCH  25  26
ATOM     26  C   UNL     1      -0.696   2.972  24.668  0.00  0.00    +0.076 C 
BRANCH  26  27
ATOM     27  N   UNL     1      -0.151   2.447  24.342  0.00  0.00    -0.269 NA
ATOM     28  C   UNL     1       0.545   2.732  24.003  0.00  0.00    +0.094 C 
ATOM     29  C   UNL     1       1.091   2.206  23.677  0.00  0.00    +0.111 C 
ATOM     30  N   UNL     1       0.940   1.395  23.690  0.00  0.00    -0.275 N 
ATOM     31  C   UNL     1       0.245   1.110  24.029  0.00  0.00    +0.111 C 
ATOM     32  C   UNL     1      -0.301   1.636  24.355  0.00  0.00    +0.094 C 
ATOM     33  C   UNL     1       1.486   0.869  23.364  0.00  0.00    +0.220 A 
ATOM     34  N   UNL     1       2.182   1.155  23.025  0.00  0.00    -0.212 NA
ATOM     35  C   UNL     1       2.728   0.629  22.699  0.00  0.00    +0.103 A 
ATOM     36  C   UNL     1       2.578  -0.183  22.711  0.00  0.00    +0.041 A 
ATOM     37  C   UNL     1       1.882  -0.468  23.051  0.00  0.00    +0.103 A 
ATOM     38  N   UNL     1       1.336   0.058  23.377  0.00  0.00    -0.212 NA
ENDBRANCH  26  27
ENDBRANCH  25  26
TORSDOF 8
ENDMDL
MODEL 5
REMARK VINA RESULT:      -9.8      1.978      4.085
REMARK  Name = 
REMARK  8 active torsions:
REMARK  status: ('A' for Active; 'I' for Inactive)
REMARK    1  A    between atoms: C_2  and  C_4
REMARK    2  A    between atoms: C_6  and  C_7
REMARK    3  A    between atoms: C_7  and  C_8
REMARK    4  A    between atoms: C_11  and  C_12
REMARK    5  A    between atoms: C_12  and  O_13
REMARK    6  A    between atoms: O_13  and  C_14
REMARK    7  A    between atoms: C_25  and  C_26
REMARK    8  A    between atoms: C_26  and  N_27
REMARK                            x       y       z     vdW  Elec       q    Type
REMARK                         _______ _______ _______ _____ _____    ______ ____
ROOT
ATOM      4  C   UNL     1      -0.018   1.708  24.453  0.00  0.00    +0.006 C 
ATOM      5  C   UNL     1      -0.110   2.451  24.798  0.00  0.00    +0.005 C 
ATOM      6  C   UNL     1      -0.430   2.519  25.555  0.00  0.00    +0.027 C 
ATOM     22  C   UNL     1      -0.659   1.842  25.968  0.00  0.00    -0.048 C 
ATOM     23  C   UNL     1      -0.979   1.909  26.725  0.00  0.00    +0.026 C 
ATOM     24  C   UNL     1      -0.568   1.098  25.623  0.00  0.00    -0.034 C 
ATOM     25  C   UNL     1      -0.248   1.031  24.866  0.00  0.00    +0.037 C 
ENDROOT
BRANCH   4   2
ATOM      1  C   UNL     1      -0.166   1.796  23.034  0.00  0.00    +0.000 C 
ATOM      2  C   UNL     1       0.302   1.640  23.696  0.00  0.00    +0.000 C 
ATOM      3  C   UNL     1       1.091   1.417  23.600  0.00  0.00    +0.000 C 
ENDBRANCH   4   2
BRANCH   6   7
ATOM      7  C   UNL     1      -0.521   3.262  25.900  0.00  0.00    +0.091 C 
BRANCH   7   8
ATOM      8  C   UNL     1      -1.140   3.754  25.662  0.00  0.00    +0.227 A 
ATOM      9  N   UNL     1      -1.063   4.517  25.356  0.00  0.00    -0.112 NA
ATOM     10  N   UNL     1      -1.819   4.803  25.194  0.00  0.00    -0.108 NA
ATOM     11  C   UNL     1      -2.363   4.218  25.400  0.00  0.00    +0.270 A 
ATOM     21  O   UNL     1      -1.943   3.570  25.690  0.00  0.00    -0.420 OA
BRANCH  11  12
ATOM     12  C   UNL     1      -3.183   4.272  25.329  0.00  0.00    +0.291 C 
BRANCH  12  13
ATOM     13  O   UNL     1      -3.570   3.891  24.708  0.00  0.00    -0.465 OA
BRANCH  13  14
ATOM     14  C   UNL     1      -4.246   3.441  24.855  0.00  0.00    +0.139 A 
ATOM     15  C   UNL     1      -4.820   3.717  25.378  0.00  0.00    +0.039 A 
ATOM     16  C   UNL     1      -5.496   3.267  25.524  0.00  0.00    +0.033 A 
ATOM     17  C   UNL     1      -5.596   2.540  25.146  0.00  0.00    +0.140 A 
ATOM     18  F   UNL     1      -6.273   2.090  25.292  0.00  0.00    -0.204 F 
ATOM     19  C   UNL     1      -5.022   2.264  24.623  0.00  0.00    +0.033 A 
ATOM     20  C   UNL     1      -4.346   2.714  24.477  0.00  0.00    +0.039 A 
ENDBRANCH  13  14
ENDBRANCH  12  13
ENDBRANCH  11  12
ENDBRANCH   7   8
ENDBRANCH   6   7
BRANCH  25  26
ATOM     26  C   UNL     1      -0.157   0.287  24.521  0.00  0.00    +0.076 C 
BRANCH  26  27
ATOM     27  N   UNL     1      -0.783  -0.249  24.526  0.00  0.00    -0.269 NA
ATOM     28  C   UNL     1      -0.691  -0.988  24.882  0.00  0.00    +0.094 C 
ATOM     29  C   UNL     1      -1.318  -1.524  24.886  0.00  0.00    +0.111 C 
ATOM     30  N   UNL     1      -2.036  -1.322  24.534  0.00  0.00    -0.275 N 
ATOM     31  C   UNL     1      -2.128  -0.584  24.179  0.00  0.00    +0.111 C 
ATOM     32  C   UNL     1      -1.501  -0.047  24.174  0.00  0.00    +0.094 C 
ATOM     33  C   UNL     1      -2.664  -1.859  24.539  0.00  0.00    +0.220 A 
ATOM     34  N   UNL     1      -2.572  -2.597  24.895  0.00  0.00    -0.212 NA
ATOM     35  C   UNL     1      -3.198  -3.134  24.899  0.00  0.00    +0.103 A 
ATOM     36  C   UNL     1      -3.917  -2.931  24.547  0.00  0.00    +0.041 A 
ATOM     37  C   UNL     1      -4.008  -2.193  24.191  0.00  0.00    +0.103 A 
ATOM     38  N   UNL     1      -3.382  -1.656  24.187  0.00  0.00    -0.212 NA
ENDBRANCH  26  27
ENDBRANCH  25  26
TORSDOF 8
ENDMDL
MODEL 6
REMARK VINA RESULT:      -9.7      2.017      3.462
REMARK  Name = 
REMARK  8 active torsions:
REMARK  status: ('A' for Active; 'I' for Inactive)
REMARK    1  A    between atoms: C_2  and  C_4
REMARK    2  A    between atoms: C_6  and  C_7
REMARK    3  A    between atoms: C_7  and  C_8
REMARK    4  A    between atoms: C_11  and  C_12
REMARK    5  A    between atoms: C_12  and  O_13
REMARK    6  A    between atoms: O_13  and  C_14
REMARK    7  A    between atoms: C_25  and  C_26
REMARK    8  A    between atoms: C_26  and  N_27
REMARK                            x       y       z     vdW  Elec       q    Type
REMARK                         _______ _______ _______ _____ _____    ______ ____
ROOT
ATOM      4  C   UNL     1      -1.030   0.801  23.963  0.00  0.00    +0.006 C 
ATOM      5  C   UNL     1      -1.489   0.421  24.533  0.00  0.00    +0.005 C 
ATOM      6  C   UNL     1      -1.245  -0.304  24.844  0.00  0.00    +0.027 C 
ATOM     22  C   UNL     1      -0.542  -0.648  24.585  0.00  0.00    -0.048 C 
ATOM     23  C   UNL     1      -0.297  -1.372  24.896  0.00  0.00    +0.026 C 
ATOM     24  C   UNL     1      -0.081  -0.267  24.015  0.00  0.00    -0.034 C 
ATOM     25  C   UNL     1      -0.326   0.457  23.705  0.00  0.00    +0.037 C 
ENDROOT
BRANCH   4   2
ATOM      1  C   UNL     1      -1.119   2.223  24.062  0.00  0.00    +0.000 C 
ATOM      2  C   UNL     1      -1.273   1.524  23.652  0.00  0.00    +0.000 C 
ATOM      3  C   UNL     1      -1.672   1.550  22.930  0.00  0.00    +0.000 C 
ENDBRANCH   4   2
BRANCH   6   7
ATOM      7  C   UNL     1      -1.705  -0.684  25.413  0.00  0.00    +0.091 C 
BRANCH   7   8
ATOM      8  C   UNL     1      -2.528  -0.689  25.344  0.00  0.00    +0.227 A 
ATOM      9  N   UNL     1      -2.989  -1.325  25.093  0.00  0.00    -0.112 NA
ATOM     10  N   UNL     1      -3.779  -1.088  25.107  0.00  0.00    -0.108 NA
ATOM     11  C   UNL     1      -3.806  -0.305  25.366  0.00  0.00    +0.270 A 
ATOM     21  O   UNL     1      -3.032  -0.059  25.513  0.00  0.00    -0.420 OA
BRANCH  11  12
ATOM     12  C   UNL     1      -4.486   0.151  25.463  0.00  0.00    +0.291 C 
BRANCH  12  13
ATOM     13  O   UNL     1      -4.717   0.677  24.871  0.00  0.00    -0.465 OA
BRANCH  13  14
ATOM     14  C   UNL     1      -5.039   1.410  25.071  0.00  0.00    +0.139 A 
ATOM     15  C   UNL     1      -5.621   1.461  25.652  0.00  0.00    +0.039 A 
ATOM     16  C   UNL     1      -5.943   2.195  25.851  0.00  0.00    +0.033 A 
ATOM     17  C   UNL     1      -5.680   2.877  25.469  0.00  0.00    +0.140 A 
ATOM     18  F   UNL     1      -6.001   3.610  25.669  0.00  0.00    -0.204 F 
ATOM     19  C   UNL     1      -5.097   2.827  24.888  0.00  0.00    +0.033 A 
ATOM     20  C   UNL     1      -4.776   2.093  24.688  0.00  0.00    +0.039 A 
ENDBRANCH  13  14
ENDBRANCH  12  13
ENDBRANCH  11  12
ENDBRANCH   7   8
ENDBRANCH   6   7
BRANCH  25  26
ATOM     26  C   UNL     1       0.135   0.836  23.135  0.00  0.00    +0.076 C 
BRANCH  26  27
ATOM     27  N   UNL     1       0.950   0.722  23.121  0.00  0.00    -0.269 NA
ATOM     28  C   UNL     1       1.270   0.080  22.711  0.00  0.00    +0.094 C 
ATOM     29  C   UNL     1       2.087  -0.035  22.696  0.00  0.00    +0.111 C 
ATOM     30  N   UNL     1       2.584   0.493  23.091  0.00  0.00    -0.275 N 
ATOM     31  C   UNL     1       2.265   1.133  23.500  0.00  0.00    +0.111 C 
ATOM     32  C   UNL     1       1.448   1.248  23.515  0.00  0.00    +0.094 C 
ATOM     33  C   UNL     1       3.402   0.378  23.077  0.00  0.00    +0.220 A 
ATOM     34  N   UNL     1       3.721  -0.264  22.667  0.00  0.00    -0.212 NA
ATOM     35  C   UNL     1       4.538  -0.379  22.653  0.00  0.00    +0.103 A 
ATOM     36  C   UNL     1       5.036   0.148  23.048  0.00  0.00    +0.041 A 
ATOM     37  C   UNL     1       4.716   0.789  23.457  0.00  0.00    +0.103 A 
ATOM     38  N   UNL     1       3.899   0.904  23.471  0.00  0.00    -0.212 NA
ENDBRANCH  26  27
ENDBRANCH  25  26
TORSDOF 8
ENDMDL
MODEL 7
REMARK VINA RESULT:      -9.5      2.296      4.189
REMARK  Name = 
REMARK  8 active torsions:
REMARK  status: ('A' for Active; 'I' for Inactive)
REMARK    1  A    between atoms: C_2  and  C_4
REMARK    2  A    between atoms: C_6  and  C_7
REMARK    3  A    between atoms: C_7  and  C_8
REMARK    4  A    between atoms: C_11  and  C_12
REMARK    5  A    between atoms: C_12  and  O_13
REMARK    6  A    between atoms: O_13  and  C_14
REMARK    7  A    between atoms: C_25  and  C_26
REMARK    8  A    between atoms: C_26  and  N_27
REMARK                            x       y       z     vdW  Elec       q    Type
REMARK                         _______ _______ _______ _____ _____    ______ ____
ROOT
ATOM      4  C   UNL     1      -4.774   2.874  25.184  0.00  0.00    +0.006 C 
ATOM      5  C   UNL     1      -4.313   3.530  24.991  0.00  0.00    +0.005 C 
ATOM      6  C   UNL     1      -3.818   3.507  24.331  0.00  0.00    +0.027 C 
ATOM     22  C   UNL     1      -3.784   2.827  23.865  0.00  0.00    -0.048 C 
ATOM     23  C   UNL     1      -3.289   2.803  23.205  0.00  0.00    +0.026 C 
ATOM     24  C   UNL     1      -4.245   2.170  24.059  0.00  0.00    -0.034 C 
ATOM     25  C   UNL     1      -4.739   2.194  24.718  0.00  0.00    +0.037 C 
ENDROOT
BRANCH   4   2
ATOM      1  C   UNL     1      -6.085   2.962  25.745  0.00  0.00    +0.000 C 
ATOM      2  C   UNL     1      -5.268   2.898  25.843  0.00  0.00    +0.000 C 
ATOM      3  C   UNL     1      -4.946   2.857  26.603  0.00  0.00    +0.000 C 
ENDBRANCH   4   2
BRANCH   6   7
ATOM      7  C   UNL     1      -3.357   4.163  24.138  0.00  0.00    +0.091 C 
BRANCH   7   8
ATOM      8  C   UNL     1      -2.648   4.302  24.538  0.00  0.00    +0.227 A 
ATOM      9  N   UNL     1      -2.469   4.969  24.988  0.00  0.00    -0.112 NA
ATOM     10  N   UNL     1      -1.705   4.878  25.286  0.00  0.00    -0.108 NA
ATOM     11  C   UNL     1      -1.412   4.154  25.019  0.00  0.00    +0.270 A 
ATOM     21  O   UNL     1      -1.996   3.798  24.556  0.00  0.00    -0.420 OA
BRANCH  11  12
ATOM     12  C   UNL     1      -0.668   3.841  25.184  0.00  0.00    +0.291 C 
BRANCH  12  13
ATOM     13  O   UNL     1      -0.596   3.190  25.686  0.00  0.00    -0.465 OA
BRANCH  13  14
ATOM     14  C   UNL     1      -0.373   2.456  25.382  0.00  0.00    +0.139 A 
ATOM     15  C   UNL     1       0.213   2.409  24.804  0.00  0.00    +0.039 A 
ATOM     16  C   UNL     1       0.436   1.674  24.501  0.00  0.00    +0.033 A 
ATOM     17  C   UNL     1       0.072   0.988  24.776  0.00  0.00    +0.140 A 
ATOM     18  F   UNL     1       0.294   0.253  24.472  0.00  0.00    -0.204 F 
ATOM     19  C   UNL     1      -0.515   1.034  25.354  0.00  0.00    +0.033 A 
ATOM     20  C   UNL     1      -0.737   1.768  25.658  0.00  0.00    +0.039 A 
ENDBRANCH  13  14
ENDBRANCH  12  13
ENDBRANCH  11  12
ENDBRANCH   7   8
ENDBRANCH   6   7
BRANCH  25  26
ATOM     26  C   UNL     1      -5.200   1.538  24.911  0.00  0.00    +0.076 C 
BRANCH  26  27
ATOM     27  N   UNL     1      -4.887   0.779  24.839  0.00  0.00    -0.269 NA
ATOM     28  C   UNL     1      -5.089   0.309  24.191  0.00  0.00    +0.094 C 
ATOM     29  C   UNL     1      -4.776  -0.451  24.118  0.00  0.00    +0.111 C 
ATOM     30  N   UNL     1      -4.261  -0.741  24.694  0.00  0.00    -0.275 N 
ATOM     31  C   UNL     1      -4.059  -0.272  25.341  0.00  0.00    +0.111 C 
ATOM     32  C   UNL     1      -4.372   0.488  25.413  0.00  0.00    +0.094 C 
ATOM     33  C   UNL     1      -3.947  -1.501  24.621  0.00  0.00    +0.220 A 
ATOM     34  N   UNL     1      -4.150  -1.970  23.973  0.00  0.00    -0.212 NA
ATOM     35  C   UNL     1      -3.837  -2.730  23.901  0.00  0.00    +0.103 A 
ATOM     36  C   UNL     1      -3.321  -3.021  24.476  0.00  0.00    +0.041 A 
ATOM     37  C   UNL     1      -3.119  -2.551  25.123  0.00  0.00    +0.103 A 
ATOM     38  N   UNL     1      -3.432  -1.791  25.196  0.00  0.00    -0.212 NA
ENDBRANCH  26  27
ENDBRANCH  25  26
TORSDOF 8
ENDMDL
MODEL 8
REMARK VINA RESULT:      -9.1      2.060      3.396
REMARK  Name = 
REMARK  8 active torsions:
REMARK  status: ('A' for Active; 'I' for Inactive)
REMARK    1  A    between atoms: C_2  and  C_4
REMARK    2  A    between atoms: C_6  and  C_7
REMARK    3  A    between atoms: C_7  and  C_8
REMARK    4  A    between atoms: C_11  and  C_12
REMARK    5  A    between atoms: C_12  and  O_13
REMARK    6  A    between atoms: O_13  and  C_14
REMARK    7  A    between atoms: C_25  and  C_26
REMARK    8  A    between atoms: C_26  and  N_27
REMARK                            x       y       z     vdW  Elec       q    Type
REMARK                         _______ _______ _______ _____ _____    ______ ____
ROOT
ATOM      4  C   UNL     1      -1.214   1.583  24.297  0.00  0.00    +0.006 C 
ATOM      5  C   UNL     1      -1.461   2.101  24.889  0.00  0.00    +0.005 C 
ATOM      6  C   UNL     1      -0.915   2.406  25.426  0.00  0.00    +0.027 C 
ATOM     22  C   UNL     1      -0.119   2.194  25.370  0.00  0.00    -0.048 C 
ATOM     23  C   UNL     1       0.428   2.499  25.907  0.00  0.00    +0.026 C 
ATOM     24  C   UNL     1       0.129   1.675  24.778  0.00  0.00    -0.034 C 
ATOM     25  C   UNL     1      -0.418   1.371  24.241  0.00  0.00    +0.037 C 
ENDROOT
BRANCH   4   2
ATOM      1  C   UNL     1      -1.922   1.683  23.060  0.00  0.00    +0.000 C 
ATOM      2  C   UNL     1      -1.760   1.278  23.760  0.00  0.00    +0.000 C 
ATOM      3  C   UNL     1      -2.146   0.566  23.924  0.00  0.00    +0.000 C 
ENDBRANCH   4   2
BRANCH   6   7
ATOM      7  C   UNL     1      -1.162   2.924  26.018  0.00  0.00    +0.091 C 
BRANCH   7   8
ATOM      8  C   UNL     1      -1.828   3.399  25.899  0.00  0.00    +0.227 A 
ATOM      9  N   UNL     1      -1.822   4.187  25.657  0.00  0.00    -0.112 NA
ATOM     10  N   UNL     1      -2.605   4.444  25.610  0.00  0.00    -0.108 NA
ATOM     11  C   UNL     1      -3.093   3.814  25.823  0.00  0.00    +0.270 A 
ATOM     21  O   UNL     1      -2.612   3.168  26.002  0.00  0.00    -0.420 OA
BRANCH  11  12
ATOM     12  C   UNL     1      -3.917   3.827  25.853  0.00  0.00    +0.291 C 
BRANCH  12  13
ATOM     13  O   UNL     1      -4.358   3.642  25.180  0.00  0.00    -0.465 OA
BRANCH  13  14
ATOM     14  C   UNL     1      -4.978   3.100  25.228  0.00  0.00    +0.139 A 
ATOM     15  C   UNL     1      -5.501   3.125  25.864  0.00  0.00    +0.039 A 
ATOM     16  C   UNL     1      -6.121   2.582  25.911  0.00  0.00    +0.033 A 
ATOM     17  C   UNL     1      -6.217   2.015  25.320  0.00  0.00    +0.140 A 
ATOM     18  F   UNL     1      -6.837   1.473  25.367  0.00  0.00    -0.204 F 
ATOM     19  C   UNL     1      -5.694   1.990  24.683  0.00  0.00    +0.033 A 
ATOM     20  C   UNL     1      -5.074   2.532  24.636  0.00  0.00    +0.039 A 
ENDBRANCH  13  14
ENDBRANCH  12  13
ENDBRANCH  11  12
ENDBRANCH   7   8
ENDBRANCH   6   7
BRANCH  25  26
ATOM     26  C   UNL     1      -0.170   0.853  23.649  0.00  0.00    +0.076 C 
BRANCH  26  27
ATOM     27  N   UNL     1       0.635   0.746  23.506  0.00  0.00    -0.269 NA
ATOM     28  C   UNL     1       0.966  -0.009  23.553  0.00  0.00    +0.094 C 
ATOM     29  C   UNL     1       1.771  -0.116  23.410  0.00  0.00    +0.111 C 
ATOM     30  N   UNL     1       2.245   0.532  23.218  0.00  0.00    -0.275 N 
ATOM     31  C   UNL     1       1.915   1.286  23.170  0.00  0.00    +0.111 C 
ATOM     32  C   UNL     1       1.109   1.393  23.314  0.00  0.00    +0.094 C 
ATOM     33  C   UNL     1       3.051   0.425  23.074  0.00  0.00    +0.220 A 
ATOM     34  N   UNL     1       3.382  -0.329  23.122  0.00  0.00    -0.212 NA
ATOM     35  C   UNL     1       4.187  -0.436  22.978  0.00  0.00    +0.103 A 
ATOM     36  C   UNL     1       4.662   0.212  22.786  0.00  0.00    +0.041 A 
ATOM     37  C   UNL     1       4.331   0.965  22.739  0.00  0.00    +0.103 A 
ATOM     38  N   UNL     1       3.525   1.072  22.883  0.00  0.00    -0.212 NA
ENDBRANCH  26  27
ENDBRANCH  25  26
TORSDOF 8
ENDMDL
MODEL 9
REMARK VINA RESULT:      -9.1      2.337      5.715
REMARK  Name = 
REMARK  8 active torsions:
REMARK  status: ('A' for Active; 'I' for Inactive)
REMARK    1  A    between atoms: C_2  and  C_4
REMARK    2  A    between atoms: C_6  and  C_7
REMARK    3  A    between atoms: C_7  and  C_8
REMARK    4  A    between atoms: C_11  and  C_12
REMARK    5  A    between atoms: C_12  and  O_13
REMARK    6  A    between atoms: O_13  and  C_14
REMARK    7  A    between atoms: C_25  and  C_26
REMARK    8  A    between atoms: C_26  and  N_27
REMARK                            x       y       z     vdW  Elec       q    Type
REMARK                         _______ _______ _______ _____ _____    ______ ____
ROOT
ATOM      4  C   UNL     1      -2.885  -1.302  24.586  0.00  0.00    +0.006 C 
ATOM      5  C   UNL     1      -2.076  -1.458  24.609  0.00  0.00    +0.005 C 
ATOM      6  C   UNL     1      -1.561  -0.922  24.968  0.00  0.00    +0.027 C 
ATOM     22  C   UNL     1      -1.857  -0.229  25.304  0.00  0.00    -0.048 C 
ATOM     23  C   UNL     1      -1.344   0.307  25.663  0.00  0.00    +0.026 C 
ATOM     24  C   UNL     1      -2.667  -0.072  25.281  0.00  0.00    -0.034 C 
ATOM     25  C   UNL     1      -3.181  -0.609  24.922  0.00  0.00    +0.037 C 
ENDROOT
BRANCH   4   2
ATOM      1  C   UNL     1      -3.692  -1.686  23.471  0.00  0.00    +0.000 C 
ATOM      2  C   UNL     1      -3.399  -1.838  24.227  0.00  0.00    +0.000 C 
ATOM      3  C   UNL     1      -3.621  -2.527  24.625  0.00  0.00    +0.000 C 
ENDBRANCH   4   2
BRANCH   6   7
ATOM      7  C   UNL     1      -0.753  -1.079  24.992  0.00  0.00    +0.091 C 
BRANCH   7   8
ATOM      8  C   UNL     1      -0.283  -0.925  24.330  0.00  0.00    +0.227 A 
ATOM      9  N   UNL     1      -0.339  -1.302  23.599  0.00  0.00    -0.112 NA
ATOM     10  N   UNL     1       0.234  -0.977  23.101  0.00  0.00    -0.108 NA
ATOM     11  C   UNL     1       0.643  -0.400  23.526  0.00  0.00    +0.270 A 
ATOM     21  O   UNL     1       0.323  -0.368  24.286  0.00  0.00    -0.420 OA
BRANCH  11  12
ATOM     12  C   UNL     1       1.263   0.064  23.241  0.00  0.00    +0.291 C 
BRANCH  12  13
ATOM     13  O   UNL     1       1.868  -0.282  22.800  0.00  0.00    -0.465 OA
BRANCH  13  14
ATOM     14  C   UNL     1       2.634   0.024  22.837  0.00  0.00    +0.139 A 
ATOM     15  C   UNL     1       2.768   0.822  22.684  0.00  0.00    +0.039 A 
ATOM     16  C   UNL     1       3.534   1.127  22.721  0.00  0.00    +0.033 A 
ATOM     17  C   UNL     1       4.165   0.632  22.911  0.00  0.00    +0.140 A 
ATOM     18  F   UNL     1       4.931   0.937  22.948  0.00  0.00    -0.204 F 
ATOM     19  C   UNL     1       4.032  -0.168  23.064  0.00  0.00    +0.033 A 
ATOM     20  C   UNL     1       3.266  -0.472  23.027  0.00  0.00    +0.039 A 
ENDBRANCH  13  14
ENDBRANCH  12  13
ENDBRANCH  11  12
ENDBRANCH   7   8
ENDBRANCH   6   7
BRANCH  25  26
ATOM     26  C   UNL     1      -3.990  -0.451  24.898  0.00  0.00    +0.076 C 
BRANCH  26  27
ATOM     27  N   UNL     1      -4.263   0.322  24.987  0.00  0.00    -0.269 NA
ATOM     28  C   UNL     1      -4.026   0.906  24.454  0.00  0.00    +0.094 C 
ATOM     29  C   UNL     1      -4.299   1.680  24.543  0.00  0.00    +0.111 C 
ATOM     30  N   UNL     1      -4.809   1.868  25.164  0.00  0.00    -0.275 N 
ATOM     31  C   UNL     1      -5.045   1.285  25.696  0.00  0.00    +0.111 C 
ATOM     32  C   UNL     1      -4.772   0.511  25.607  0.00  0.00    +0.094 C 
ATOM     33  C   UNL     1      -5.082   2.643  25.253  0.00  0.00    +0.220 A 
ATOM     34  N   UNL     1      -4.845   3.227  24.720  0.00  0.00    -0.212 NA
ATOM     35  C   UNL     1      -5.118   4.000  24.808  0.00  0.00    +0.103 A 
ATOM     36  C   UNL     1      -5.628   4.190  25.430  0.00  0.00    +0.041 A 
ATOM     37  C   UNL     1      -5.864   3.605  25.962  0.00  0.00    +0.103 A 
ATOM     38  N   UNL     1      -5.591   2.832  25.873  0.00  0.00    -0.212 NA
ENDBRANCH  26  27
ENDBRANCH  25  26
TORSDOF 8
ENDMDL
