MODEL 1
REMARK VINA RESULT:      -8.4      0.000      0.000
REMARK  Name = 
REMARK  7 active torsions:
REMARK  status: ('A' for Active; 'I' for Inactive)
REMARK    1  A    between atoms: O_2  and  C_3
REMARK    2  A    between atoms: C_3  and  C_4
REMARK    3  A    between atoms: C_6  and  C_7
REMARK    4  A    between atoms: C_7  and  C_8
REMARK    5  A    between atoms: C_13  and  C_14
REMARK    6  A    between atoms: C_14  and  N_15
REMARK    7  A    between atoms: N_15  and  C_16
REMARK                            x       y       z     vdW  Elec       q    Type
REMARK                         _______ _______ _______ _____ _____    ______ ____
ROOT
ATOM      8  C   UNL     1      -4.206   2.910  24.814  0.00  0.00    +0.121 C 
ATOM      9  C   UNL     1      -4.871   3.284  25.129  0.00  0.00    +0.033 C 
ATOM     10  C   UNL     1      -5.500   2.835  25.416  0.00  0.00    +0.038 C 
ATOM     11  C   UNL     1      -5.466   2.012  25.389  0.00  0.00    +0.180 C 
ATOM     12  O   UNL     1      -6.096   1.562  25.677  0.00  0.00    -0.220 OA
ATOM     13  C   UNL     1      -4.802   1.637  25.075  0.00  0.00    +0.163 C 
ATOM     19  O   UNL     1      -4.172   2.086  24.787  0.00  0.00    -0.354 OA
ENDROOT
BRANCH   8   7
ATOM      7  C   UNL     1      -3.577   3.359  24.527  0.00  0.00    +0.079 C 
BRANCH   7   6
ATOM      4  C   UNL     1      -1.692   3.498  25.519  0.00  0.00    +0.184 A 
ATOM      5  C   UNL     1      -2.169   3.196  24.917  0.00  0.00    +0.056 A 
ATOM      6  C   UNL     1      -2.926   3.512  25.009  0.00  0.00    +0.103 A 
ATOM     20  N   UNL     1      -2.916   4.009  25.668  0.00  0.00    -0.082 NA
ATOM     21  O   UNL     1      -2.153   4.000  25.983  0.00  0.00    -0.356 OA
BRANCH   4   3
ATOM      3  C   UNL     1      -0.893   3.327  25.636  0.00  0.00    +0.209 C 
BRANCH   3   2
ATOM      1  C   UNL     1       0.120   2.493  26.201  0.00  0.00    +0.175 C 
ATOM      2  O   UNL     1      -0.673   2.715  26.143  0.00  0.00    -0.343 OA
ENDBRANCH   3   2
ENDBRANCH   4   3
ENDBRANCH   7   6
ENDBRANCH   8   7
BRANCH  13  14
ATOM     14  C   UNL     1      -4.767   0.812  25.047  0.00  0.00    +0.121 C 
BRANCH  14  15
ATOM     15  N   UNL     1      -4.066   0.437  24.828  0.00  0.00    -0.217 NA
BRANCH  15  16
ATOM     16  C   UNL     1      -4.021  -0.387  24.833  0.00  0.00    +0.073 C 
ATOM     17  C   UNL     1      -4.262  -0.816  24.171  0.00  0.00    +0.019 C 
ATOM     18  C   UNL     1      -3.735  -0.781  25.498  0.00  0.00    +0.019 C 
ENDBRANCH  15  16
ENDBRANCH  14  15
ENDBRANCH  13  14
TORSDOF 7
ENDMDL
MODEL 2
REMARK VINA RESULT:      -8.2      1.580      4.040
REMARK  Name = 
REMARK  7 active torsions:
REMARK  status: ('A' for Active; 'I' for Inactive)
REMARK    1  A    between atoms: O_2  and  C_3
REMARK    2  A    between atoms: C_3  and  C_4
REMARK    3  A    between atoms: C_6  and  C_7
REMARK    4  A    between atoms: C_7  and  C_8
REMARK    5  A    between atoms: C_13  and  C_14
REMARK    6  A    between atoms: C_14  and  N_15
REMARK    7  A    between atoms: N_15  and  C_16
REMARK                            x       y       z     vdW  Elec       q    Type
REMARK                         _______ _______ _______ _____ _____    ______ ____
ROOT
ATOM      8  C   UNL     1      -3.817   1.999  24.313  0.00  0.00    +0.121 C 
ATOM      9  C   UNL     1      -4.592   2.110  24.573  0.00  0.00    +0.033 C 
ATOM     10  C   UNL     1      -4.771   2.734  25.081  0.00  0.00    +0.038 C 
ATOM     11  C   UNL     1      -4.175   3.247  25.330  0.00  0.00    +0.180 C 
ATOM     12  O   UNL     1      -4.354   3.872  25.839  0.00  0.00    -0.220 OA
ATOM     13  C   UNL     1      -3.400   3.137  25.070  0.00  0.00    +0.163 C 
ATOM     19  O   UNL     1      -3.221   2.512  24.561  0.00  0.00    -0.354 OA
ENDROOT
BRANCH   8   7
ATOM      7  C   UNL     1      -3.638   1.375  23.804  0.00  0.00    +0.079 C 
BRANCH   7   6
ATOM      4  C   UNL     1      -3.469  -0.635  24.504  0.00  0.00    +0.184 A 
ATOM      5  C   UNL     1      -3.908  -0.025  24.162  0.00  0.00    +0.056 A 
ATOM      6  C   UNL     1      -3.422   0.641  24.111  0.00  0.00    +0.103 A 
ATOM     20  N   UNL     1      -2.684   0.443  24.422  0.00  0.00    -0.082 NA
ATOM     21  O   UNL     1      -2.713  -0.346  24.665  0.00  0.00    -0.356 OA
BRANCH   4   3
ATOM      3  C   UNL     1      -3.739  -1.399  24.659  0.00  0.00    +0.209 C 
BRANCH   3   2
ATOM      1  C   UNL     1      -3.662  -2.807  24.432  0.00  0.00    +0.175 C 
ATOM      2  O   UNL     1      -3.406  -2.041  24.263  0.00  0.00    -0.343 OA
ENDBRANCH   3   2
ENDBRANCH   4   3
ENDBRANCH   7   6
ENDBRANCH   8   7
BRANCH  13  14
ATOM     14  C   UNL     1      -2.803   3.650  25.319  0.00  0.00    +0.121 C 
BRANCH  14  15
ATOM     15  N   UNL     1      -2.141   3.773  24.843  0.00  0.00    -0.217 NA
BRANCH  15  16
ATOM     16  C   UNL     1      -1.491   4.186  25.140  0.00  0.00    +0.073 C 
ATOM     17  C   UNL     1      -0.844   3.775  25.443  0.00  0.00    +0.019 C 
ATOM     18  C   UNL     1      -1.490   5.011  25.134  0.00  0.00    +0.019 C 
ENDBRANCH  15  16
ENDBRANCH  14  15
ENDBRANCH  13  14
TORSDOF 7
ENDMDL
MODEL 3
REMARK VINA RESULT:      -7.8      1.700      4.204
REMARK  Name = 
REMARK  7 active torsions:
REMARK  status: ('A' for Active; 'I' for Inactive)
REMARK    1  A    between atoms: O_2  and  C_3
REMARK    2  A    between atoms: C_3  and  C_4
REMARK    3  A    between atoms: C_6  and  C_7
REMARK    4  A    between atoms: C_7  and  C_8
REMARK    5  A    between atoms: C_13  and  C_14
REMARK    6  A    between atoms: C_14  and  N_15
REMARK    7  A    between atoms: N_15  and  C_16
REMARK                            x       y       z     vdW  Elec       q    Type
REMARK                         _______ _______ _______ _____ _____    ______ ____
ROOT
ATOM      8  C   UNL     1      -2.916  -0.013  24.715  0.00  0.00    +0.121 C 
ATOM      9  C   UNL     1      -2.927  -0.777  25.027  0.00  0.00    +0.033 C 
ATOM     10  C   UNL     1      -2.286  -1.053  25.465  0.00  0.00    +0.038 C 
ATOM     11  C   UNL     1      -1.632  -0.566  25.592  0.00  0.00    +0.180 C 
ATOM     12  O   UNL     1      -0.990  -0.843  26.031  0.00  0.00    -0.220 OA
ATOM     13  C   UNL     1      -1.620   0.198  25.281  0.00  0.00    +0.163 C 
ATOM     19  O   UNL     1      -2.262   0.474  24.843  0.00  0.00    -0.354 OA
ENDROOT
BRANCH   8   7
ATOM      7  C   UNL     1      -3.557   0.264  24.277  0.00  0.00    +0.079 C 
BRANCH   7   6
ATOM      4  C   UNL     1      -4.942   1.734  24.968  0.00  0.00    +0.184 A 
ATOM      5  C   UNL     1      -4.322   1.504  24.475  0.00  0.00    +0.056 A 
ATOM      6  C   UNL     1      -4.142   0.716  24.642  0.00  0.00    +0.103 A 
ATOM     20  N   UNL     1      -4.651   0.460  25.240  0.00  0.00    -0.082 NA
ATOM     21  O   UNL     1      -5.145   1.090  25.441  0.00  0.00    -0.356 OA
BRANCH   4   3
ATOM      3  C   UNL     1      -5.296   2.479  24.986  0.00  0.00    +0.209 C 
BRANCH   3   2
ATOM      1  C   UNL     1      -5.444   3.762  25.596  0.00  0.00    +0.175 C 
ATOM      2  O   UNL     1      -5.138   2.996  25.608  0.00  0.00    -0.343 OA
ENDBRANCH   3   2
ENDBRANCH   4   3
ENDBRANCH   7   6
ENDBRANCH   8   7
BRANCH  13  14
ATOM     14  C   UNL     1      -0.966   0.685  25.408  0.00  0.00    +0.121 C 
BRANCH  14  15
ATOM     15  N   UNL     1      -1.040   1.502  25.323  0.00  0.00    -0.217 NA
BRANCH  15  16
ATOM     16  C   UNL     1      -0.382   1.989  25.434  0.00  0.00    +0.073 C 
ATOM     17  C   UNL     1       0.178   2.069  24.834  0.00  0.00    +0.019 C 
ATOM     18  C   UNL     1      -0.285   2.394  26.145  0.00  0.00    +0.019 C 
ENDBRANCH  15  16
ENDBRANCH  14  15
ENDBRANCH  13  14
TORSDOF 7
ENDMDL
MODEL 4
REMARK VINA RESULT:      -7.7      1.967      3.446
REMARK  Name = 
REMARK  7 active torsions:
REMARK  status: ('A' for Active; 'I' for Inactive)
REMARK    1  A    between atoms: O_2  and  C_3
REMARK    2  A    between atoms: C_3  and  C_4
REMARK    3  A    between atoms: C_6  and  C_7
REMARK    4  A    between atoms: C_7  and  C_8
REMARK    5  A    between atoms: C_13  and  C_14
REMARK    6  A    between atoms: C_14  and  N_15
REMARK    7  A    between atoms: N_15  and  C_16
REMARK                            x       y       z     vdW  Elec       q    Type
REMARK                         _______ _______ _______ _____ _____    ______ ____
ROOT
ATOM      8  C   UNL     1      -1.783   1.182  23.809  0.00  0.00    +0.121 C 
ATOM      9  C   UNL     1      -0.967   1.280  23.882  0.00  0.00    +0.033 C 
ATOM     10  C   UNL     1      -0.515   0.704  24.262  0.00  0.00    +0.038 C 
ATOM     11  C   UNL     1      -0.879   0.030  24.568  0.00  0.00    +0.180 C 
ATOM     12  O   UNL     1      -0.427  -0.547  24.948  0.00  0.00    -0.220 OA
ATOM     13  C   UNL     1      -1.695  -0.068  24.496  0.00  0.00    +0.163 C 
ATOM     19  O   UNL     1      -2.147   0.509  24.116  0.00  0.00    -0.354 OA
ENDROOT
BRANCH   8   7
ATOM      7  C   UNL     1      -2.235   1.758  23.430  0.00  0.00    +0.079 C 
BRANCH   7   6
ATOM      4  C   UNL     1      -3.571   3.075  24.450  0.00  0.00    +0.184 A 
ATOM      5  C   UNL     1      -3.433   2.420  23.966  0.00  0.00    +0.056 A 
ATOM      6  C   UNL     1      -2.617   2.341  23.872  0.00  0.00    +0.103 A 
ATOM     20  N   UNL     1      -2.251   2.945  24.297  0.00  0.00    -0.082 NA
ATOM     21  O   UNL     1      -2.841   3.399  24.654  0.00  0.00    -0.356 OA
BRANCH   4   3
ATOM      3  C   UNL     1      -4.310   3.355  24.687  0.00  0.00    +0.209 C 
BRANCH   3   2
ATOM      1  C   UNL     1      -5.394   3.350  25.617  0.00  0.00    +0.175 C 
ATOM      2  O   UNL     1      -4.643   3.092  25.394  0.00  0.00    -0.343 OA
ENDBRANCH   3   2
ENDBRANCH   4   3
ENDBRANCH   7   6
ENDBRANCH   8   7
BRANCH  13  14
ATOM     14  C   UNL     1      -2.059  -0.742  24.803  0.00  0.00    +0.121 C 
BRANCH  14  15
ATOM     15  N   UNL     1      -2.820  -0.947  24.558  0.00  0.00    -0.217 NA
BRANCH  15  16
ATOM     16  C   UNL     1      -3.203  -1.592  24.901  0.00  0.00    +0.073 C 
ATOM     17  C   UNL     1      -3.472  -1.547  25.678  0.00  0.00    +0.019 C 
ATOM     18  C   UNL     1      -3.316  -2.283  24.464  0.00  0.00    +0.019 C 
ENDBRANCH  15  16
ENDBRANCH  14  15
ENDBRANCH  13  14
TORSDOF 7
ENDMDL
MODEL 5
REMARK VINA RESULT:      -7.7      1.900      3.396
REMARK  Name = 
REMARK  7 active torsions:
REMARK  status: ('A' for Active; 'I' for Inactive)
REMARK    1  A    between atoms: O_2  and  C_3
REMARK    2  A    between atoms: C_3  and  C_4
REMARK    3  A    between atoms: C_6  and  C_7
REMARK    4  A    between atoms: C_7  and  C_8
REMARK    5  A    between atoms: C_13  and  C_14
REMARK    6  A    between atoms: C_14  and  N_15
REMARK    7  A    between atoms: N_15  and  C_16
REMARK                            x       y       z     vdW  Elec       q    Type
REMARK                         _______ _______ _______ _____ _____    ______ ____
ROOT
ATOM      8  C   UNL     1      -2.604  -0.796  25.282  0.00  0.00    +0.121 C 
ATOM      9  C   UNL     1      -2.723  -1.555  24.980  0.00  0.00    +0.033 C 
ATOM     10  C   UNL     1      -3.421  -1.734  24.578  0.00  0.00    +0.038 C 
ATOM     11  C   UNL     1      -3.999  -1.155  24.477  0.00  0.00    +0.180 C 
ATOM     12  O   UNL     1      -4.697  -1.334  24.075  0.00  0.00    -0.220 OA
ATOM     13  C   UNL     1      -3.880  -0.396  24.779  0.00  0.00    +0.163 C 
ATOM     19  O   UNL     1      -3.182  -0.217  25.181  0.00  0.00    -0.354 OA
ENDROOT
BRANCH   8   7
ATOM      7  C   UNL     1      -1.907  -0.617  25.684  0.00  0.00    +0.079 C 
BRANCH   7   6
ATOM      4  C   UNL     1      -0.497   0.803  24.940  0.00  0.00    +0.184 A 
ATOM      5  C   UNL     1      -1.130   0.605  25.431  0.00  0.00    +0.056 A 
ATOM      6  C   UNL     1      -1.310  -0.191  25.307  0.00  0.00    +0.103 A 
ATOM     20  N   UNL     1      -0.789  -0.484  24.739  0.00  0.00    -0.082 NA
ATOM     21  O   UNL     1      -0.286   0.130  24.512  0.00  0.00    -0.356 OA
BRANCH   4   3
ATOM      3  C   UNL     1      -0.139   1.544  24.886  0.00  0.00    +0.209 C 
BRANCH   3   2
ATOM      1  C   UNL     1      -0.146   2.886  24.397  0.00  0.00    +0.175 C 
ATOM      2  O   UNL     1      -0.467   2.127  24.404  0.00  0.00    -0.343 OA
ENDBRANCH   3   2
ENDBRANCH   4   3
ENDBRANCH   7   6
ENDBRANCH   8   7
BRANCH  13  14
ATOM     14  C   UNL     1      -4.459   0.184  24.678  0.00  0.00    +0.121 C 
BRANCH  14  15
ATOM     15  N   UNL     1      -4.419   0.885  25.111  0.00  0.00    -0.217 NA
BRANCH  15  16
ATOM     16  C   UNL     1      -4.928   1.509  24.932  0.00  0.00    +0.073 C 
ATOM     17  C   UNL     1      -4.684   2.105  24.417  0.00  0.00    +0.019 C 
ATOM     18  C   UNL     1      -5.680   1.537  25.268  0.00  0.00    +0.019 C 
ENDBRANCH  15  16
ENDBRANCH  14  15
ENDBRANCH  13  14
TORSDOF 7
ENDMDL
MODEL 6
REMARK VINA RESULT:      -7.7      1.535      3.704
REMARK  Name = 
REMARK  7 active torsions:
REMARK  status: ('A' for Active; 'I' for Inactive)
REMARK    1  A    between atoms: O_2  and  C_3
REMARK    2  A    between atoms: C_3  and  C_4
REMARK    3  A    between atoms: C_6  and  C_7
REMARK    4  A    between atoms: C_7  and  C_8
REMARK    5  A    between atoms: C_13  and  C_14
REMARK    6  A    between atoms: C_14  and  N_15
REMARK    7  A    between atoms: N_15  and  C_16
REMARK                            x       y       z     vdW  Elec       q    Type
REMARK                         _______ _______ _______ _____ _____    ______ ____
ROOT
ATOM      8  C   UNL     1      -1.667   3.128  24.983  0.00  0.00    +0.121 C 
ATOM      9  C   UNL     1      -1.124   3.667  25.293  0.00  0.00    +0.033 C 
ATOM     10  C   UNL     1      -0.440   3.395  25.665  0.00  0.00    +0.038 C 
ATOM     11  C   UNL     1      -0.299   2.585  25.728  0.00  0.00    +0.180 C 
ATOM     12  O   UNL     1       0.386   2.313  26.100  0.00  0.00    -0.220 OA
ATOM     13  C   UNL     1      -0.841   2.046  25.418  0.00  0.00    +0.163 C 
ATOM     19  O   UNL     1      -1.526   2.318  25.046  0.00  0.00    -0.354 OA
ENDROOT
BRANCH   8   7
ATOM      7  C   UNL     1      -2.351   3.400  24.611  0.00  0.00    +0.079 C 
BRANCH   7   6
ATOM      4  C   UNL     1      -4.327   3.290  25.412  0.00  0.00    +0.184 A 
ATOM      5  C   UNL     1      -3.768   3.082  24.842  0.00  0.00    +0.056 A 
ATOM      6  C   UNL     1      -3.057   3.455  25.033  0.00  0.00    +0.103 A 
ATOM     20  N   UNL     1      -3.177   3.893  25.722  0.00  0.00    -0.082 NA
ATOM     21  O   UNL     1      -3.961   3.791  25.956  0.00  0.00    -0.356 OA
BRANCH   4   3
ATOM      3  C   UNL     1      -5.113   3.041  25.435  0.00  0.00    +0.209 C 
BRANCH   3   2
ATOM      1  C   UNL     1      -6.082   2.041  25.755  0.00  0.00    +0.175 C 
ATOM      2  O   UNL     1      -5.307   2.323  25.791  0.00  0.00    -0.343 OA
ENDBRANCH   3   2
ENDBRANCH   4   3
ENDBRANCH   7   6
ENDBRANCH   8   7
BRANCH  13  14
ATOM     14  C   UNL     1      -0.700   1.235  25.481  0.00  0.00    +0.121 C 
BRANCH  14  15
ATOM     15  N   UNL     1      -1.226   0.698  25.141  0.00  0.00    -0.217 NA
BRANCH  15  16
ATOM     16  C   UNL     1      -1.094  -0.113  25.218  0.00  0.00    +0.073 C 
ATOM     17  C   UNL     1      -1.412  -0.523  25.859  0.00  0.00    +0.019 C 
ATOM     18  C   UNL     1      -0.643  -0.512  24.655  0.00  0.00    +0.019 C 
ENDBRANCH  15  16
ENDBRANCH  14  15
ENDBRANCH  13  14
TORSDOF 7
ENDMDL
MODEL 7
REMARK VINA RESULT:      -7.6      1.882      3.029
REMARK  Name = 
REMARK  7 active torsions:
REMARK  status: ('A' for Active; 'I' for Inactive)
REMARK    1  A    between atoms: O_2  and  C_3
REMARK    2  A    between atoms: C_3  and  C_4
REMARK    3  A    between atoms: C_6  and  C_7
REMARK    4  A    between atoms: C_7  and  C_8
REMARK    5  A    between atoms: C_13  and  C_14
REMARK    6  A    between atoms: C_14  and  N_15
REMARK    7  A    between atoms: N_15  and  C_16
REMARK                            x       y       z     vdW  Elec       q    Type
REMARK                         _______ _______ _______ _____ _____    ______ ____
ROOT
ATOM      8  C   UNL     1      -1.769   3.276  24.640  0.00  0.00    +0.121 C 
ATOM      9  C   UNL     1      -1.526   3.908  25.112  0.00  0.00    +0.033 C 
ATOM     10  C   UNL     1      -2.039   4.224  25.675  0.00  0.00    +0.038 C 
ATOM     11  C   UNL     1      -2.795   3.907  25.768  0.00  0.00    +0.180 C 
ATOM     12  O   UNL     1      -3.308   4.223  26.332  0.00  0.00    -0.220 OA
ATOM     13  C   UNL     1      -3.039   3.275  25.297  0.00  0.00    +0.163 C 
ATOM     19  O   UNL     1      -2.525   2.960  24.733  0.00  0.00    -0.354 OA
ENDROOT
BRANCH   8   7
ATOM      7  C   UNL     1      -1.257   2.961  24.077  0.00  0.00    +0.079 C 
BRANCH   7   6
ATOM      4  C   UNL     1      -0.328   1.054  24.320  0.00  0.00    +0.184 A 
ATOM      5  C   UNL     1      -0.923   1.531  24.004  0.00  0.00    +0.056 A 
ATOM      6  C   UNL     1      -0.793   2.304  24.262  0.00  0.00    +0.103 A 
ATOM     20  N   UNL     1      -0.118   2.305  24.737  0.00  0.00    -0.082 NA
ATOM     21  O   UNL     1       0.169   1.532  24.773  0.00  0.00    -0.356 OA
BRANCH   4   3
ATOM      3  C   UNL     1      -0.245   0.241  24.204  0.00  0.00    +0.209 C 
BRANCH   3   2
ATOM      1  C   UNL     1      -0.498  -1.101  24.623  0.00  0.00    +0.175 C 
ATOM      2  O   UNL     1      -0.581  -0.288  24.739  0.00  0.00    -0.343 OA
ENDBRANCH   3   2
ENDBRANCH   4   3
ENDBRANCH   7   6
ENDBRANCH   8   7
BRANCH  13  14
ATOM     14  C   UNL     1      -3.795   2.958  25.390  0.00  0.00    +0.121 C 
BRANCH  14  15
ATOM     15  N   UNL     1      -4.102   2.452  24.816  0.00  0.00    -0.217 NA
BRANCH  15  16
ATOM     16  C   UNL     1      -4.803   2.040  24.962  0.00  0.00    +0.073 C 
ATOM     17  C   UNL     1      -4.779   1.232  25.123  0.00  0.00    +0.019 C 
ATOM     18  C   UNL     1      -5.525   2.437  24.948  0.00  0.00    +0.019 C 
ENDBRANCH  15  16
ENDBRANCH  14  15
ENDBRANCH  13  14
TORSDOF 7
ENDMDL
MODEL 8
REMARK VINA RESULT:      -7.6      1.787      2.410
REMARK  Name = 
REMARK  7 active torsions:
REMARK  status: ('A' for Active; 'I' for Inactive)
REMARK    1  A    between atoms: O_2  and  C_3
REMARK    2  A    between atoms: C_3  and  C_4
REMARK    3  A    between atoms: C_6  and  C_7
REMARK    4  A    between atoms: C_7  and  C_8
REMARK    5  A    between atoms: C_13  and  C_14
REMARK    6  A    between atoms: C_14  and  N_15
REMARK    7  A    between atoms: N_15  and  C_16
REMARK                            x       y       z     vdW  Elec       q    Type
REMARK                         _______ _______ _______ _____ _____    ______ ____
ROOT
ATOM      8  C   UNL     1      -3.559   1.004  24.442  0.00  0.00    +0.121 C 
ATOM      9  C   UNL     1      -4.323   0.839  24.708  0.00  0.00    +0.033 C 
ATOM     10  C   UNL     1      -4.473   0.141  25.120  0.00  0.00    +0.038 C 
ATOM     11  C   UNL     1      -3.862  -0.392  25.268  0.00  0.00    +0.180 C 
ATOM     12  O   UNL     1      -4.012  -1.091  25.681  0.00  0.00    -0.220 OA
ATOM     13  C   UNL     1      -3.098  -0.227  25.002  0.00  0.00    +0.163 C 
ATOM     19  O   UNL     1      -2.947   0.471  24.589  0.00  0.00    -0.354 OA
ENDROOT
BRANCH   8   7
ATOM      7  C   UNL     1      -3.408   1.702  24.029  0.00  0.00    +0.079 C 
BRANCH   7   6
ATOM      4  C   UNL     1      -2.460   3.385  24.938  0.00  0.00    +0.184 A 
ATOM      5  C   UNL     1      -2.429   2.706  24.469  0.00  0.00    +0.056 A 
ATOM      6  C   UNL     1      -3.188   2.384  24.438  0.00  0.00    +0.103 A 
ATOM     20  N   UNL     1      -3.688   2.863  24.886  0.00  0.00    -0.082 NA
ATOM     21  O   UNL     1      -3.238   3.482  25.195  0.00  0.00    -0.356 OA
BRANCH   4   3
ATOM      3  C   UNL     1      -1.825   3.880  25.117  0.00  0.00    +0.209 C 
BRANCH   3   2
ATOM      1  C   UNL     1      -1.239   5.183  25.091  0.00  0.00    +0.175 C 
ATOM      2  O   UNL     1      -1.904   4.697  25.040  0.00  0.00    -0.343 OA
ENDBRANCH   3   2
ENDBRANCH   4   3
ENDBRANCH   7   6
ENDBRANCH   8   7
BRANCH  13  14
ATOM     14  C   UNL     1      -2.485  -0.760  25.149  0.00  0.00    +0.121 C 
BRANCH  14  15
ATOM     15  N   UNL     1      -1.873  -0.845  24.603  0.00  0.00    -0.217 NA
BRANCH  15  16
ATOM     16  C   UNL     1      -1.261  -1.380  24.749  0.00  0.00    +0.073 C 
ATOM     17  C   UNL     1      -1.317  -2.155  24.475  0.00  0.00    +0.019 C 
ATOM     18  C   UNL     1      -0.595  -1.138  25.170  0.00  0.00    +0.019 C 
ENDBRANCH  15  16
ENDBRANCH  14  15
ENDBRANCH  13  14
TORSDOF 7
ENDMDL
