REMARK  Name = 
REMARK  6 active torsions:
REMARK  status: ('A' for Active; 'I' for Inactive)
REMARK    1  A    between atoms: C_5  and  C_6
REMARK    2  A    between atoms: C_6  and  C_7
REMARK    3  A    between atoms: C_10  and  C_12
REMARK    4  A    between atoms: C_20  and  C_21
REMARK    5  A    between atoms: C_21  and  N_22
REMARK    6  A    between atoms: N_25  and  C_26
REMARK                            x       y       z     vdW  Elec       q    Type
REMARK                         _______ _______ _______ _____ _____    ______ ____
ROOT
ATOM      1  O   UNL     1       3.572  -3.712   0.000  0.00  0.00    -0.220 OA
ATOM      2  C   UNL     1       2.858  -4.125   0.000  0.00  0.00    +0.181 C 
ATOM      3  C   UNL     1       2.858  -4.950   0.000  0.00  0.00    +0.038 C 
ATOM      4  C   UNL     1       2.143  -5.362   0.000  0.00  0.00    +0.033 C 
ATOM      5  C   UNL     1       1.429  -4.950   0.000  0.00  0.00    +0.121 C 
ATOM     19  O   UNL     1       1.429  -4.125   0.000  0.00  0.00    -0.354 OA
ATOM     20  C   UNL     1       2.143  -3.712   0.000  0.00  0.00    +0.167 C 
ENDROOT
BRANCH   5   6
ATOM      6  C   UNL     1       0.715  -5.362   0.000  0.00  0.00    +0.079 C 
BRANCH   6   7
ATOM      7  C   UNL     1       0.715  -6.188   0.000  0.00  0.00    +0.103 A 
ATOM      8  N   UNL     1       1.382  -6.672   0.000  0.00  0.00    -0.081 NA
ATOM      9  O   UNL     1       1.127  -7.457   0.000  0.00  0.00    -0.354 OA
ATOM     10  C   UNL     1       0.302  -7.457   0.000  0.00  0.00    +0.177 A 
ATOM     11  C   UNL     1       0.047  -6.672   0.000  0.00  0.00    +0.058 A 
BRANCH  10  12
ATOM     12  C   UNL     1      -0.183  -8.124   0.000  0.00  0.00    +0.037 A 
ATOM     13  C   UNL     1       0.153  -8.878   0.000  0.00  0.00    +0.005 A 
ATOM     14  C   UNL     1      -0.332  -9.546   0.000  0.00  0.00    +0.030 A 
ATOM     15  C   UNL     1      -1.153  -9.459   0.000  0.00  0.00    +0.140 A 
ATOM     16  F   UNL     1      -1.638 -10.127   0.000  0.00  0.00    -0.204 F 
ATOM     17  C   UNL     1      -1.488  -8.706   0.000  0.00  0.00    +0.030 A 
ATOM     18  C   UNL     1      -1.003  -8.038   0.000  0.00  0.00    +0.005 A 
ENDBRANCH  10  12
ENDBRANCH   6   7
ENDBRANCH   5   6
BRANCH  20  21
ATOM     21  C   UNL     1       2.143  -2.888   0.000  0.00  0.00    +0.149 C 
BRANCH  21  22
ATOM     22  N   UNL     1       1.429  -2.475   0.000  0.00  0.00    -0.185 NA
ATOM     23  C   UNL     1       1.429  -1.650   0.000  0.00  0.00    +0.339 C 
ATOM     24  O   UNL     1       2.143  -1.238   0.000  0.00  0.00    -0.249 OA
ATOM     25  N   UNL     1       0.715  -1.238   0.000  0.00  0.00    -0.189 NA
BRANCH  25  26
ATOM     26  C   UNL     1       0.715  -0.412   0.000  0.00  0.00    +0.097 C 
ATOM     27  C   UNL     1       0.000   0.000   0.000  0.00  0.00    +0.022 C 
ATOM     28  C   UNL     1       0.000   0.825   0.000  0.00  0.00    +0.002 C 
ATOM     29  C   UNL     1       0.715   1.238   0.000  0.00  0.00    +0.000 C 
ATOM     30  C   UNL     1       1.429   0.825   0.000  0.00  0.00    +0.002 C 
ATOM     31  C   UNL     1       1.429   0.000   0.000  0.00  0.00    +0.022 C 
ENDBRANCH  25  26
ENDBRANCH  21  22
ENDBRANCH  20  21
TORSDOF 6
