MODEL 1
REMARK VINA RESULT:     -10.0      0.000      0.000
REMARK  Name = 
REMARK  4 active torsions:
REMARK  status: ('A' for Active; 'I' for Inactive)
REMARK    1  A    between atoms: C_2  and  N_3
REMARK    2  A    between atoms: N_6  and  C_7
REMARK    3  A    between atoms: C_11  and  N_15
REMARK    4  A    between atoms: C_18  and  C_22
REMARK                            x       y       z     vdW  Elec       q    Type
REMARK                         _______ _______ _______ _____ _____    ______ ____
ROOT
ATOM      7  C   UNL     1       0.724   1.252  23.906  0.00  0.00    +0.156 C 
ATOM      8  C   UNL     1       0.265   0.667  23.549  0.00  0.00    +0.166 C 
ATOM      9  O   UNL     1      -0.502   0.728  23.846  0.00  0.00    -0.350 OA
ATOM     10  C   UNL     1      -0.518   1.351  24.386  0.00  0.00    +0.166 C 
ATOM     11  C   UNL     1      -1.001   1.774  24.903  0.00  0.00    +0.154 C 
ATOM     12  C   UNL     1      -0.543   2.360  25.260  0.00  0.00    +0.166 C 
ATOM     13  O   UNL     1       0.224   2.298  24.963  0.00  0.00    -0.350 OA
ATOM     14  C   UNL     1       0.240   1.675  24.423  0.00  0.00    +0.166 C 
ENDROOT
BRANCH  11  15
ATOM     15  N   UNL     1      -1.803   1.636  25.039  0.00  0.00    -0.200 NA
ATOM     16  C   UNL     1      -2.347   2.252  24.964  0.00  0.00    +0.237 A 
ATOM     17  N   UNL     1      -3.148   2.114  25.100  0.00  0.00    -0.212 NA
ATOM     18  C   UNL     1      -3.692   2.730  25.024  0.00  0.00    +0.086 A 
ATOM     19  C   UNL     1      -3.434   3.484  24.812  0.00  0.00    +0.040 A 
ATOM     20  C   UNL     1      -2.631   3.623  24.676  0.00  0.00    +0.103 A 
ATOM     21  N   UNL     1      -2.088   3.006  24.752  0.00  0.00    -0.211 NA
BRANCH  18  22
ATOM     22  C   UNL     1      -4.493   2.592  25.160  0.00  0.00    +0.020 A 
ATOM     23  C   UNL     1      -4.912   3.076  25.683  0.00  0.00    +0.002 A 
ATOM     24  C   UNL     1      -5.714   2.938  25.819  0.00  0.00    +0.002 A 
ATOM     25  C   UNL     1      -6.098   2.318  25.434  0.00  0.00    +0.030 A 
ATOM     26  C   UNL     1      -5.679   1.835  24.911  0.00  0.00    +0.140 A 
ATOM     27  F   UNL     1      -6.062   1.215  24.525  0.00  0.00    -0.204 F 
ATOM     28  C   UNL     1      -4.877   1.973  24.775  0.00  0.00    +0.031 A 
ENDBRANCH  18  22
ENDBRANCH  11  15
BRANCH   7   6
ATOM      3  N   UNL     1       2.757   1.019  23.147  0.00  0.00    -0.187 NA
ATOM      4  C   UNL     1       1.956   0.881  23.283  0.00  0.00    +0.339 C 
ATOM      5  O   UNL     1       1.583   0.233  22.933  0.00  0.00    -0.249 OA
ATOM      6  N   UNL     1       1.526   1.390  23.770  0.00  0.00    -0.184 NA
BRANCH   3   2
ATOM      1  C   UNL     1       3.997   0.623  22.558  0.00  0.00    +0.025 C 
ATOM      2  C   UNL     1       3.187   0.510  22.660  0.00  0.00    +0.117 C 
ENDBRANCH   3   2
ENDBRANCH   7   6
TORSDOF 4
ENDMDL
MODEL 2
REMARK VINA RESULT:      -9.9      2.580      3.069
REMARK  Name = 
REMARK  4 active torsions:
REMARK  status: ('A' for Active; 'I' for Inactive)
REMARK    1  A    between atoms: C_2  and  N_3
REMARK    2  A    between atoms: N_6  and  C_7
REMARK    3  A    between atoms: C_11  and  N_15
REMARK    4  A    between atoms: C_18  and  C_22
REMARK                            x       y       z     vdW  Elec       q    Type
REMARK                         _______ _______ _______ _____ _____    ______ ____
ROOT
ATOM      7  C   UNL     1       2.207   0.614  23.023  0.00  0.00    +0.156 C 
ATOM      8  C   UNL     1       1.995   0.006  22.507  0.00  0.00    +0.166 C 
ATOM      9  O   UNL     1       1.187  -0.132  22.595  0.00  0.00    -0.350 OA
ATOM     10  C   UNL     1       0.899   0.389  23.165  0.00  0.00    +0.166 C 
ATOM     11  C   UNL     1       0.222   0.627  23.572  0.00  0.00    +0.154 C 
ATOM     12  C   UNL     1       0.433   1.235  24.088  0.00  0.00    +0.166 C 
ATOM     13  O   UNL     1       1.242   1.373  24.000  0.00  0.00    -0.350 OA
ATOM     14  C   UNL     1       1.530   0.850  23.430  0.00  0.00    +0.166 C 
ENDROOT
BRANCH  11  15
ATOM     15  N   UNL     1      -0.535   0.312  23.478  0.00  0.00    -0.200 NA
ATOM     16  C   UNL     1      -0.941   0.011  24.131  0.00  0.00    +0.237 A 
ATOM     17  N   UNL     1      -1.697  -0.304  24.038  0.00  0.00    -0.212 NA
ATOM     18  C   UNL     1      -2.102  -0.605  24.690  0.00  0.00    +0.086 A 
ATOM     19  C   UNL     1      -1.750  -0.591  25.437  0.00  0.00    +0.040 A 
ATOM     20  C   UNL     1      -0.993  -0.276  25.530  0.00  0.00    +0.103 A 
ATOM     21  N   UNL     1      -0.589   0.025  24.877  0.00  0.00    -0.211 NA
BRANCH  18  22
ATOM     22  C   UNL     1      -2.858  -0.920  24.597  0.00  0.00    +0.020 A 
ATOM     23  C   UNL     1      -3.513  -0.418  24.559  0.00  0.00    +0.002 A 
ATOM     24  C   UNL     1      -4.269  -0.733  24.466  0.00  0.00    +0.002 A 
ATOM     25  C   UNL     1      -4.373  -1.550  24.411  0.00  0.00    +0.030 A 
ATOM     26  C   UNL     1      -3.719  -2.051  24.450  0.00  0.00    +0.140 A 
ATOM     27  F   UNL     1      -3.821  -2.868  24.396  0.00  0.00    -0.204 F 
ATOM     28  C   UNL     1      -2.962  -1.736  24.543  0.00  0.00    +0.031 A 
ENDBRANCH  18  22
ENDBRANCH  11  15
BRANCH   7   6
ATOM      3  N   UNL     1       4.379   0.747  23.198  0.00  0.00    -0.187 NA
ATOM      4  C   UNL     1       3.623   0.432  23.104  0.00  0.00    +0.339 C 
ATOM      5  O   UNL     1       3.523  -0.381  22.999  0.00  0.00    -0.249 OA
ATOM      6  N   UNL     1       2.964   0.929  23.117  0.00  0.00    -0.184 NA
BRANCH   3   2
ATOM      1  C   UNL     1       5.707   0.440  23.628  0.00  0.00    +0.025 C 
ATOM      2  C   UNL     1       5.038   0.250  23.185  0.00  0.00    +0.117 C 
ENDBRANCH   3   2
ENDBRANCH   7   6
TORSDOF 4
ENDMDL
MODEL 3
REMARK VINA RESULT:      -7.5     15.995     17.192
REMARK  Name = 
REMARK  4 active torsions:
REMARK  status: ('A' for Active; 'I' for Inactive)
REMARK    1  A    between atoms: C_2  and  N_3
REMARK    2  A    between atoms: N_6  and  C_7
REMARK    3  A    between atoms: C_11  and  N_15
REMARK    4  A    between atoms: C_18  and  C_22
REMARK                            x       y       z     vdW  Elec       q    Type
REMARK                         _______ _______ _______ _____ _____    ______ ____
ROOT
ATOM      7  C   UNL     1      -5.679 -10.176  16.061  0.00  0.00    +0.156 C 
ATOM      8  C   UNL     1      -4.857 -10.158  15.999  0.00  0.00    +0.166 C 
ATOM      9  O   UNL     1      -4.661 -10.204  15.199  0.00  0.00    -0.350 OA
ATOM     10  C   UNL     1      -5.362 -10.250  14.767  0.00  0.00    +0.166 C 
ATOM     11  C   UNL     1      -5.675 -10.307  14.006  0.00  0.00    +0.154 C 
ATOM     12  C   UNL     1      -6.498 -10.325  14.069  0.00  0.00    +0.166 C 
ATOM     13  O   UNL     1      -6.693 -10.279  14.869  0.00  0.00    -0.350 OA
ATOM     14  C   UNL     1      -5.991 -10.233  15.300  0.00  0.00    +0.166 C 
ENDROOT
BRANCH  11  15
ATOM     15  N   UNL     1      -5.242 -10.341  13.305  0.00  0.00    -0.200 NA
ATOM     16  C   UNL     1      -5.441  -9.851  12.672  0.00  0.00    +0.237 A 
ATOM     17  N   UNL     1      -5.008  -9.884  11.971  0.00  0.00    -0.212 NA
ATOM     18  C   UNL     1      -5.208  -9.394  11.338  0.00  0.00    +0.086 A 
ATOM     19  C   UNL     1      -5.842  -8.871  11.406  0.00  0.00    +0.040 A 
ATOM     20  C   UNL     1      -6.276  -8.837  12.108  0.00  0.00    +0.103 A 
ATOM     21  N   UNL     1      -6.075  -9.327  12.740  0.00  0.00    -0.211 NA
BRANCH  18  22
ATOM     22  C   UNL     1      -4.775  -9.427  10.637  0.00  0.00    +0.020 A 
ATOM     23  C   UNL     1      -5.123  -9.729   9.951  0.00  0.00    +0.002 A 
ATOM     24  C   UNL     1      -4.690  -9.762   9.250  0.00  0.00    +0.002 A 
ATOM     25  C   UNL     1      -3.909  -9.495   9.234  0.00  0.00    +0.030 A 
ATOM     26  C   UNL     1      -3.562  -9.194   9.919  0.00  0.00    +0.140 A 
ATOM     27  F   UNL     1      -2.782  -8.926   9.904  0.00  0.00    -0.204 F 
ATOM     28  C   UNL     1      -3.995  -9.160  10.621  0.00  0.00    +0.031 A 
ENDBRANCH  18  22
ENDBRANCH  11  15
BRANCH   7   6
ATOM      3  N   UNL     1      -6.216 -10.388  18.167  0.00  0.00    -0.187 NA
ATOM      4  C   UNL     1      -5.783 -10.421  17.466  0.00  0.00    +0.339 C 
ATOM      5  O   UNL     1      -5.019 -10.733  17.467  0.00  0.00    -0.249 OA
ATOM      6  N   UNL     1      -6.113 -10.142  16.763  0.00  0.00    -0.184 NA
BRANCH   3   2
ATOM      1  C   UNL     1      -6.299 -10.586  19.579  0.00  0.00    +0.025 C 
ATOM      2  C   UNL     1      -5.886 -10.666  18.870  0.00  0.00    +0.117 C 
ENDBRANCH   3   2
ENDBRANCH   7   6
TORSDOF 4
ENDMDL
MODEL 4
REMARK VINA RESULT:      -7.0     18.098     19.405
REMARK  Name = 
REMARK  4 active torsions:
REMARK  status: ('A' for Active; 'I' for Inactive)
REMARK    1  A    between atoms: C_2  and  N_3
REMARK    2  A    between atoms: N_6  and  C_7
REMARK    3  A    between atoms: C_11  and  N_15
REMARK    4  A    between atoms: C_18  and  C_22
REMARK                            x       y       z     vdW  Elec       q    Type
REMARK                         _______ _______ _______ _____ _____    ______ ____
ROOT
ATOM      7  C   UNL     1      -8.463  -7.089   8.544  0.00  0.00    +0.156 C 
ATOM      8  C   UNL     1      -7.800  -6.792   8.153  0.00  0.00    +0.166 C 
ATOM      9  O   UNL     1      -7.157  -7.273   8.342  0.00  0.00    -0.350 OA
ATOM     10  C   UNL     1      -7.421  -7.866   8.849  0.00  0.00    +0.166 C 
ATOM     11  C   UNL     1      -7.189  -8.530   9.281  0.00  0.00    +0.154 C 
ATOM     12  C   UNL     1      -7.851  -8.826   9.672  0.00  0.00    +0.166 C 
ATOM     13  O   UNL     1      -8.494  -8.346   9.483  0.00  0.00    -0.350 OA
ATOM     14  C   UNL     1      -8.229  -7.752   8.975  0.00  0.00    +0.166 C 
ENDROOT
BRANCH  11  15
ATOM     15  N   UNL     1      -6.425  -8.842   9.314  0.00  0.00    -0.200 NA
ATOM     16  C   UNL     1      -6.055  -8.951  10.044  0.00  0.00    +0.237 A 
ATOM     17  N   UNL     1      -5.293  -9.263  10.077  0.00  0.00    -0.212 NA
ATOM     18  C   UNL     1      -4.923  -9.372  10.807  0.00  0.00    +0.086 A 
ATOM     19  C   UNL     1      -5.317  -9.169  11.503  0.00  0.00    +0.040 A 
ATOM     20  C   UNL     1      -6.080  -8.856  11.469  0.00  0.00    +0.103 A 
ATOM     21  N   UNL     1      -6.449  -8.748  10.739  0.00  0.00    -0.211 NA
BRANCH  18  22
ATOM     22  C   UNL     1      -4.161  -9.684  10.841  0.00  0.00    +0.020 A 
ATOM     23  C   UNL     1      -4.046 -10.468  11.075  0.00  0.00    +0.002 A 
ATOM     24  C   UNL     1      -3.284 -10.780  11.109  0.00  0.00    +0.002 A 
ATOM     25  C   UNL     1      -2.635 -10.311  10.909  0.00  0.00    +0.030 A 
ATOM     26  C   UNL     1      -2.750  -9.528  10.674  0.00  0.00    +0.140 A 
ATOM     27  F   UNL     1      -2.103  -9.058  10.474  0.00  0.00    -0.204 F 
ATOM     28  C   UNL     1      -3.514  -9.215  10.640  0.00  0.00    +0.031 A 
ENDBRANCH  18  22
ENDBRANCH  11  15
BRANCH   7   6
ATOM      3  N   UNL     1     -10.099  -5.646   8.462  0.00  0.00    -0.187 NA
ATOM      4  C   UNL     1      -9.337  -5.959   8.495  0.00  0.00    +0.339 C 
ATOM      5  O   UNL     1      -8.684  -5.454   8.513  0.00  0.00    -0.249 OA
ATOM      6  N   UNL     1      -9.226  -6.776   8.511  0.00  0.00    -0.184 NA
BRANCH   3   2
ATOM      1  C   UNL     1     -10.719  -4.471   8.988  0.00  0.00    +0.025 C 
ATOM      2  C   UNL     1     -10.210  -4.829   8.446  0.00  0.00    +0.117 C 
ENDBRANCH   3   2
ENDBRANCH   7   6
TORSDOF 4
ENDMDL
MODEL 5
REMARK VINA RESULT:      -7.0     16.914     17.834
REMARK  Name = 
REMARK  4 active torsions:
REMARK  status: ('A' for Active; 'I' for Inactive)
REMARK    1  A    between atoms: C_2  and  N_3
REMARK    2  A    between atoms: N_6  and  C_7
REMARK    3  A    between atoms: C_11  and  N_15
REMARK    4  A    between atoms: C_18  and  C_22
REMARK                            x       y       z     vdW  Elec       q    Type
REMARK                         _______ _______ _______ _____ _____    ______ ____
ROOT
ATOM      7  C   UNL     1      -2.990 -10.601  13.158  0.00  0.00    +0.156 C 
ATOM      8  C   UNL     1      -3.725 -10.779  13.486  0.00  0.00    +0.166 C 
ATOM      9  O   UNL     1      -4.296 -10.679  12.900  0.00  0.00    -0.350 OA
ATOM     10  C   UNL     1      -3.915 -10.438  12.210  0.00  0.00    +0.166 C 
ATOM     11  C   UNL     1      -4.031 -10.228  11.420  0.00  0.00    +0.154 C 
ATOM     12  C   UNL     1      -3.296 -10.049  11.092  0.00  0.00    +0.166 C 
ATOM     13  O   UNL     1      -2.725 -10.149  11.679  0.00  0.00    -0.350 OA
ATOM     14  C   UNL     1      -3.107 -10.390  12.369  0.00  0.00    +0.166 C 
ENDROOT
BRANCH  11  15
ATOM     15  N   UNL     1      -4.757 -10.200  11.028  0.00  0.00    -0.200 NA
ATOM     16  C   UNL     1      -4.974  -9.524  10.609  0.00  0.00    +0.237 A 
ATOM     17  N   UNL     1      -5.699  -9.496  10.217  0.00  0.00    -0.212 NA
ATOM     18  C   UNL     1      -5.917  -8.820   9.798  0.00  0.00    +0.086 A 
ATOM     19  C   UNL     1      -5.408  -8.171   9.771  0.00  0.00    +0.040 A 
ATOM     20  C   UNL     1      -4.683  -8.198  10.163  0.00  0.00    +0.103 A 
ATOM     21  N   UNL     1      -4.466  -8.875  10.582  0.00  0.00    -0.211 NA
BRANCH  18  22
ATOM     22  C   UNL     1      -6.641  -8.792   9.406  0.00  0.00    +0.020 A 
ATOM     23  C   UNL     1      -6.677  -8.936   8.593  0.00  0.00    +0.002 A 
ATOM     24  C   UNL     1      -7.402  -8.909   8.201  0.00  0.00    +0.002 A 
ATOM     25  C   UNL     1      -8.092  -8.737   8.620  0.00  0.00    +0.030 A 
ATOM     26  C   UNL     1      -8.056  -8.593   9.431  0.00  0.00    +0.140 A 
ATOM     27  F   UNL     1      -8.745  -8.422   9.851  0.00  0.00    -0.204 F 
ATOM     28  C   UNL     1      -7.331  -8.621   9.824  0.00  0.00    +0.031 A 
ENDBRANCH  18  22
ENDBRANCH  11  15
BRANCH   7   6
ATOM      3  N   UNL     1      -1.509 -10.557  14.761  0.00  0.00    -0.187 NA
ATOM      4  C   UNL     1      -2.233 -10.529  14.369  0.00  0.00    +0.339 C 
ATOM      5  O   UNL     1      -2.929 -10.404  14.795  0.00  0.00    -0.249 OA
ATOM      6  N   UNL     1      -2.264 -10.628  13.550  0.00  0.00    -0.184 NA
BRANCH   3   2
ATOM      1  C   UNL     1      -0.753 -10.341  15.954  0.00  0.00    +0.025 C 
ATOM      2  C   UNL     1      -1.478 -10.458  15.580  0.00  0.00    +0.117 C 
ENDBRANCH   3   2
ENDBRANCH   7   6
TORSDOF 4
ENDMDL
MODEL 6
REMARK VINA RESULT:      -6.8     15.339     16.167
REMARK  Name = 
REMARK  4 active torsions:
REMARK  status: ('A' for Active; 'I' for Inactive)
REMARK    1  A    between atoms: C_2  and  N_3
REMARK    2  A    between atoms: N_6  and  C_7
REMARK    3  A    between atoms: C_11  and  N_15
REMARK    4  A    between atoms: C_18  and  C_22
REMARK                            x       y       z     vdW  Elec       q    Type
REMARK                         _______ _______ _______ _____ _____    ______ ____
ROOT
ATOM      7  C   UNL     1      -5.488  -9.787  12.544  0.00  0.00    +0.156 C 
ATOM      8  C   UNL     1      -6.222  -9.446  12.702  0.00  0.00    +0.166 C 
ATOM      9  O   UNL     1      -6.418  -9.616  13.485  0.00  0.00    -0.350 OA
ATOM     10  C   UNL     1      -5.806 -10.060  13.811  0.00  0.00    +0.166 C 
ATOM     11  C   UNL     1      -5.547 -10.441  14.496  0.00  0.00    +0.154 C 
ATOM     12  C   UNL     1      -4.813 -10.781  14.338  0.00  0.00    +0.166 C 
ATOM     13  O   UNL     1      -4.617 -10.611  13.555  0.00  0.00    -0.350 OA
ATOM     14  C   UNL     1      -5.231 -10.166  13.229  0.00  0.00    +0.166 C 
ENDROOT
BRANCH  11  15
ATOM     15  N   UNL     1      -5.953 -10.474  15.214  0.00  0.00    -0.200 NA
ATOM     16  C   UNL     1      -5.535 -10.471  15.925  0.00  0.00    +0.237 A 
ATOM     17  N   UNL     1      -5.940 -10.504  16.642  0.00  0.00    -0.212 NA
ATOM     18  C   UNL     1      -5.522 -10.501  17.354  0.00  0.00    +0.086 A 
ATOM     19  C   UNL     1      -4.698 -10.464  17.347  0.00  0.00    +0.040 A 
ATOM     20  C   UNL     1      -4.292 -10.431  16.629  0.00  0.00    +0.103 A 
ATOM     21  N   UNL     1      -4.711 -10.434  15.918  0.00  0.00    -0.211 NA
BRANCH  18  22
ATOM     22  C   UNL     1      -5.927 -10.534  18.071  0.00  0.00    +0.020 A 
ATOM     23  C   UNL     1      -6.751 -10.475  18.083  0.00  0.00    +0.002 A 
ATOM     24  C   UNL     1      -7.156 -10.508  18.800  0.00  0.00    +0.002 A 
ATOM     25  C   UNL     1      -6.739 -10.601  19.506  0.00  0.00    +0.030 A 
ATOM     26  C   UNL     1      -5.916 -10.661  19.494  0.00  0.00    +0.140 A 
ATOM     27  F   UNL     1      -5.499 -10.754  20.199  0.00  0.00    -0.204 F 
ATOM     28  C   UNL     1      -5.511 -10.628  18.776  0.00  0.00    +0.031 A 
ENDBRANCH  18  22
ENDBRANCH  11  15
BRANCH   7   6
ATOM      3  N   UNL     1      -4.821  -9.101  10.581  0.00  0.00    -0.187 NA
ATOM      4  C   UNL     1      -5.227  -9.135  11.299  0.00  0.00    +0.339 C 
ATOM      5  O   UNL     1      -5.778  -8.551  11.490  0.00  0.00    -0.249 OA
ATOM      6  N   UNL     1      -5.082  -9.753  11.826  0.00  0.00    -0.184 NA
BRANCH   3   2
ATOM      1  C   UNL     1      -4.590  -8.471   9.320  0.00  0.00    +0.025 C 
ATOM      2  C   UNL     1      -4.966  -8.484  10.054  0.00  0.00    +0.117 C 
ENDBRANCH   3   2
ENDBRANCH   7   6
TORSDOF 4
ENDMDL
MODEL 7
REMARK VINA RESULT:      -6.7     14.920     15.654
REMARK  Name = 
REMARK  4 active torsions:
REMARK  status: ('A' for Active; 'I' for Inactive)
REMARK    1  A    between atoms: C_2  and  N_3
REMARK    2  A    between atoms: N_6  and  C_7
REMARK    3  A    between atoms: C_11  and  N_15
REMARK    4  A    between atoms: C_18  and  C_22
REMARK                            x       y       z     vdW  Elec       q    Type
REMARK                         _______ _______ _______ _____ _____    ______ ____
ROOT
ATOM      7  C   UNL     1      -4.806 -10.398  13.800  0.00  0.00    +0.156 C 
ATOM      8  C   UNL     1      -5.340 -10.092  13.252  0.00  0.00    +0.166 C 
ATOM      9  O   UNL     1      -6.047  -9.934  13.647  0.00  0.00    -0.350 OA
ATOM     10  C   UNL     1      -5.949 -10.142  14.438  0.00  0.00    +0.166 C 
ATOM     11  C   UNL     1      -6.325 -10.173  15.172  0.00  0.00    +0.154 C 
ATOM     12  C   UNL     1      -5.790 -10.479  15.721  0.00  0.00    +0.166 C 
ATOM     13  O   UNL     1      -5.084 -10.637  15.326  0.00  0.00    -0.350 OA
ATOM     14  C   UNL     1      -5.182 -10.429  14.533  0.00  0.00    +0.166 C 
ENDROOT
BRANCH  11  15
ATOM     15  N   UNL     1      -7.100  -9.939  15.330  0.00  0.00    -0.200 NA
ATOM     16  C   UNL     1      -7.318  -9.718  16.095  0.00  0.00    +0.237 A 
ATOM     17  N   UNL     1      -8.092  -9.484  16.252  0.00  0.00    -0.212 NA
ATOM     18  C   UNL     1      -8.310  -9.263  17.017  0.00  0.00    +0.086 A 
ATOM     19  C   UNL     1      -7.751  -9.277  17.624  0.00  0.00    +0.040 A 
ATOM     20  C   UNL     1      -6.976  -9.511  17.467  0.00  0.00    +0.103 A 
ATOM     21  N   UNL     1      -6.759  -9.731  16.702  0.00  0.00    -0.211 NA
BRANCH  18  22
ATOM     22  C   UNL     1      -9.084  -9.029  17.175  0.00  0.00    +0.020 A 
ATOM     23  C   UNL     1      -9.643  -9.587  17.417  0.00  0.00    +0.002 A 
ATOM     24  C   UNL     1     -10.418  -9.353  17.575  0.00  0.00    +0.002 A 
ATOM     25  C   UNL     1     -10.635  -8.562  17.491  0.00  0.00    +0.030 A 
ATOM     26  C   UNL     1     -10.077  -8.004  17.249  0.00  0.00    +0.140 A 
ATOM     27  F   UNL     1     -10.294  -7.213  17.165  0.00  0.00    -0.204 F 
ATOM     28  C   UNL     1      -9.302  -8.239  17.091  0.00  0.00    +0.031 A 
ENDBRANCH  18  22
ENDBRANCH  11  15
BRANCH   7   6
ATOM      3  N   UNL     1      -2.903 -10.671  12.765  0.00  0.00    -0.187 NA
ATOM      4  C   UNL     1      -3.678 -10.438  12.922  0.00  0.00    +0.339 C 
ATOM      5  O   UNL     1      -4.103 -10.008  12.359  0.00  0.00    -0.249 OA
ATOM      6  N   UNL     1      -4.030 -10.633  13.643  0.00  0.00    -0.184 NA
BRANCH   3   2
ATOM      1  C   UNL     1      -1.749 -10.621  11.924  0.00  0.00    +0.025 C 
ATOM      2  C   UNL     1      -2.552 -10.477  12.044  0.00  0.00    +0.117 C 
ENDBRANCH   3   2
ENDBRANCH   7   6
TORSDOF 4
ENDMDL
MODEL 8
REMARK VINA RESULT:      -6.3     15.749     17.349
REMARK  Name = 
REMARK  4 active torsions:
REMARK  status: ('A' for Active; 'I' for Inactive)
REMARK    1  A    between atoms: C_2  and  N_3
REMARK    2  A    between atoms: N_6  and  C_7
REMARK    3  A    between atoms: C_11  and  N_15
REMARK    4  A    between atoms: C_18  and  C_22
REMARK                            x       y       z     vdW  Elec       q    Type
REMARK                         _______ _______ _______ _____ _____    ______ ____
ROOT
ATOM      7  C   UNL     1      -7.206  -9.992  16.147  0.00  0.00    +0.156 C 
ATOM      8  C   UNL     1      -6.572  -9.614  16.515  0.00  0.00    +0.166 C 
ATOM      9  O   UNL     1      -5.915  -9.680  16.021  0.00  0.00    -0.350 OA
ATOM     10  C   UNL     1      -6.142 -10.100  15.349  0.00  0.00    +0.166 C 
ATOM     11  C   UNL     1      -5.878 -10.401  14.627  0.00  0.00    +0.154 C 
ATOM     12  C   UNL     1      -6.512 -10.779  14.260  0.00  0.00    +0.166 C 
ATOM     13  O   UNL     1      -7.169 -10.713  14.754  0.00  0.00    -0.350 OA
ATOM     14  C   UNL     1      -6.941 -10.293  15.427  0.00  0.00    +0.166 C 
ENDROOT
BRANCH  11  15
ATOM     15  N   UNL     1      -5.112 -10.334  14.327  0.00  0.00    -0.200 NA
ATOM     16  C   UNL     1      -4.979 -10.412  13.516  0.00  0.00    +0.237 A 
ATOM     17  N   UNL     1      -4.214 -10.346  13.215  0.00  0.00    -0.212 NA
ATOM     18  C   UNL     1      -4.081 -10.423  12.405  0.00  0.00    +0.086 A 
ATOM     19  C   UNL     1      -4.713 -10.567  11.895  0.00  0.00    +0.040 A 
ATOM     20  C   UNL     1      -5.479 -10.634  12.196  0.00  0.00    +0.103 A 
ATOM     21  N   UNL     1      -5.611 -10.556  13.006  0.00  0.00    -0.211 NA
BRANCH  18  22
ATOM     22  C   UNL     1      -3.316 -10.357  12.104  0.00  0.00    +0.020 A 
ATOM     23  C   UNL     1      -2.698 -10.781  12.451  0.00  0.00    +0.002 A 
ATOM     24  C   UNL     1      -1.933 -10.715  12.150  0.00  0.00    +0.002 A 
ATOM     25  C   UNL     1      -1.785 -10.225  11.503  0.00  0.00    +0.030 A 
ATOM     26  C   UNL     1      -2.402  -9.802  11.156  0.00  0.00    +0.140 A 
ATOM     27  F   UNL     1      -2.255  -9.313  10.509  0.00  0.00    -0.204 F 
ATOM     28  C   UNL     1      -3.168  -9.868  11.457  0.00  0.00    +0.031 A 
ENDBRANCH  18  22
ENDBRANCH  11  15
BRANCH   7   6
ATOM      3  N   UNL     1      -9.088  -9.483  17.130  0.00  0.00    -0.187 NA
ATOM      4  C   UNL     1      -8.323  -9.417  16.830  0.00  0.00    +0.339 C 
ATOM      5  O   UNL     1      -7.907  -8.708  16.910  0.00  0.00    -0.249 OA
ATOM      6  N   UNL     1      -7.972 -10.059  16.448  0.00  0.00    -0.184 NA
BRANCH   3   2
ATOM      1  C   UNL     1     -10.248  -8.844  17.666  0.00  0.00    +0.025 C 
ATOM      2  C   UNL     1      -9.438  -8.841  17.512  0.00  0.00    +0.117 C 
ENDBRANCH   3   2
ENDBRANCH   7   6
TORSDOF 4
ENDMDL
MODEL 9
REMARK VINA RESULT:      -6.2     14.425     15.033
REMARK  Name = 
REMARK  4 active torsions:
REMARK  status: ('A' for Active; 'I' for Inactive)
REMARK    1  A    between atoms: C_2  and  N_3
REMARK    2  A    between atoms: N_6  and  C_7
REMARK    3  A    between atoms: C_11  and  N_15
REMARK    4  A    between atoms: C_18  and  C_22
REMARK                            x       y       z     vdW  Elec       q    Type
REMARK                         _______ _______ _______ _____ _____    ______ ____
ROOT
ATOM      7  C   UNL     1      -4.021 -10.552  16.137  0.00  0.00    +0.156 C 
ATOM      8  C   UNL     1      -4.009 -10.345  16.935  0.00  0.00    +0.166 C 
ATOM      9  O   UNL     1      -4.780 -10.157  17.161  0.00  0.00    -0.350 OA
ATOM     10  C   UNL     1      -5.268 -10.247  16.503  0.00  0.00    +0.166 C 
ATOM     11  C   UNL     1      -6.046 -10.187  16.234  0.00  0.00    +0.154 C 
ATOM     12  C   UNL     1      -6.058 -10.394  15.436  0.00  0.00    +0.166 C 
ATOM     13  O   UNL     1      -5.287 -10.582  15.211  0.00  0.00    -0.350 OA
ATOM     14  C   UNL     1      -4.799 -10.491  15.870  0.00  0.00    +0.166 C 
ENDROOT
BRANCH  11  15
ATOM     15  N   UNL     1      -6.698  -9.959  16.686  0.00  0.00    -0.200 NA
ATOM     16  C   UNL     1      -7.405  -9.751  16.315  0.00  0.00    +0.237 A 
ATOM     17  N   UNL     1      -8.056  -9.523  16.767  0.00  0.00    -0.212 NA
ATOM     18  C   UNL     1      -8.763  -9.315  16.396  0.00  0.00    +0.086 A 
ATOM     19  C   UNL     1      -8.818  -9.333  15.573  0.00  0.00    +0.040 A 
ATOM     20  C   UNL     1      -8.166  -9.561  15.121  0.00  0.00    +0.103 A 
ATOM     21  N   UNL     1      -7.460  -9.769  15.493  0.00  0.00    -0.211 NA
BRANCH  18  22
ATOM     22  C   UNL     1      -9.415  -9.087  16.847  0.00  0.00    +0.020 A 
ATOM     23  C   UNL     1      -9.945  -9.658  17.122  0.00  0.00    +0.002 A 
ATOM     24  C   UNL     1     -10.597  -9.431  17.574  0.00  0.00    +0.002 A 
ATOM     25  C   UNL     1     -10.720  -8.634  17.750  0.00  0.00    +0.030 A 
ATOM     26  C   UNL     1     -10.190  -8.065  17.475  0.00  0.00    +0.140 A 
ATOM     27  F   UNL     1     -10.311  -7.268  17.652  0.00  0.00    -0.204 F 
ATOM     28  C   UNL     1      -9.537  -8.292  17.024  0.00  0.00    +0.031 A 
ENDBRANCH  18  22
ENDBRANCH  11  15
BRANCH   7   6
ATOM      3  N   UNL     1      -1.958 -10.781  15.462  0.00  0.00    -0.187 NA
ATOM      4  C   UNL     1      -2.609 -10.553  15.914  0.00  0.00    +0.339 C 
ATOM      5  O   UNL     1      -2.502 -10.100  16.595  0.00  0.00    -0.249 OA
ATOM      6  N   UNL     1      -3.369 -10.779  15.685  0.00  0.00    -0.184 NA
BRANCH   3   2
ATOM      1  C   UNL     1      -0.597 -10.498  15.129  0.00  0.00    +0.025 C 
ATOM      2  C   UNL     1      -1.198 -10.555  15.691  0.00  0.00    +0.117 C 
ENDBRANCH   3   2
ENDBRANCH   7   6
TORSDOF 4
ENDMDL
MODEL 10
REMARK VINA RESULT:      -6.1     16.620     17.965
REMARK  Name = 
REMARK  4 active torsions:
REMARK  status: ('A' for Active; 'I' for Inactive)
REMARK    1  A    between atoms: C_2  and  N_3
REMARK    2  A    between atoms: N_6  and  C_7
REMARK    3  A    between atoms: C_11  and  N_15
REMARK    4  A    between atoms: C_18  and  C_22
REMARK                            x       y       z     vdW  Elec       q    Type
REMARK                         _______ _______ _______ _____ _____    ______ ____
ROOT
ATOM      7  C   UNL     1      -5.771  -9.221  10.186  0.00  0.00    +0.156 C 
ATOM      8  C   UNL     1      -5.285  -8.559  10.263  0.00  0.00    +0.166 C 
ATOM      9  O   UNL     1      -4.687  -8.743  10.801  0.00  0.00    -0.350 OA
ATOM     10  C   UNL     1      -4.803  -9.518  11.056  0.00  0.00    +0.166 C 
ATOM     11  C   UNL     1      -4.506 -10.112  11.545  0.00  0.00    +0.154 C 
ATOM     12  C   UNL     1      -4.992 -10.775  11.468  0.00  0.00    +0.166 C 
ATOM     13  O   UNL     1      -5.589 -10.590  10.930  0.00  0.00    -0.350 OA
ATOM     14  C   UNL     1      -5.473  -9.814  10.675  0.00  0.00    +0.166 C 
ENDROOT
BRANCH  11  15
ATOM     15  N   UNL     1      -3.839 -10.054  12.028  0.00  0.00    -0.200 NA
ATOM     16  C   UNL     1      -3.883 -10.277  12.821  0.00  0.00    +0.237 A 
ATOM     17  N   UNL     1      -3.217 -10.218  13.304  0.00  0.00    -0.212 NA
ATOM     18  C   UNL     1      -3.261 -10.441  14.097  0.00  0.00    +0.086 A 
ATOM     19  C   UNL     1      -3.972 -10.723  14.408  0.00  0.00    +0.040 A 
ATOM     20  C   UNL     1      -4.638 -10.781  13.925  0.00  0.00    +0.103 A 
ATOM     21  N   UNL     1      -4.594 -10.558  13.132  0.00  0.00    -0.211 NA
BRANCH  18  22
ATOM     22  C   UNL     1      -2.595 -10.383  14.580  0.00  0.00    +0.020 A 
ATOM     23  C   UNL     1      -1.882 -10.107  14.267  0.00  0.00    +0.002 A 
ATOM     24  C   UNL     1      -1.216 -10.048  14.750  0.00  0.00    +0.002 A 
ATOM     25  C   UNL     1      -1.261 -10.265  15.545  0.00  0.00    +0.030 A 
ATOM     26  C   UNL     1      -1.973 -10.541  15.857  0.00  0.00    +0.140 A 
ATOM     27  F   UNL     1      -2.020 -10.758  16.651  0.00  0.00    -0.204 F 
ATOM     28  C   UNL     1      -2.640 -10.599  15.374  0.00  0.00    +0.031 A 
ENDBRANCH  18  22
ENDBRANCH  11  15
BRANCH   7   6
ATOM      3  N   UNL     1      -7.384  -8.672   8.822  0.00  0.00    -0.187 NA
ATOM      4  C   UNL     1      -6.718  -8.614   9.305  0.00  0.00    +0.339 C 
ATOM      5  O   UNL     1      -6.332  -7.889   9.390  0.00  0.00    -0.249 OA
ATOM      6  N   UNL     1      -6.437  -9.280   9.703  0.00  0.00    -0.184 NA
BRANCH   3   2
ATOM      1  C   UNL     1      -8.477  -7.888   8.339  0.00  0.00    +0.025 C 
ATOM      2  C   UNL     1      -7.665  -8.006   8.424  0.00  0.00    +0.117 C 
ENDBRANCH   3   2
ENDBRANCH   7   6
TORSDOF 4
ENDMDL
