MODEL 1
REMARK VINA RESULT:     -14.9      0.000      0.000
REMARK  Name = 
REMARK  6 active torsions:
REMARK  status: ('A' for Active; 'I' for Inactive)
REMARK    1  A    between atoms: C_2  and  C_3
REMARK    2  A    between atoms: C_11  and  C_12
REMARK    3  A    between atoms: C_12  and  C_13
REMARK    4  A    between atoms: N_15  and  C_16
REMARK    5  A    between atoms: C_16  and  C_17
REMARK    6  A    between atoms: C_30  and  C_32
REMARK                            x       y       z     vdW  Elec       q    Type
REMARK                         _______ _______ _______ _____ _____    ______ ____
ROOT
ATOM      1  C   UNL     1      -2.189  -3.014  24.614  0.00  0.00    +0.005 C 
ATOM      2  C   UNL     1      -2.513  -2.258  24.550  0.00  0.00    +0.059 C 
ATOM      5  C   UNL     1      -3.185  -2.714  24.411  0.00  0.00    +0.154 C 
ATOM      6  O   UNL     1      -3.135  -3.537  24.419  0.00  0.00    -0.223 OA
ATOM      7  C   UNL     1      -3.910  -2.346  24.264  0.00  0.00    +0.033 C 
ATOM      8  C   UNL     1      -3.960  -1.523  24.256  0.00  0.00    +0.003 C 
ATOM      9  C   UNL     1      -3.288  -1.067  24.394  0.00  0.00    +0.006 C 
ATOM     10  C   UNL     1      -4.011  -0.701  24.247  0.00  0.00    +0.000 C 
ATOM     11  C   UNL     1      -3.338  -0.244  24.387  0.00  0.00    +0.050 C 
ATOM     23  C   UNL     1      -2.665   0.212  24.525  0.00  0.00    +0.063 A 
ATOM     24  C   UNL     1      -1.941  -0.155  24.673  0.00  0.00    +0.023 A 
ATOM     25  C   UNL     1      -1.890  -0.978  24.681  0.00  0.00    +0.034 C 
ATOM     26  C   UNL     1      -2.563  -1.435  24.542  0.00  0.00    +0.010 C 
ATOM     27  S   UNL     1      -1.376   0.435  24.790  0.00  0.00    -0.054 S 
ATOM     28  C   UNL     1      -1.750   1.166  24.715  0.00  0.00    +0.185 A 
ATOM     29  N   UNL     1      -1.390   1.905  24.791  0.00  0.00    -0.151 NA
ATOM     30  C   UNL     1      -1.838   2.591  24.701  0.00  0.00    +0.271 C 
ATOM     31  O   UNL     1      -2.644   2.541  24.536  0.00  0.00    -0.268 OA
ATOM     39  N   UNL     1      -2.546   1.028  24.552  0.00  0.00    -0.227 NA
ENDROOT
BRANCH  30  32
ATOM     32  C   UNL     1      -1.478   3.330  24.777  0.00  0.00    +0.056 A 
ATOM     33  C   UNL     1      -1.847   3.926  25.213  0.00  0.00    +0.007 A 
ATOM     34  C   UNL     1      -1.488   4.665  25.289  0.00  0.00    +0.030 A 
ATOM     35  C   UNL     1      -0.760   4.808  24.928  0.00  0.00    +0.140 A 
ATOM     36  F   UNL     1      -0.400   5.546  25.004  0.00  0.00    -0.204 F 
ATOM     37  C   UNL     1      -0.391   4.213  24.493  0.00  0.00    +0.030 A 
ATOM     38  C   UNL     1      -0.750   3.474  24.417  0.00  0.00    +0.007 A 
ENDBRANCH  30  32
BRANCH   2   3
ATOM      3  C   UNL     1      -1.727  -2.064  24.711  0.00  0.00    +0.184 C 
ATOM      4  O   UNL     1      -1.174  -2.662  24.848  0.00  0.00    -0.220 OA
ENDBRANCH   2   3
BRANCH  11  12
ATOM     12  C   UNL     1      -4.062   0.124  24.239  0.00  0.00    +0.093 C 
BRANCH  12  13
ATOM     13  C   UNL     1      -4.507   0.426  24.866  0.00  0.00    +0.242 C 
ATOM     14  O   UNL     1      -4.502   0.043  25.597  0.00  0.00    -0.273 OA
ATOM     15  N   UNL     1      -4.956   1.109  24.761  0.00  0.00    -0.201 NA
BRANCH  15  16
ATOM     16  C   UNL     1      -5.400   1.411  25.387  0.00  0.00    +0.141 C 
BRANCH  16  17
ATOM     17  C   UNL     1      -5.497   2.226  25.469  0.00  0.00    -0.001 A 
ATOM     18  C   UNL     1      -5.334   2.590  26.191  0.00  0.00    -0.003 A 
ATOM     19  C   UNL     1      -5.431   3.405  26.273  0.00  0.00    -0.000 A 
ATOM     20  C   UNL     1      -5.691   3.856  25.633  0.00  0.00    -0.000 A 
ATOM     21  C   UNL     1      -5.854   3.491  24.912  0.00  0.00    -0.000 A 
ATOM     22  C   UNL     1      -5.757   2.676  24.830  0.00  0.00    -0.003 A 
ENDBRANCH  16  17
ENDBRANCH  15  16
ENDBRANCH  12  13
ENDBRANCH  11  12
TORSDOF 6
ENDMDL
MODEL 2
REMARK VINA RESULT:     -14.3      2.025      4.694
REMARK  Name = 
REMARK  6 active torsions:
REMARK  status: ('A' for Active; 'I' for Inactive)
REMARK    1  A    between atoms: C_2  and  C_3
REMARK    2  A    between atoms: C_11  and  C_12
REMARK    3  A    between atoms: C_12  and  C_13
REMARK    4  A    between atoms: N_15  and  C_16
REMARK    5  A    between atoms: C_16  and  C_17
REMARK    6  A    between atoms: C_30  and  C_32
REMARK                            x       y       z     vdW  Elec       q    Type
REMARK                         _______ _______ _______ _____ _____    ______ ____
ROOT
ATOM      1  C   UNL     1      -4.844   4.212  25.772  0.00  0.00    +0.005 C 
ATOM      2  C   UNL     1      -4.573   3.502  25.451  0.00  0.00    +0.059 C 
ATOM      5  C   UNL     1      -5.377   3.331  25.517  0.00  0.00    +0.154 C 
ATOM      6  O   UNL     1      -5.896   3.896  25.822  0.00  0.00    -0.223 OA
ATOM      7  C   UNL     1      -5.664   2.595  25.277  0.00  0.00    +0.033 C 
ATOM      8  C   UNL     1      -5.146   2.030  24.972  0.00  0.00    +0.003 C 
ATOM      9  C   UNL     1      -4.342   2.201  24.906  0.00  0.00    +0.006 C 
ATOM     10  C   UNL     1      -4.628   1.466  24.667  0.00  0.00    +0.000 C 
ATOM     11  C   UNL     1      -3.823   1.637  24.601  0.00  0.00    +0.050 C 
ATOM     23  C   UNL     1      -3.019   1.807  24.535  0.00  0.00    +0.063 A 
ATOM     24  C   UNL     1      -2.733   2.544  24.775  0.00  0.00    +0.023 A 
ATOM     25  C   UNL     1      -3.251   3.108  25.080  0.00  0.00    +0.034 C 
ATOM     26  C   UNL     1      -4.055   2.938  25.146  0.00  0.00    +0.010 C 
ATOM     27  S   UNL     1      -1.918   2.554  24.644  0.00  0.00    -0.054 S 
ATOM     28  C   UNL     1      -1.701   1.826  24.325  0.00  0.00    +0.185 A 
ATOM     29  N   UNL     1      -0.937   1.598  24.110  0.00  0.00    -0.151 NA
ATOM     30  C   UNL     1      -0.804   0.848  23.796  0.00  0.00    +0.271 C 
ATOM     31  O   UNL     1      -1.433   0.324  23.696  0.00  0.00    -0.268 OA
ATOM     39  N   UNL     1      -2.381   1.364  24.257  0.00  0.00    -0.227 NA
ENDROOT
BRANCH  30  32
ATOM     32  C   UNL     1      -0.040   0.621  23.582  0.00  0.00    +0.056 A 
ATOM     33  C   UNL     1       0.088  -0.115  23.230  0.00  0.00    +0.007 A 
ATOM     34  C   UNL     1       0.852  -0.342  23.015  0.00  0.00    +0.030 A 
ATOM     35  C   UNL     1       1.487   0.166  23.153  0.00  0.00    +0.140 A 
ATOM     36  F   UNL     1       2.250  -0.061  22.939  0.00  0.00    -0.204 F 
ATOM     37  C   UNL     1       1.359   0.901  23.504  0.00  0.00    +0.030 A 
ATOM     38  C   UNL     1       0.596   1.128  23.719  0.00  0.00    +0.007 A 
ENDBRANCH  30  32
BRANCH   2   3
ATOM      3  C   UNL     1      -3.863   3.919  25.497  0.00  0.00    +0.184 C 
ATOM      4  O   UNL     1      -3.831   4.634  25.909  0.00  0.00    -0.220 OA
ENDBRANCH   2   3
BRANCH  11  12
ATOM     12  C   UNL     1      -4.110   0.901  24.361  0.00  0.00    +0.093 C 
BRANCH  12  13
ATOM     13  C   UNL     1      -4.020   0.243  24.852  0.00  0.00    +0.242 C 
ATOM     14  O   UNL     1      -3.959   0.344  25.669  0.00  0.00    -0.273 OA
ATOM     15  N   UNL     1      -3.991  -0.513  24.527  0.00  0.00    -0.201 NA
BRANCH  15  16
ATOM     16  C   UNL     1      -3.901  -1.171  25.017  0.00  0.00    +0.141 C 
BRANCH  16  17
ATOM     17  C   UNL     1      -3.667  -1.895  24.698  0.00  0.00    -0.001 A 
ATOM     18  C   UNL     1      -2.973  -2.255  24.960  0.00  0.00    -0.003 A 
ATOM     19  C   UNL     1      -2.739  -2.979  24.641  0.00  0.00    -0.000 A 
ATOM     20  C   UNL     1      -3.198  -3.343  24.061  0.00  0.00    -0.000 A 
ATOM     21  C   UNL     1      -3.892  -2.982  23.799  0.00  0.00    -0.000 A 
ATOM     22  C   UNL     1      -4.127  -2.258  24.118  0.00  0.00    -0.003 A 
ENDBRANCH  16  17
ENDBRANCH  15  16
ENDBRANCH  12  13
ENDBRANCH  11  12
TORSDOF 6
ENDMDL
MODEL 3
REMARK VINA RESULT:     -14.0      1.397      3.457
REMARK  Name = 
REMARK  6 active torsions:
REMARK  status: ('A' for Active; 'I' for Inactive)
REMARK    1  A    between atoms: C_2  and  C_3
REMARK    2  A    between atoms: C_11  and  C_12
REMARK    3  A    between atoms: C_12  and  C_13
REMARK    4  A    between atoms: N_15  and  C_16
REMARK    5  A    between atoms: C_16  and  C_17
REMARK    6  A    between atoms: C_30  and  C_32
REMARK                            x       y       z     vdW  Elec       q    Type
REMARK                         _______ _______ _______ _____ _____    ______ ____
ROOT
ATOM      1  C   UNL     1      -3.360  -3.149  24.065  0.00  0.00    +0.005 C 
ATOM      2  C   UNL     1      -3.141  -2.398  24.328  0.00  0.00    +0.059 C 
ATOM      5  C   UNL     1      -2.420  -2.790  24.400  0.00  0.00    +0.154 C 
ATOM      6  O   UNL     1      -2.360  -3.587  24.194  0.00  0.00    -0.223 OA
ATOM      7  C   UNL     1      -1.756  -2.386  24.679  0.00  0.00    +0.033 C 
ATOM      8  C   UNL     1      -1.814  -1.590  24.884  0.00  0.00    +0.003 C 
ATOM      9  C   UNL     1      -2.536  -1.197  24.812  0.00  0.00    +0.006 C 
ATOM     10  C   UNL     1      -1.873  -0.794  25.090  0.00  0.00    +0.000 C 
ATOM     11  C   UNL     1      -2.595  -0.400  25.018  0.00  0.00    +0.050 C 
ATOM     23  C   UNL     1      -3.316  -0.008  24.945  0.00  0.00    +0.063 A 
ATOM     24  C   UNL     1      -3.980  -0.412  24.667  0.00  0.00    +0.023 A 
ATOM     25  C   UNL     1      -3.922  -1.208  24.461  0.00  0.00    +0.034 C 
ATOM     26  C   UNL     1      -3.200  -1.602  24.533  0.00  0.00    +0.010 C 
ATOM     27  S   UNL     1      -4.613   0.117  24.654  0.00  0.00    -0.054 S 
ATOM     28  C   UNL     1      -4.342   0.847  24.925  0.00  0.00    +0.185 A 
ATOM     29  N   UNL     1      -4.793   1.534  25.002  0.00  0.00    -0.151 NA
ATOM     30  C   UNL     1      -4.444   2.227  25.281  0.00  0.00    +0.271 C 
ATOM     31  O   UNL     1      -3.644   2.234  25.483  0.00  0.00    -0.268 OA
ATOM     39  N   UNL     1      -3.541   0.770  25.104  0.00  0.00    -0.227 NA
ENDROOT
BRANCH  30  32
ATOM     32  C   UNL     1      -4.894   2.913  25.358  0.00  0.00    +0.056 A 
ATOM     33  C   UNL     1      -4.568   3.646  25.161  0.00  0.00    +0.007 A 
ATOM     34  C   UNL     1      -5.018   4.333  25.238  0.00  0.00    +0.030 A 
ATOM     35  C   UNL     1      -5.795   4.287  25.512  0.00  0.00    +0.140 A 
ATOM     36  F   UNL     1      -6.246   4.974  25.589  0.00  0.00    -0.204 F 
ATOM     37  C   UNL     1      -6.122   3.556  25.708  0.00  0.00    +0.030 A 
ATOM     38  C   UNL     1      -5.671   2.869  25.631  0.00  0.00    +0.007 A 
ENDBRANCH  30  32
BRANCH   2   3
ATOM      3  C   UNL     1      -3.939  -2.266  24.164  0.00  0.00    +0.184 C 
ATOM      4  O   UNL     1      -4.402  -2.874  23.852  0.00  0.00    -0.220 OA
ENDBRANCH   2   3
BRANCH  11  12
ATOM     12  C   UNL     1      -1.932   0.004  25.296  0.00  0.00    +0.093 C 
BRANCH  12  13
ATOM     13  C   UNL     1      -1.524   0.521  24.797  0.00  0.00    +0.242 C 
ATOM     14  O   UNL     1      -1.495   0.374  23.986  0.00  0.00    -0.273 OA
ATOM     15  N   UNL     1      -1.147   1.184  25.111  0.00  0.00    -0.201 NA
BRANCH  15  16
ATOM     16  C   UNL     1      -0.740   1.701  24.613  0.00  0.00    +0.141 C 
BRANCH  16  17
ATOM     17  C   UNL     1      -0.647   2.492  24.827  0.00  0.00    -0.001 A 
ATOM     18  C   UNL     1      -0.811   3.088  24.282  0.00  0.00    -0.003 A 
ATOM     19  C   UNL     1      -0.719   3.879  24.495  0.00  0.00    -0.000 A 
ATOM     20  C   UNL     1      -0.462   4.075  25.254  0.00  0.00    -0.000 A 
ATOM     21  C   UNL     1      -0.298   3.478  25.799  0.00  0.00    -0.000 A 
ATOM     22  C   UNL     1      -0.390   2.687  25.586  0.00  0.00    -0.003 A 
ENDBRANCH  16  17
ENDBRANCH  15  16
ENDBRANCH  12  13
ENDBRANCH  11  12
TORSDOF 6
ENDMDL
MODEL 4
REMARK VINA RESULT:     -13.7      2.194      4.205
REMARK  Name = 
REMARK  6 active torsions:
REMARK  status: ('A' for Active; 'I' for Inactive)
REMARK    1  A    between atoms: C_2  and  C_3
REMARK    2  A    between atoms: C_11  and  C_12
REMARK    3  A    between atoms: C_12  and  C_13
REMARK    4  A    between atoms: N_15  and  C_16
REMARK    5  A    between atoms: C_16  and  C_17
REMARK    6  A    between atoms: C_30  and  C_32
REMARK                            x       y       z     vdW  Elec       q    Type
REMARK                         _______ _______ _______ _____ _____    ______ ____
ROOT
ATOM      1  C   UNL     1      -3.592  -2.343  24.784  0.00  0.00    +0.005 C 
ATOM      2  C   UNL     1      -2.959  -1.816  24.739  0.00  0.00    +0.059 C 
ATOM      5  C   UNL     1      -2.562  -2.529  24.618  0.00  0.00    +0.154 C 
ATOM      6  O   UNL     1      -2.980  -3.240  24.615  0.00  0.00    -0.223 OA
ATOM      7  C   UNL     1      -1.745  -2.530  24.499  0.00  0.00    +0.033 C 
ATOM      8  C   UNL     1      -1.326  -1.820  24.501  0.00  0.00    +0.003 C 
ATOM      9  C   UNL     1      -1.724  -1.108  24.622  0.00  0.00    +0.006 C 
ATOM     10  C   UNL     1      -0.908  -1.110  24.504  0.00  0.00    +0.000 C 
ATOM     11  C   UNL     1      -1.305  -0.396  24.625  0.00  0.00    +0.050 C 
ATOM     23  C   UNL     1      -1.703   0.316  24.746  0.00  0.00    +0.063 A 
ATOM     24  C   UNL     1      -2.520   0.317  24.865  0.00  0.00    +0.023 A 
ATOM     25  C   UNL     1      -2.938  -0.393  24.863  0.00  0.00    +0.034 C 
ATOM     26  C   UNL     1      -2.541  -1.106  24.742  0.00  0.00    +0.010 C 
ATOM     27  S   UNL     1      -2.760   1.100  24.970  0.00  0.00    -0.054 S 
ATOM     28  C   UNL     1      -2.093   1.582  24.916  0.00  0.00    +0.185 A 
ATOM     29  N   UNL     1      -2.080   2.403  24.987  0.00  0.00    -0.151 NA
ATOM     30  C   UNL     1      -1.368   2.812  24.920  0.00  0.00    +0.271 C 
ATOM     31  O   UNL     1      -0.666   2.400  24.781  0.00  0.00    -0.268 OA
ATOM     39  N   UNL     1      -1.440   1.097  24.778  0.00  0.00    -0.227 NA
ENDROOT
BRANCH  30  32
ATOM     32  C   UNL     1      -1.356   3.634  24.992  0.00  0.00    +0.056 A 
ATOM     33  C   UNL     1      -1.966   4.023  25.389  0.00  0.00    +0.007 A 
ATOM     34  C   UNL     1      -1.954   4.845  25.461  0.00  0.00    +0.030 A 
ATOM     35  C   UNL     1      -1.331   5.278  25.135  0.00  0.00    +0.140 A 
ATOM     36  F   UNL     1      -1.319   6.100  25.206  0.00  0.00    -0.204 F 
ATOM     37  C   UNL     1      -0.722   4.890  24.738  0.00  0.00    +0.030 A 
ATOM     38  C   UNL     1      -0.734   4.068  24.667  0.00  0.00    +0.007 A 
ENDBRANCH  30  32
BRANCH   2   3
ATOM      3  C   UNL     1      -3.577  -1.287  24.876  0.00  0.00    +0.184 C 
ATOM      4  O   UNL     1      -4.359  -1.548  24.843  0.00  0.00    -0.220 OA
ENDBRANCH   2   3
BRANCH  11  12
ATOM     12  C   UNL     1      -0.489  -0.398  24.506  0.00  0.00    +0.093 C 
BRANCH  12  13
ATOM     13  C   UNL     1      -0.179  -0.189  23.770  0.00  0.00    +0.242 C 
ATOM     14  O   UNL     1      -0.681  -0.096  23.122  0.00  0.00    -0.273 OA
ATOM     15  N   UNL     1       0.633  -0.075  23.682  0.00  0.00    -0.201 NA
BRANCH  15  16
ATOM     16  C   UNL     1       0.943   0.134  22.947  0.00  0.00    +0.141 C 
BRANCH  16  17
ATOM     17  C   UNL     1       1.750   0.288  22.868  0.00  0.00    -0.001 A 
ATOM     18  C   UNL     1       2.077   0.959  23.217  0.00  0.00    -0.003 A 
ATOM     19  C   UNL     1       2.884   1.113  23.138  0.00  0.00    -0.000 A 
ATOM     20  C   UNL     1       3.363   0.596  22.710  0.00  0.00    -0.000 A 
ATOM     21  C   UNL     1       3.035  -0.076  22.362  0.00  0.00    -0.000 A 
ATOM     22  C   UNL     1       2.228  -0.230  22.441  0.00  0.00    -0.003 A 
ENDBRANCH  16  17
ENDBRANCH  15  16
ENDBRANCH  12  13
ENDBRANCH  11  12
TORSDOF 6
ENDMDL
MODEL 5
REMARK VINA RESULT:     -13.6      2.633      6.228
REMARK  Name = 
REMARK  6 active torsions:
REMARK  status: ('A' for Active; 'I' for Inactive)
REMARK    1  A    between atoms: C_2  and  C_3
REMARK    2  A    between atoms: C_11  and  C_12
REMARK    3  A    between atoms: C_12  and  C_13
REMARK    4  A    between atoms: N_15  and  C_16
REMARK    5  A    between atoms: C_16  and  C_17
REMARK    6  A    between atoms: C_30  and  C_32
REMARK                            x       y       z     vdW  Elec       q    Type
REMARK                         _______ _______ _______ _____ _____    ______ ____
ROOT
ATOM      1  C   UNL     1      -2.355   4.897  25.809  0.00  0.00    +0.005 C 
ATOM      2  C   UNL     1      -2.111   4.221  25.404  0.00  0.00    +0.059 C 
ATOM      5  C   UNL     1      -1.528   4.752  25.161  0.00  0.00    +0.154 C 
ATOM      6  O   UNL     1      -1.541   5.532  25.432  0.00  0.00    -0.223 OA
ATOM      7  C   UNL     1      -0.932   4.504  24.647  0.00  0.00    +0.033 C 
ATOM      8  C   UNL     1      -0.920   3.725  24.376  0.00  0.00    +0.003 C 
ATOM      9  C   UNL     1      -1.502   3.194  24.619  0.00  0.00    +0.006 C 
ATOM     10  C   UNL     1      -0.907   2.947  24.105  0.00  0.00    +0.000 C 
ATOM     11  C   UNL     1      -1.489   2.415  24.348  0.00  0.00    +0.050 C 
ATOM     23  C   UNL     1      -2.072   1.884  24.591  0.00  0.00    +0.063 A 
ATOM     24  C   UNL     1      -2.668   2.133  25.106  0.00  0.00    +0.023 A 
ATOM     25  C   UNL     1      -2.680   2.911  25.376  0.00  0.00    +0.034 C 
ATOM     26  C   UNL     1      -2.098   3.443  25.134  0.00  0.00    +0.010 C 
ATOM     27  S   UNL     1      -3.164   1.489  25.249  0.00  0.00    -0.054 S 
ATOM     28  C   UNL     1      -2.876   0.844  24.824  0.00  0.00    +0.185 A 
ATOM     29  N   UNL     1      -3.205   0.088  24.807  0.00  0.00    -0.151 NA
ATOM     30  C   UNL     1      -2.854  -0.505  24.354  0.00  0.00    +0.271 C 
ATOM     31  O   UNL     1      -2.174  -0.342  23.917  0.00  0.00    -0.268 OA
ATOM     39  N   UNL     1      -2.201   1.088  24.417  0.00  0.00    -0.227 NA
ENDROOT
BRANCH  30  32
ATOM     32  C   UNL     1      -3.183  -1.261  24.338  0.00  0.00    +0.056 A 
ATOM     33  C   UNL     1      -2.807  -1.883  24.730  0.00  0.00    +0.007 A 
ATOM     34  C   UNL     1      -3.136  -2.640  24.714  0.00  0.00    +0.030 A 
ATOM     35  C   UNL     1      -3.841  -2.774  24.306  0.00  0.00    +0.140 A 
ATOM     36  F   UNL     1      -4.170  -3.530  24.290  0.00  0.00    -0.204 F 
ATOM     37  C   UNL     1      -4.216  -2.153  23.915  0.00  0.00    +0.030 A 
ATOM     38  C   UNL     1      -3.887  -1.397  23.931  0.00  0.00    +0.007 A 
ENDBRANCH  30  32
BRANCH   2   3
ATOM      3  C   UNL     1      -2.778   3.925  25.788  0.00  0.00    +0.184 C 
ATOM      4  O   UNL     1      -3.188   4.398  26.326  0.00  0.00    -0.220 OA
ENDBRANCH   2   3
BRANCH  11  12
ATOM     12  C   UNL     1      -0.894   2.167  23.834  0.00  0.00    +0.093 C 
BRANCH  12  13
ATOM     13  C   UNL     1      -0.271   1.704  24.116  0.00  0.00    +0.242 C 
ATOM     14  O   UNL     1      -0.134   1.648  24.927  0.00  0.00    -0.273 OA
ATOM     15  N   UNL     1       0.213   1.298  23.587  0.00  0.00    -0.201 NA
BRANCH  15  16
ATOM     16  C   UNL     1       0.836   0.836  23.868  0.00  0.00    +0.141 C 
BRANCH  16  17
ATOM     17  C   UNL     1       1.387   0.521  23.341  0.00  0.00    -0.001 A 
ATOM     18  C   UNL     1       2.157   0.815  23.327  0.00  0.00    -0.003 A 
ATOM     19  C   UNL     1       2.709   0.500  22.800  0.00  0.00    -0.000 A 
ATOM     20  C   UNL     1       2.490  -0.109  22.288  0.00  0.00    -0.000 A 
ATOM     21  C   UNL     1       1.719  -0.402  22.303  0.00  0.00    -0.000 A 
ATOM     22  C   UNL     1       1.168  -0.087  22.830  0.00  0.00    -0.003 A 
ENDBRANCH  16  17
ENDBRANCH  15  16
ENDBRANCH  12  13
ENDBRANCH  11  12
TORSDOF 6
ENDMDL
MODEL 6
REMARK VINA RESULT:     -13.5      2.630      3.732
REMARK  Name = 
REMARK  6 active torsions:
REMARK  status: ('A' for Active; 'I' for Inactive)
REMARK    1  A    between atoms: C_2  and  C_3
REMARK    2  A    between atoms: C_11  and  C_12
REMARK    3  A    between atoms: C_12  and  C_13
REMARK    4  A    between atoms: N_15  and  C_16
REMARK    5  A    between atoms: C_16  and  C_17
REMARK    6  A    between atoms: C_30  and  C_32
REMARK                            x       y       z     vdW  Elec       q    Type
REMARK                         _______ _______ _______ _____ _____    ______ ____
ROOT
ATOM      1  C   UNL     1      -3.358  -2.157  25.283  0.00  0.00    +0.005 C 
ATOM      2  C   UNL     1      -2.936  -1.489  25.044  0.00  0.00    +0.059 C 
ATOM      5  C   UNL     1      -3.648  -1.137  25.265  0.00  0.00    +0.154 C 
ATOM      6  O   UNL     1      -4.267  -1.601  25.551  0.00  0.00    -0.223 OA
ATOM      7  C   UNL     1      -3.742  -0.319  25.198  0.00  0.00    +0.033 C 
ATOM      8  C   UNL     1      -3.123   0.145  24.912  0.00  0.00    +0.003 C 
ATOM      9  C   UNL     1      -2.411  -0.207  24.692  0.00  0.00    +0.006 C 
ATOM     10  C   UNL     1      -2.505   0.609  24.625  0.00  0.00    +0.000 C 
ATOM     11  C   UNL     1      -1.792   0.256  24.405  0.00  0.00    +0.050 C 
ATOM     23  C   UNL     1      -1.080  -0.096  24.184  0.00  0.00    +0.063 A 
ATOM     24  C   UNL     1      -0.986  -0.914  24.251  0.00  0.00    +0.023 A 
ATOM     25  C   UNL     1      -1.604  -1.377  24.537  0.00  0.00    +0.034 C 
ATOM     26  C   UNL     1      -2.317  -1.025  24.758  0.00  0.00    +0.010 C 
ATOM     27  S   UNL     1      -0.226  -1.104  23.993  0.00  0.00    -0.054 S 
ATOM     28  C   UNL     1       0.150  -0.405  23.767  0.00  0.00    +0.185 A 
ATOM     29  N   UNL     1       0.919  -0.341  23.474  0.00  0.00    -0.151 NA
ATOM     30  C   UNL     1       1.221   0.398  23.271  0.00  0.00    +0.271 C 
ATOM     31  O   UNL     1       0.756   1.074  23.359  0.00  0.00    -0.268 OA
ATOM     39  N   UNL     1      -0.378   0.217  23.886  0.00  0.00    -0.227 NA
ENDROOT
BRANCH  30  32
ATOM     32  C   UNL     1       1.990   0.463  22.978  0.00  0.00    +0.056 A 
ATOM     33  C   UNL     1       2.230  -0.004  22.341  0.00  0.00    +0.007 A 
ATOM     34  C   UNL     1       2.998   0.060  22.048  0.00  0.00    +0.030 A 
ATOM     35  C   UNL     1       3.527   0.592  22.392  0.00  0.00    +0.140 A 
ATOM     36  F   UNL     1       4.296   0.656  22.100  0.00  0.00    -0.204 F 
ATOM     37  C   UNL     1       3.288   1.059  23.028  0.00  0.00    +0.030 A 
ATOM     38  C   UNL     1       2.519   0.994  23.321  0.00  0.00    +0.007 A 
ENDBRANCH  30  32
BRANCH   2   3
ATOM      3  C   UNL     1      -2.370  -2.074  24.907  0.00  0.00    +0.184 C 
ATOM      4  O   UNL     1      -2.571  -2.870  24.991  0.00  0.00    -0.220 OA
ENDBRANCH   2   3
BRANCH  11  12
ATOM     12  C   UNL     1      -1.886   1.073  24.339  0.00  0.00    +0.093 C 
BRANCH  12  13
ATOM     13  C   UNL     1      -1.558   1.574  24.907  0.00  0.00    +0.242 C 
ATOM     14  O   UNL     1      -1.232   1.258  25.596  0.00  0.00    -0.273 OA
ATOM     15  N   UNL     1      -1.556   2.389  24.787  0.00  0.00    -0.201 NA
BRANCH  15  16
ATOM     16  C   UNL     1      -1.229   2.890  25.355  0.00  0.00    +0.141 C 
BRANCH  16  17
ATOM     17  C   UNL     1      -1.269   3.708  25.256  0.00  0.00    -0.001 A 
ATOM     18  C   UNL     1      -1.922   4.126  25.535  0.00  0.00    -0.003 A 
ATOM     19  C   UNL     1      -1.962   4.944  25.437  0.00  0.00    -0.000 A 
ATOM     20  C   UNL     1      -1.348   5.345  25.059  0.00  0.00    -0.000 A 
ATOM     21  C   UNL     1      -0.694   4.926  24.780  0.00  0.00    -0.000 A 
ATOM     22  C   UNL     1      -0.654   4.108  24.879  0.00  0.00    -0.003 A 
ENDBRANCH  16  17
ENDBRANCH  15  16
ENDBRANCH  12  13
ENDBRANCH  11  12
TORSDOF 6
ENDMDL
MODEL 7
REMARK VINA RESULT:     -13.1      1.970      5.024
REMARK  Name = 
REMARK  6 active torsions:
REMARK  status: ('A' for Active; 'I' for Inactive)
REMARK    1  A    between atoms: C_2  and  C_3
REMARK    2  A    between atoms: C_11  and  C_12
REMARK    3  A    between atoms: C_12  and  C_13
REMARK    4  A    between atoms: N_15  and  C_16
REMARK    5  A    between atoms: C_16  and  C_17
REMARK    6  A    between atoms: C_30  and  C_32
REMARK                            x       y       z     vdW  Elec       q    Type
REMARK                         _______ _______ _______ _____ _____    ______ ____
ROOT
ATOM      1  C   UNL     1       0.011   4.657  24.234  0.00  0.00    +0.005 C 
ATOM      2  C   UNL     1      -0.634   4.232  24.523  0.00  0.00    +0.059 C 
ATOM      5  C   UNL     1      -0.796   4.974  24.843  0.00  0.00    +0.154 C 
ATOM      6  O   UNL     1      -0.286   5.607  24.701  0.00  0.00    -0.223 OA
ATOM      7  C   UNL     1      -1.470   5.085  25.308  0.00  0.00    +0.033 C 
ATOM      8  C   UNL     1      -1.981   4.454  25.450  0.00  0.00    +0.003 C 
ATOM      9  C   UNL     1      -1.818   3.712  25.130  0.00  0.00    +0.006 C 
ATOM     10  C   UNL     1      -2.491   3.822  25.593  0.00  0.00    +0.000 C 
ATOM     11  C   UNL     1      -2.329   3.079  25.273  0.00  0.00    +0.050 C 
ATOM     23  C   UNL     1      -2.167   2.337  24.953  0.00  0.00    +0.063 A 
ATOM     24  C   UNL     1      -1.493   2.226  24.488  0.00  0.00    +0.023 A 
ATOM     25  C   UNL     1      -0.982   2.858  24.346  0.00  0.00    +0.034 C 
ATOM     26  C   UNL     1      -1.144   3.601  24.666  0.00  0.00    +0.010 C 
ATOM     27  S   UNL     1      -1.477   1.437  24.248  0.00  0.00    -0.054 S 
ATOM     28  C   UNL     1      -2.139   1.060  24.563  0.00  0.00    +0.185 A 
ATOM     29  N   UNL     1      -2.341   0.267  24.460  0.00  0.00    -0.151 NA
ATOM     30  C   UNL     1      -3.024  -0.034  24.810  0.00  0.00    +0.271 C 
ATOM     31  O   UNL     1      -3.507   0.459  25.263  0.00  0.00    -0.268 OA
ATOM     39  N   UNL     1      -2.566   1.616  24.998  0.00  0.00    -0.227 NA
ENDROOT
BRANCH  30  32
ATOM     32  C   UNL     1      -3.225  -0.827  24.708  0.00  0.00    +0.056 A 
ATOM     33  C   UNL     1      -2.832  -1.412  25.139  0.00  0.00    +0.007 A 
ATOM     34  C   UNL     1      -3.033  -2.205  25.036  0.00  0.00    +0.030 A 
ATOM     35  C   UNL     1      -3.627  -2.414  24.503  0.00  0.00    +0.140 A 
ATOM     36  F   UNL     1      -3.828  -3.208  24.400  0.00  0.00    -0.204 F 
ATOM     37  C   UNL     1      -4.019  -1.831  24.072  0.00  0.00    +0.030 A 
ATOM     38  C   UNL     1      -3.818  -1.037  24.175  0.00  0.00    +0.007 A 
ENDBRANCH  30  32
BRANCH   2   3
ATOM      3  C   UNL     1      -0.247   3.637  24.102  0.00  0.00    +0.184 C 
ATOM      4  O   UNL     1       0.424   3.817  23.657  0.00  0.00    -0.220 OA
ENDBRANCH   2   3
BRANCH  11  12
ATOM     12  C   UNL     1      -3.002   3.190  25.736  0.00  0.00    +0.093 C 
BRANCH  12  13
ATOM     13  C   UNL     1      -3.739   3.290  25.377  0.00  0.00    +0.242 C 
ATOM     14  O   UNL     1      -3.791   3.655  24.639  0.00  0.00    -0.273 OA
ATOM     15  N   UNL     1      -4.422   3.026  25.756  0.00  0.00    -0.201 NA
BRANCH  15  16
ATOM     16  C   UNL     1      -5.158   3.126  25.398  0.00  0.00    +0.141 C 
BRANCH  16  17
ATOM     17  C   UNL     1      -5.737   2.543  25.474  0.00  0.00    -0.001 A 
ATOM     18  C   UNL     1      -6.050   2.183  24.801  0.00  0.00    -0.003 A 
ATOM     19  C   UNL     1      -6.629   1.600  24.877  0.00  0.00    -0.000 A 
ATOM     20  C   UNL     1      -6.894   1.377  25.625  0.00  0.00    -0.000 A 
ATOM     21  C   UNL     1      -6.580   1.736  26.298  0.00  0.00    -0.000 A 
ATOM     22  C   UNL     1      -6.001   2.319  26.222  0.00  0.00    -0.003 A 
ENDBRANCH  16  17
ENDBRANCH  15  16
ENDBRANCH  12  13
ENDBRANCH  11  12
TORSDOF 6
ENDMDL
MODEL 8
REMARK VINA RESULT:     -12.7      2.406      5.863
REMARK  Name = 
REMARK  6 active torsions:
REMARK  status: ('A' for Active; 'I' for Inactive)
REMARK    1  A    between atoms: C_2  and  C_3
REMARK    2  A    between atoms: C_11  and  C_12
REMARK    3  A    between atoms: C_12  and  C_13
REMARK    4  A    between atoms: N_15  and  C_16
REMARK    5  A    between atoms: C_16  and  C_17
REMARK    6  A    between atoms: C_30  and  C_32
REMARK                            x       y       z     vdW  Elec       q    Type
REMARK                         _______ _______ _______ _____ _____    ______ ____
ROOT
ATOM      1  C   UNL     1      -5.566   4.176  25.611  0.00  0.00    +0.005 C 
ATOM      2  C   UNL     1      -5.007   3.654  25.302  0.00  0.00    +0.059 C 
ATOM      5  C   UNL     1      -4.631   4.372  25.151  0.00  0.00    +0.154 C 
ATOM      6  O   UNL     1      -4.992   5.082  25.370  0.00  0.00    -0.223 OA
ATOM      7  C   UNL     1      -3.894   4.382  24.780  0.00  0.00    +0.033 C 
ATOM      8  C   UNL     1      -3.533   3.674  24.561  0.00  0.00    +0.003 C 
ATOM      9  C   UNL     1      -3.909   2.956  24.711  0.00  0.00    +0.006 C 
ATOM     10  C   UNL     1      -3.173   2.966  24.341  0.00  0.00    +0.000 C 
ATOM     11  C   UNL     1      -3.549   2.247  24.492  0.00  0.00    +0.050 C 
ATOM     23  C   UNL     1      -3.924   1.529  24.643  0.00  0.00    +0.063 A 
ATOM     24  C   UNL     1      -4.662   1.519  25.014  0.00  0.00    +0.023 A 
ATOM     25  C   UNL     1      -5.023   2.227  25.233  0.00  0.00    +0.034 C 
ATOM     26  C   UNL     1      -4.647   2.946  25.082  0.00  0.00    +0.010 C 
ATOM     27  S   UNL     1      -4.898   0.732  25.090  0.00  0.00    -0.054 S 
ATOM     28  C   UNL     1      -4.307   0.255  24.767  0.00  0.00    +0.185 A 
ATOM     29  N   UNL     1      -4.316  -0.569  24.728  0.00  0.00    -0.151 NA
ATOM     30  C   UNL     1      -3.683  -0.972  24.387  0.00  0.00    +0.271 C 
ATOM     31  O   UNL     1      -3.039  -0.552  24.086  0.00  0.00    -0.268 OA
ATOM     39  N   UNL     1      -3.706   0.748  24.491  0.00  0.00    -0.227 NA
ENDROOT
BRANCH  30  32
ATOM     32  C   UNL     1      -3.692  -1.796  24.347  0.00  0.00    +0.056 A 
ATOM     33  C   UNL     1      -4.214  -2.179  23.836  0.00  0.00    +0.007 A 
ATOM     34  C   UNL     1      -4.223  -3.003  23.796  0.00  0.00    +0.030 A 
ATOM     35  C   UNL     1      -3.709  -3.444  24.268  0.00  0.00    +0.140 A 
ATOM     36  F   UNL     1      -3.718  -4.268  24.229  0.00  0.00    -0.204 F 
ATOM     37  C   UNL     1      -3.187  -3.061  24.779  0.00  0.00    +0.030 A 
ATOM     38  C   UNL     1      -3.178  -2.237  24.819  0.00  0.00    +0.007 A 
ENDBRANCH  30  32
BRANCH   2   3
ATOM      3  C   UNL     1      -5.578   3.117  25.560  0.00  0.00    +0.184 C 
ATOM      4  O   UNL     1      -6.253   3.388  25.949  0.00  0.00    -0.220 OA
ENDBRANCH   2   3
BRANCH  11  12
ATOM     12  C   UNL     1      -2.812   2.257  24.121  0.00  0.00    +0.093 C 
BRANCH  12  13
ATOM     13  C   UNL     1      -2.135   2.039  24.542  0.00  0.00    +0.242 C 
ATOM     14  O   UNL     1      -2.127   2.093  25.365  0.00  0.00    -0.273 OA
ATOM     15  N   UNL     1      -1.469   1.769  24.139  0.00  0.00    -0.201 NA
BRANCH  15  16
ATOM     16  C   UNL     1      -0.793   1.551  24.559  0.00  0.00    +0.141 C 
BRANCH  16  17
ATOM     17  C   UNL     1      -0.143   1.237  24.160  0.00  0.00    -0.001 A 
ATOM     18  C   UNL     1       0.541   1.688  24.066  0.00  0.00    -0.003 A 
ATOM     19  C   UNL     1       1.191   1.373  23.668  0.00  0.00    -0.000 A 
ATOM     20  C   UNL     1       1.158   0.608  23.363  0.00  0.00    -0.000 A 
ATOM     21  C   UNL     1       0.473   0.157  23.456  0.00  0.00    -0.000 A 
ATOM     22  C   UNL     1      -0.177   0.472  23.855  0.00  0.00    -0.003 A 
ENDBRANCH  16  17
ENDBRANCH  15  16
ENDBRANCH  12  13
ENDBRANCH  11  12
TORSDOF 6
ENDMDL
