MODEL 1
REMARK VINA RESULT:     -12.3      0.000      0.000
REMARK  Name = 
REMARK  6 active torsions:
REMARK  status: ('A' for Active; 'I' for Inactive)
REMARK    1  A    between atoms: C_4  and  C_14
REMARK    2  A    between atoms: N_5  and  C_6
REMARK    3  A    between atoms: C_6  and  C_7
REMARK    4  A    between atoms: C_16  and  C_19
REMARK    5  A    between atoms: C_22  and  O_23
REMARK    6  A    between atoms: O_23  and  C_24
REMARK                            x       y       z     vdW  Elec       q    Type
REMARK                         _______ _______ _______ _____ _____    ______ ____
ROOT
ATOM     14  C   UNL     1      -4.187   1.813  24.556  0.00  0.00    +0.251 A 
ATOM     15  N   UNL     1      -4.120   1.102  24.969  0.00  0.00    -0.190 NA
ATOM     16  C   UNL     1      -3.981   0.501  24.420  0.00  0.00    +0.203 A 
ATOM     17  N   UNL     1      -3.963   0.840  23.669  0.00  0.00    -0.056 NA
ATOM     18  O   UNL     1      -4.091   1.652  23.752  0.00  0.00    -0.336 OA
ENDROOT
BRANCH  14   4
ATOM      1  O   UNL     1      -5.492   4.047  25.874  0.00  0.00    -0.222 OA
ATOM      2  C   UNL     1      -4.926   3.582  25.493  0.00  0.00    +0.170 C 
ATOM      3  C   UNL     1      -5.032   2.805  25.237  0.00  0.00    +0.060 C 
ATOM      4  C   UNL     1      -4.327   2.555  24.888  0.00  0.00    +0.140 C 
ATOM      5  N   UNL     1      -3.787   3.177  24.930  0.00  0.00    -0.264 NA
ATOM     13  C   UNL     1      -4.158   3.812  25.304  0.00  0.00    +0.106 C 
BRANCH   5   6
ATOM      6  C   UNL     1      -3.012   3.167  24.647  0.00  0.00    +0.073 C 
BRANCH   6   7
ATOM      7  C   UNL     1      -2.463   3.715  24.927  0.00  0.00    +0.016 C 
ATOM      8  C   UNL     1      -2.400   4.455  24.567  0.00  0.00    +0.001 C 
ATOM      9  C   UNL     1      -1.850   5.003  24.848  0.00  0.00    +0.000 C 
ATOM     10  C   UNL     1      -1.365   4.811  25.487  0.00  0.00    +0.000 C 
ATOM     11  C   UNL     1      -1.429   4.071  25.846  0.00  0.00    +0.000 C 
ATOM     12  C   UNL     1      -1.978   3.523  25.565  0.00  0.00    +0.001 C 
ENDBRANCH   6   7
ENDBRANCH   5   6
ENDBRANCH  14   4
BRANCH  16  19
ATOM     19  C   UNL     1      -3.879  -0.300  24.593  0.00  0.00    +0.039 A 
ATOM     20  C   UNL     1      -4.224  -0.873  24.111  0.00  0.00    +0.006 A 
ATOM     21  C   UNL     1      -4.121  -1.673  24.284  0.00  0.00    +0.037 A 
ATOM     22  C   UNL     1      -3.674  -1.900  24.939  0.00  0.00    +0.147 A 
ATOM     28  C   UNL     1      -3.330  -1.326  25.422  0.00  0.00    +0.037 A 
ATOM     29  C   UNL     1      -3.432  -0.526  25.249  0.00  0.00    +0.006 A 
BRANCH  22  23
ATOM     23  O   UNL     1      -3.572  -2.699  25.113  0.00  0.00    -0.404 OA
BRANCH  23  24
ATOM     24  C   UNL     1      -3.163  -3.186  24.587  0.00  0.00    +0.575 C 
ATOM     25  F   UNL     1      -2.755  -3.673  24.060  0.00  0.00    -0.133 F 
ATOM     26  F   UNL     1      -3.879  -3.432  24.257  0.00  0.00    -0.133 F 
ATOM     27  F   UNL     1      -2.448  -2.941  24.914  0.00  0.00    -0.133 F 
ENDBRANCH  23  24
ENDBRANCH  22  23
ENDBRANCH  16  19
TORSDOF 6
ENDMDL
MODEL 2
REMARK VINA RESULT:     -12.2      2.055      2.729
REMARK  Name = 
REMARK  6 active torsions:
REMARK  status: ('A' for Active; 'I' for Inactive)
REMARK    1  A    between atoms: C_4  and  C_14
REMARK    2  A    between atoms: N_5  and  C_6
REMARK    3  A    between atoms: C_6  and  C_7
REMARK    4  A    between atoms: C_16  and  C_19
REMARK    5  A    between atoms: C_22  and  O_23
REMARK    6  A    between atoms: O_23  and  C_24
REMARK                            x       y       z     vdW  Elec       q    Type
REMARK                         _______ _______ _______ _____ _____    ______ ____
ROOT
ATOM     14  C   UNL     1      -0.913   1.236  25.073  0.00  0.00    +0.251 A 
ATOM     15  N   UNL     1      -1.527   0.746  25.323  0.00  0.00    -0.190 NA
ATOM     16  C   UNL     1      -1.721   0.242  24.698  0.00  0.00    +0.203 A 
ATOM     17  N   UNL     1      -1.228   0.422  24.063  0.00  0.00    -0.056 NA
ATOM     18  O   UNL     1      -0.727   1.036  24.294  0.00  0.00    -0.336 OA
ENDROOT
BRANCH  14   4
ATOM      1  O   UNL     1       0.773   2.575  27.022  0.00  0.00    -0.222 OA
ATOM      2  C   UNL     1       0.227   2.439  26.418  0.00  0.00    +0.170 C 
ATOM      3  C   UNL     1       0.012   1.702  26.117  0.00  0.00    +0.060 C 
ATOM      4  C   UNL     1      -0.547   1.824  25.522  0.00  0.00    +0.140 C 
ATOM      5  N   UNL     1      -0.677   2.636  25.457  0.00  0.00    -0.264 NA
ATOM     13  C   UNL     1      -0.197   3.016  26.011  0.00  0.00    +0.106 C 
BRANCH   5   6
ATOM      6  C   UNL     1      -1.194   3.003  24.930  0.00  0.00    +0.073 C 
BRANCH   6   7
ATOM      7  C   UNL     1      -1.392   3.797  25.033  0.00  0.00    +0.016 C 
ATOM      8  C   UNL     1      -0.904   4.387  24.724  0.00  0.00    +0.001 C 
ATOM      9  C   UNL     1      -1.103   5.182  24.827  0.00  0.00    +0.000 C 
ATOM     10  C   UNL     1      -1.788   5.386  25.238  0.00  0.00    +0.000 C 
ATOM     11  C   UNL     1      -2.276   4.795  25.546  0.00  0.00    +0.000 C 
ATOM     12  C   UNL     1      -2.077   4.002  25.443  0.00  0.00    +0.001 C 
ENDBRANCH   6   7
ENDBRANCH   5   6
ENDBRANCH  14   4
BRANCH  16  19
ATOM     19  C   UNL     1      -2.308  -0.339  24.708  0.00  0.00    +0.039 A 
ATOM     20  C   UNL     1      -3.097  -0.130  24.593  0.00  0.00    +0.006 A 
ATOM     21  C   UNL     1      -3.682  -0.711  24.603  0.00  0.00    +0.037 A 
ATOM     22  C   UNL     1      -3.479  -1.500  24.728  0.00  0.00    +0.147 A 
ATOM     28  C   UNL     1      -2.689  -1.709  24.843  0.00  0.00    +0.037 A 
ATOM     29  C   UNL     1      -2.103  -1.128  24.833  0.00  0.00    +0.006 A 
BRANCH  22  23
ATOM     23  O   UNL     1      -4.064  -2.081  24.738  0.00  0.00    -0.404 OA
BRANCH  23  24
ATOM     24  C   UNL     1      -4.273  -2.468  24.040  0.00  0.00    +0.575 C 
ATOM     25  F   UNL     1      -4.482  -2.855  23.341  0.00  0.00    -0.133 F 
ATOM     26  F   UNL     1      -4.803  -1.861  23.861  0.00  0.00    -0.133 F 
ATOM     27  F   UNL     1      -3.744  -3.075  24.217  0.00  0.00    -0.133 F 
ENDBRANCH  23  24
ENDBRANCH  22  23
ENDBRANCH  16  19
TORSDOF 6
ENDMDL
MODEL 3
REMARK VINA RESULT:     -11.3      3.470      6.182
REMARK  Name = 
REMARK  6 active torsions:
REMARK  status: ('A' for Active; 'I' for Inactive)
REMARK    1  A    between atoms: C_4  and  C_14
REMARK    2  A    between atoms: N_5  and  C_6
REMARK    3  A    between atoms: C_6  and  C_7
REMARK    4  A    between atoms: C_16  and  C_19
REMARK    5  A    between atoms: C_22  and  O_23
REMARK    6  A    between atoms: O_23  and  C_24
REMARK                            x       y       z     vdW  Elec       q    Type
REMARK                         _______ _______ _______ _____ _____    ______ ____
ROOT
ATOM     14  C   UNL     1      -1.150   0.394  24.501  0.00  0.00    +0.251 A 
ATOM     15  N   UNL     1      -1.175   1.050  25.001  0.00  0.00    -0.190 NA
ATOM     16  C   UNL     1      -1.267   1.724  24.533  0.00  0.00    +0.203 A 
ATOM     17  N   UNL     1      -1.299   1.484  23.744  0.00  0.00    -0.056 NA
ATOM     18  O   UNL     1      -1.227   0.662  23.724  0.00  0.00    -0.336 OA
ENDROOT
BRANCH  14   4
ATOM      1  O   UNL     1       0.027  -2.123  25.343  0.00  0.00    -0.222 OA
ATOM      2  C   UNL     1      -0.523  -1.549  25.124  0.00  0.00    +0.170 C 
ATOM      3  C   UNL     1      -0.352  -0.769  24.915  0.00  0.00    +0.060 C 
ATOM      4  C   UNL     1      -1.064  -0.392  24.737  0.00  0.00    +0.140 C 
ATOM      5  N   UNL     1      -1.674  -0.938  24.836  0.00  0.00    -0.264 NA
ATOM     13  C   UNL     1      -1.339  -1.654  25.075  0.00  0.00    +0.106 C 
BRANCH   5   6
ATOM      6  C   UNL     1      -2.477  -0.795  24.716  0.00  0.00    +0.073 C 
BRANCH   6   7
ATOM      7  C   UNL     1      -3.000  -1.427  24.629  0.00  0.00    +0.016 C 
ATOM      8  C   UNL     1      -3.312  -1.605  23.886  0.00  0.00    +0.001 C 
ATOM      9  C   UNL     1      -3.836  -2.237  23.799  0.00  0.00    +0.000 C 
ATOM     10  C   UNL     1      -4.047  -2.690  24.454  0.00  0.00    +0.000 C 
ATOM     11  C   UNL     1      -3.736  -2.512  25.198  0.00  0.00    +0.000 C 
ATOM     12  C   UNL     1      -3.212  -1.880  25.284  0.00  0.00    +0.001 C 
ENDBRANCH   6   7
ENDBRANCH   5   6
ENDBRANCH  14   4
BRANCH  16  19
ATOM     19  C   UNL     1      -1.318   2.501  24.805  0.00  0.00    +0.039 A 
ATOM     20  C   UNL     1      -2.049   2.814  25.024  0.00  0.00    +0.006 A 
ATOM     21  C   UNL     1      -2.100   3.591  25.296  0.00  0.00    +0.037 A 
ATOM     22  C   UNL     1      -1.419   4.055  25.351  0.00  0.00    +0.147 A 
ATOM     28  C   UNL     1      -0.688   3.741  25.133  0.00  0.00    +0.037 A 
ATOM     29  C   UNL     1      -0.637   2.964  24.860  0.00  0.00    +0.006 A 
BRANCH  22  23
ATOM     23  O   UNL     1      -1.470   4.831  25.624  0.00  0.00    -0.404 OA
BRANCH  23  24
ATOM     24  C   UNL     1      -1.479   5.457  25.086  0.00  0.00    +0.575 C 
ATOM     25  F   UNL     1      -1.488   6.083  24.548  0.00  0.00    -0.133 F 
ATOM     26  F   UNL     1      -2.303   5.424  25.061  0.00  0.00    -0.133 F 
ATOM     27  F   UNL     1      -0.656   5.490  25.111  0.00  0.00    -0.133 F 
ENDBRANCH  23  24
ENDBRANCH  22  23
ENDBRANCH  16  19
TORSDOF 6
ENDMDL
MODEL 4
REMARK VINA RESULT:     -10.7      1.376      2.294
REMARK  Name = 
REMARK  6 active torsions:
REMARK  status: ('A' for Active; 'I' for Inactive)
REMARK    1  A    between atoms: C_4  and  C_14
REMARK    2  A    between atoms: N_5  and  C_6
REMARK    3  A    between atoms: C_6  and  C_7
REMARK    4  A    between atoms: C_16  and  C_19
REMARK    5  A    between atoms: C_22  and  O_23
REMARK    6  A    between atoms: O_23  and  C_24
REMARK                            x       y       z     vdW  Elec       q    Type
REMARK                         _______ _______ _______ _____ _____    ______ ____
ROOT
ATOM     14  C   UNL     1      -2.112   1.901  24.516  0.00  0.00    +0.251 A 
ATOM     15  N   UNL     1      -2.309   1.192  24.890  0.00  0.00    -0.190 NA
ATOM     16  C   UNL     1      -2.140   0.574  24.370  0.00  0.00    +0.203 A 
ATOM     17  N   UNL     1      -1.839   0.899  23.675  0.00  0.00    -0.056 NA
ATOM     18  O   UNL     1      -1.822   1.720  23.765  0.00  0.00    -0.336 OA
ENDROOT
BRANCH  14   4
ATOM      1  O   UNL     1      -1.505   4.435  25.795  0.00  0.00    -0.222 OA
ATOM      2  C   UNL     1      -1.913   3.822  25.423  0.00  0.00    +0.170 C 
ATOM      3  C   UNL     1      -1.588   3.104  25.179  0.00  0.00    +0.060 C 
ATOM      4  C   UNL     1      -2.191   2.657  24.835  0.00  0.00    +0.140 C 
ATOM      5  N   UNL     1      -2.887   3.099  24.869  0.00  0.00    -0.264 NA
ATOM     13  C   UNL     1      -2.714   3.819  25.232  0.00  0.00    +0.106 C 
BRANCH   5   6
ATOM      6  C   UNL     1      -3.626   2.863  24.588  0.00  0.00    +0.073 C 
BRANCH   6   7
ATOM      7  C   UNL     1      -4.312   3.124  24.962  0.00  0.00    +0.016 C 
ATOM      8  C   UNL     1      -4.612   3.875  24.798  0.00  0.00    +0.001 C 
ATOM      9  C   UNL     1      -5.300   4.135  25.174  0.00  0.00    +0.000 C 
ATOM     10  C   UNL     1      -5.686   3.646  25.712  0.00  0.00    +0.000 C 
ATOM     11  C   UNL     1      -5.386   2.894  25.876  0.00  0.00    +0.000 C 
ATOM     12  C   UNL     1      -4.700   2.634  25.501  0.00  0.00    +0.001 C 
ENDBRANCH   6   7
ENDBRANCH   5   6
ENDBRANCH  14   4
BRANCH  16  19
ATOM     19  C   UNL     1      -2.253  -0.230  24.520  0.00  0.00    +0.039 A 
ATOM     20  C   UNL     1      -3.016  -0.528  24.621  0.00  0.00    +0.006 A 
ATOM     21  C   UNL     1      -3.128  -1.331  24.771  0.00  0.00    +0.037 A 
ATOM     22  C   UNL     1      -2.478  -1.837  24.820  0.00  0.00    +0.147 A 
ATOM     28  C   UNL     1      -1.715  -1.539  24.719  0.00  0.00    +0.037 A 
ATOM     29  C   UNL     1      -1.603  -0.735  24.569  0.00  0.00    +0.006 A 
BRANCH  22  23
ATOM     23  O   UNL     1      -2.590  -2.640  24.969  0.00  0.00    -0.404 OA
BRANCH  23  24
ATOM     24  C   UNL     1      -3.252  -3.027  24.665  0.00  0.00    +0.575 C 
ATOM     25  F   UNL     1      -3.913  -3.415  24.359  0.00  0.00    -0.133 F 
ATOM     26  F   UNL     1      -2.867  -3.116  23.940  0.00  0.00    -0.133 F 
ATOM     27  F   UNL     1      -3.637  -2.939  25.388  0.00  0.00    -0.133 F 
ENDBRANCH  23  24
ENDBRANCH  22  23
ENDBRANCH  16  19
TORSDOF 6
ENDMDL
