REMARK  Name = 
REMARK  3 active torsions:
REMARK  status: ('A' for Active; 'I' for Inactive)
REMARK    1  A    between atoms: C_2  and  C_4
REMARK    2  A    between atoms: C_4  and  C_5
REMARK    3  A    between atoms: C_5  and  N_6
REMARK                            x       y       z     vdW  Elec       q    Type
REMARK                         _______ _______ _______ _____ _____    ______ ____
ROOT
ATOM      6  N   UNL     1       3.352   1.935   0.000  0.00  0.00    -0.270 NA
ATOM      7  C   UNL     1       3.352   1.110   0.000  0.00  0.00    +0.094 C 
ATOM      8  C   UNL     1       2.638   0.698   0.000  0.00  0.00    +0.112 C 
ATOM      9  N   UNL     1       1.923   1.110   0.000  0.00  0.00    -0.260 N 
ATOM     10  C   UNL     1       1.923   1.935   0.000  0.00  0.00    +0.115 C 
ATOM     11  C   UNL     1       1.139   2.190   0.000  0.00  0.00    +0.138 C 
ATOM     12  N   UNL     1       0.654   1.523   0.000  0.00  0.00    -0.187 NA
ATOM     13  C   UNL     1       1.139   0.856   0.000  0.00  0.00    +0.323 C 
ATOM     14  O   UNL     1       0.884   0.071   0.000  0.00  0.00    -0.251 OA
ATOM     15  C   UNL     1       2.638   2.348   0.000  0.00  0.00    +0.094 C 
ENDROOT
BRANCH   6   5
ATOM      5  C   UNL     1       4.067   2.348   0.000  0.00  0.00    +0.072 C 
BRANCH   5   4
ATOM      4  C   UNL     1       4.067   3.173   0.000  0.00  0.00    +0.017 C 
BRANCH   4   2
ATOM      1  C   UNL     1       4.781   4.410   0.000  0.00  0.00    +0.000 C 
ATOM      2  C   UNL     1       4.781   3.585   0.000  0.00  0.00    +0.001 C 
ATOM      3  C   UNL     1       5.496   3.173   0.000  0.00  0.00    +0.000 C 
ENDBRANCH   4   2
ENDBRANCH   5   4
ENDBRANCH   6   5
TORSDOF 3
