MODEL 1
REMARK VINA RESULT:     -12.2      0.000      0.000
REMARK  Name = 
REMARK  6 active torsions:
REMARK  status: ('A' for Active; 'I' for Inactive)
REMARK    1  A    between atoms: O_2  and  C_3
REMARK    2  A    between atoms: C_6  and  C_9
REMARK    3  A    between atoms: C_12  and  C_14
REMARK    4  A    between atoms: N_17  and  S_19
REMARK    5  A    between atoms: S_19  and  C_22
REMARK    6  A    between atoms: C_22  and  C_23
REMARK                            x       y       z     vdW  Elec       q    Type
REMARK                         _______ _______ _______ _____ _____    ______ ____
ROOT
ATOM     14  C   UNL     1      -4.333   2.275  24.960  0.00  0.00    +0.097 C 
ATOM     15  C   UNL     1      -4.763   2.894  24.626  0.00  0.00    +0.030 C 
ATOM     16  C   UNL     1      -4.364   3.598  24.786  0.00  0.00    +0.096 C 
ATOM     17  N   UNL     1      -3.686   3.413  25.220  0.00  0.00    -0.159 NA
ATOM     18  C   UNL     1      -3.668   2.596  25.327  0.00  0.00    +0.105 C 
ENDROOT
BRANCH  14  12
ATOM      9  C   UNL     1      -4.444   0.146  24.843  0.00  0.00    +0.250 A 
ATOM     10  N   UNL     1      -5.240   0.343  24.934  0.00  0.00    -0.107 NA
ATOM     11  N   UNL     1      -5.295   1.164  24.989  0.00  0.00    -0.111 NA
ATOM     12  C   UNL     1      -4.533   1.475  24.931  0.00  0.00    +0.227 A 
ATOM     13  O   UNL     1      -4.007   0.847  24.841  0.00  0.00    -0.419 OA
BRANCH   9   6
ATOM      3  C   UNL     1      -3.526  -2.141  24.613  0.00  0.00    +0.139 A 
ATOM      4  C   UNL     1      -3.413  -1.719  25.312  0.00  0.00    +0.037 A 
ATOM      5  C   UNL     1      -3.719  -0.957  25.389  0.00  0.00    +0.008 A 
ATOM      6  C   UNL     1      -4.138  -0.616  24.766  0.00  0.00    +0.055 A 
ATOM      7  C   UNL     1      -4.252  -1.038  24.066  0.00  0.00    +0.008 A 
ATOM      8  C   UNL     1      -3.946  -1.800  23.989  0.00  0.00    +0.037 A 
BRANCH   3   2
ATOM      1  C   UNL     1      -2.411  -3.013  24.416  0.00  0.00    +0.252 C 
ATOM      2  O   UNL     1      -3.220  -2.903  24.536  0.00  0.00    -0.471 OA
ENDBRANCH   3   2
ENDBRANCH   9   6
ENDBRANCH  14  12
BRANCH  17  19
ATOM     19  S   UNL     1      -3.127   3.951  25.498  0.00  0.00    +0.048 S 
ATOM     20  O   UNL     1      -3.031   3.500  26.181  0.00  0.00    -0.157 OA
ATOM     21  O   UNL     1      -3.222   4.404  24.814  0.00  0.00    -0.157 OA
BRANCH  19  22
ATOM     22  C   UNL     1      -2.567   4.490  25.776  0.00  0.00    +0.195 C 
BRANCH  22  23
ATOM     23  C   UNL     1      -1.812   4.509  25.443  0.00  0.00    +0.003 A 
ATOM     24  C   UNL     1      -1.555   5.183  25.042  0.00  0.00    -0.003 A 
ATOM     25  C   UNL     1      -0.801   5.203  24.709  0.00  0.00    -0.000 A 
ATOM     26  C   UNL     1      -0.303   4.548  24.777  0.00  0.00    -0.000 A 
ATOM     27  C   UNL     1      -0.560   3.874  25.178  0.00  0.00    -0.000 A 
ATOM     28  C   UNL     1      -1.314   3.855  25.511  0.00  0.00    -0.003 A 
ENDBRANCH  22  23
ENDBRANCH  19  22
ENDBRANCH  17  19
TORSDOF 6
ENDMDL
MODEL 2
REMARK VINA RESULT:     -10.9      2.461      6.221
REMARK  Name = 
REMARK  6 active torsions:
REMARK  status: ('A' for Active; 'I' for Inactive)
REMARK    1  A    between atoms: O_2  and  C_3
REMARK    2  A    between atoms: C_6  and  C_9
REMARK    3  A    between atoms: C_12  and  C_14
REMARK    4  A    between atoms: N_17  and  S_19
REMARK    5  A    between atoms: S_19  and  C_22
REMARK    6  A    between atoms: C_22  and  C_23
REMARK                            x       y       z     vdW  Elec       q    Type
REMARK                         _______ _______ _______ _____ _____    ______ ____
ROOT
ATOM     14  C   UNL     1      -0.544   0.248  24.662  0.00  0.00    +0.097 C 
ATOM     15  C   UNL     1      -0.122  -0.380  24.336  0.00  0.00    +0.030 C 
ATOM     16  C   UNL     1      -0.567  -1.067  24.438  0.00  0.00    +0.096 C 
ATOM     17  N   UNL     1      -1.265  -0.862  24.828  0.00  0.00    -0.159 NA
ATOM     18  C   UNL     1      -1.251  -0.049  24.967  0.00  0.00    +0.105 C 
ENDROOT
BRANCH  14  12
ATOM      9  C   UNL     1      -0.318   2.368  24.778  0.00  0.00    +0.250 A 
ATOM     10  N   UNL     1       0.460   2.132  24.644  0.00  0.00    -0.107 NA
ATOM     11  N   UNL     1       0.471   1.310  24.584  0.00  0.00    -0.111 NA
ATOM     12  C   UNL     1      -0.302   1.037  24.682  0.00  0.00    +0.227 A 
ATOM     13  O   UNL     1      -0.790   1.691  24.802  0.00  0.00    -0.419 OA
BRANCH   9   6
ATOM      3  C   UNL     1      -1.105   4.698  25.062  0.00  0.00    +0.139 A 
ATOM      4  C   UNL     1      -1.419   4.097  25.530  0.00  0.00    +0.037 A 
ATOM      5  C   UNL     1      -1.157   3.320  25.436  0.00  0.00    +0.008 A 
ATOM      6  C   UNL     1      -0.580   3.145  24.873  0.00  0.00    +0.055 A 
ATOM      7  C   UNL     1      -0.265   3.747  24.404  0.00  0.00    +0.008 A 
ATOM      8  C   UNL     1      -0.528   4.524  24.499  0.00  0.00    +0.037 A 
BRANCH   3   2
ATOM      1  C   UNL     1      -2.171   5.629  25.266  0.00  0.00    +0.252 C 
ATOM      2  O   UNL     1      -1.367   5.474  25.157  0.00  0.00    -0.471 OA
ENDBRANCH   3   2
ENDBRANCH   9   6
ENDBRANCH  14  12
BRANCH  17  19
ATOM     19  S   UNL     1      -1.871  -1.379  25.042  0.00  0.00    +0.048 S 
ATOM     20  O   UNL     1      -2.158  -0.822  25.577  0.00  0.00    -0.157 OA
ATOM     21  O   UNL     1      -1.583  -1.938  24.506  0.00  0.00    -0.157 OA
BRANCH  19  22
ATOM     22  C   UNL     1      -2.477  -1.897  25.256  0.00  0.00    +0.195 C 
BRANCH  22  23
ATOM     23  C   UNL     1      -3.146  -1.968  24.779  0.00  0.00    +0.003 A 
ATOM     24  C   UNL     1      -3.284  -2.666  24.362  0.00  0.00    -0.003 A 
ATOM     25  C   UNL     1      -3.954  -2.737  23.885  0.00  0.00    -0.000 A 
ATOM     26  C   UNL     1      -4.486  -2.109  23.826  0.00  0.00    -0.000 A 
ATOM     27  C   UNL     1      -4.348  -1.411  24.243  0.00  0.00    -0.000 A 
ATOM     28  C   UNL     1      -3.679  -1.340  24.720  0.00  0.00    -0.003 A 
ENDBRANCH  22  23
ENDBRANCH  19  22
ENDBRANCH  17  19
TORSDOF 6
ENDMDL
MODEL 3
REMARK VINA RESULT:     -10.6      2.363      2.997
REMARK  Name = 
REMARK  6 active torsions:
REMARK  status: ('A' for Active; 'I' for Inactive)
REMARK    1  A    between atoms: O_2  and  C_3
REMARK    2  A    between atoms: C_6  and  C_9
REMARK    3  A    between atoms: C_12  and  C_14
REMARK    4  A    between atoms: N_17  and  S_19
REMARK    5  A    between atoms: S_19  and  C_22
REMARK    6  A    between atoms: C_22  and  C_23
REMARK                            x       y       z     vdW  Elec       q    Type
REMARK                         _______ _______ _______ _____ _____    ______ ____
ROOT
ATOM     14  C   UNL     1      -0.456   0.638  24.677  0.00  0.00    +0.097 C 
ATOM     15  C   UNL     1       0.098   0.916  24.135  0.00  0.00    +0.030 C 
ATOM     16  C   UNL     1       0.241   1.712  24.300  0.00  0.00    +0.096 C 
ATOM     17  N   UNL     1      -0.227   1.926  24.945  0.00  0.00    -0.159 NA
ATOM     18  C   UNL     1      -0.658   1.262  25.178  0.00  0.00    +0.105 C 
ENDROOT
BRANCH  14  12
ATOM      9  C   UNL     1      -1.590  -1.171  24.650  0.00  0.00    +0.250 A 
ATOM     10  N   UNL     1      -0.851  -1.449  24.887  0.00  0.00    -0.107 NA
ATOM     11  N   UNL     1      -0.337  -0.806  24.926  0.00  0.00    -0.111 NA
ATOM     12  C   UNL     1      -0.758  -0.129  24.713  0.00  0.00    +0.227 A 
ATOM     13  O   UNL     1      -1.533  -0.354  24.543  0.00  0.00    -0.419 OA
BRANCH   9   6
ATOM      3  C   UNL     1      -3.625  -2.541  24.320  0.00  0.00    +0.139 A 
ATOM      4  C   UNL     1      -3.684  -1.720  24.372  0.00  0.00    +0.037 A 
ATOM      5  C   UNL     1      -3.006  -1.264  24.482  0.00  0.00    +0.008 A 
ATOM      6  C   UNL     1      -2.268  -1.627  24.540  0.00  0.00    +0.055 A 
ATOM      7  C   UNL     1      -2.209  -2.449  24.488  0.00  0.00    +0.008 A 
ATOM      8  C   UNL     1      -2.887  -2.906  24.377  0.00  0.00    +0.037 A 
BRANCH   3   2
ATOM      1  C   UNL     1      -4.786  -2.868  23.553  0.00  0.00    +0.252 C 
ATOM      2  O   UNL     1      -4.303  -2.998  24.210  0.00  0.00    -0.471 OA
ENDBRANCH   3   2
ENDBRANCH   9   6
ENDBRANCH  14  12
BRANCH  17  19
ATOM     19  S   UNL     1      -0.258   2.671  25.295  0.00  0.00    +0.048 S 
ATOM     20  O   UNL     1      -0.428   2.323  26.023  0.00  0.00    -0.157 OA
ATOM     21  O   UNL     1      -0.088   3.021  24.567  0.00  0.00    -0.157 OA
BRANCH  19  22
ATOM     22  C   UNL     1      -0.289   3.418  25.646  0.00  0.00    +0.195 C 
BRANCH  22  23
ATOM     23  C   UNL     1      -0.943   3.905  25.521  0.00  0.00    +0.003 A 
ATOM     24  C   UNL     1      -0.875   4.571  25.038  0.00  0.00    -0.003 A 
ATOM     25  C   UNL     1      -1.528   5.059  24.913  0.00  0.00    -0.000 A 
ATOM     26  C   UNL     1      -2.250   4.880  25.271  0.00  0.00    -0.000 A 
ATOM     27  C   UNL     1      -2.318   4.216  25.754  0.00  0.00    -0.000 A 
ATOM     28  C   UNL     1      -1.665   3.728  25.879  0.00  0.00    -0.003 A 
ENDBRANCH  22  23
ENDBRANCH  19  22
ENDBRANCH  17  19
TORSDOF 6
ENDMDL
MODEL 4
REMARK VINA RESULT:     -10.4      1.446      5.409
REMARK  Name = 
REMARK  6 active torsions:
REMARK  status: ('A' for Active; 'I' for Inactive)
REMARK    1  A    between atoms: O_2  and  C_3
REMARK    2  A    between atoms: C_6  and  C_9
REMARK    3  A    between atoms: C_12  and  C_14
REMARK    4  A    between atoms: N_17  and  S_19
REMARK    5  A    between atoms: S_19  and  C_22
REMARK    6  A    between atoms: C_22  and  C_23
REMARK                            x       y       z     vdW  Elec       q    Type
REMARK                         _______ _______ _______ _____ _____    ______ ____
ROOT
ATOM     14  C   UNL     1      -4.353   0.979  24.940  0.00  0.00    +0.097 C 
ATOM     15  C   UNL     1      -5.002   0.625  24.575  0.00  0.00    +0.030 C 
ATOM     16  C   UNL     1      -4.897  -0.192  24.606  0.00  0.00    +0.096 C 
ATOM     17  N   UNL     1      -4.183  -0.343  24.991  0.00  0.00    -0.159 NA
ATOM     18  C   UNL     1      -3.847   0.381  25.197  0.00  0.00    +0.105 C 
ENDROOT
BRANCH  14  12
ATOM      9  C   UNL     1      -3.638   2.980  25.145  0.00  0.00    +0.250 A 
ATOM     10  N   UNL     1      -4.453   3.095  25.204  0.00  0.00    -0.107 NA
ATOM     11  N   UNL     1      -4.819   2.360  25.134  0.00  0.00    -0.111 NA
ATOM     12  C   UNL     1      -4.232   1.791  25.033  0.00  0.00    +0.227 A 
ATOM     13  O   UNL     1      -3.501   2.173  25.040  0.00  0.00    -0.419 OA
BRANCH   9   6
ATOM      3  C   UNL     1      -1.907   4.745  25.267  0.00  0.00    +0.139 A 
ATOM      4  C   UNL     1      -2.039   4.345  24.558  0.00  0.00    +0.037 A 
ATOM      5  C   UNL     1      -2.616   3.757  24.517  0.00  0.00    +0.008 A 
ATOM      6  C   UNL     1      -3.061   3.569  25.186  0.00  0.00    +0.055 A 
ATOM      7  C   UNL     1      -2.928   3.969  25.896  0.00  0.00    +0.008 A 
ATOM      8  C   UNL     1      -2.351   4.557  25.936  0.00  0.00    +0.037 A 
BRANCH   3   2
ATOM      1  C   UNL     1      -0.674   5.303  24.806  0.00  0.00    +0.252 C 
ATOM      2  O   UNL     1      -1.329   5.333  25.307  0.00  0.00    -0.471 OA
ENDBRANCH   3   2
ENDBRANCH   9   6
ENDBRANCH  14  12
BRANCH  17  19
ATOM     19  S   UNL     1      -3.862  -1.087  25.142  0.00  0.00    +0.048 S 
ATOM     20  O   UNL     1      -3.663  -0.847  25.906  0.00  0.00    -0.157 OA
ATOM     21  O   UNL     1      -4.060  -1.329  24.378  0.00  0.00    -0.157 OA
BRANCH  19  22
ATOM     22  C   UNL     1      -3.540  -1.832  25.294  0.00  0.00    +0.195 C 
BRANCH  22  23
ATOM     23  C   UNL     1      -2.791  -2.025  25.007  0.00  0.00    +0.003 A 
ATOM     24  C   UNL     1      -2.119  -1.702  25.359  0.00  0.00    -0.003 A 
ATOM     25  C   UNL     1      -1.370  -1.894  25.072  0.00  0.00    -0.000 A 
ATOM     26  C   UNL     1      -1.294  -2.409  24.432  0.00  0.00    -0.000 A 
ATOM     27  C   UNL     1      -1.965  -2.732  24.080  0.00  0.00    -0.000 A 
ATOM     28  C   UNL     1      -2.714  -2.540  24.367  0.00  0.00    -0.003 A 
ENDBRANCH  22  23
ENDBRANCH  19  22
ENDBRANCH  17  19
TORSDOF 6
ENDMDL
MODEL 5
REMARK VINA RESULT:     -10.3      2.372      5.753
REMARK  Name = 
REMARK  6 active torsions:
REMARK  status: ('A' for Active; 'I' for Inactive)
REMARK    1  A    between atoms: O_2  and  C_3
REMARK    2  A    between atoms: C_6  and  C_9
REMARK    3  A    between atoms: C_12  and  C_14
REMARK    4  A    between atoms: N_17  and  S_19
REMARK    5  A    between atoms: S_19  and  C_22
REMARK    6  A    between atoms: C_22  and  C_23
REMARK                            x       y       z     vdW  Elec       q    Type
REMARK                         _______ _______ _______ _____ _____    ______ ____
ROOT
ATOM     14  C   UNL     1      -1.077   0.894  24.574  0.00  0.00    +0.097 C 
ATOM     15  C   UNL     1      -0.302   0.697  24.374  0.00  0.00    +0.030 C 
ATOM     16  C   UNL     1      -0.224  -0.122  24.428  0.00  0.00    +0.096 C 
ATOM     17  N   UNL     1      -0.953  -0.432  24.661  0.00  0.00    -0.159 NA
ATOM     18  C   UNL     1      -1.479   0.196  24.752  0.00  0.00    +0.105 C 
ENDROOT
BRANCH  14  12
ATOM      9  C   UNL     1      -2.249   2.671  24.733  0.00  0.00    +0.250 A 
ATOM     10  N   UNL     1      -1.517   2.982  24.511  0.00  0.00    -0.107 NA
ATOM     11  N   UNL     1      -0.990   2.354  24.425  0.00  0.00    -0.111 NA
ATOM     12  C   UNL     1      -1.395   1.655  24.593  0.00  0.00    +0.227 A 
ATOM     13  O   UNL     1      -2.173   1.851  24.784  0.00  0.00    -0.419 OA
BRANCH   9   6
ATOM      3  C   UNL     1      -4.309   3.971  25.171  0.00  0.00    +0.139 A 
ATOM      4  C   UNL     1      -4.191   3.621  24.434  0.00  0.00    +0.037 A 
ATOM      5  C   UNL     1      -3.504   3.188  24.288  0.00  0.00    +0.008 A 
ATOM      6  C   UNL     1      -2.935   3.105  24.879  0.00  0.00    +0.055 A 
ATOM      7  C   UNL     1      -3.054   3.455  25.617  0.00  0.00    +0.008 A 
ATOM      8  C   UNL     1      -3.740   3.888  25.763  0.00  0.00    +0.037 A 
BRANCH   3   2
ATOM      1  C   UNL     1      -5.669   4.025  25.607  0.00  0.00    +0.252 C 
ATOM      2  O   UNL     1      -4.996   4.404  25.317  0.00  0.00    -0.471 OA
ENDBRANCH   3   2
ENDBRANCH   9   6
ENDBRANCH  14  12
BRANCH  17  19
ATOM     19  S   UNL     1      -1.123  -1.229  24.783  0.00  0.00    +0.048 S 
ATOM     20  O   UNL     1      -1.043  -1.370  23.975  0.00  0.00    -0.157 OA
ATOM     21  O   UNL     1      -1.204  -1.089  25.592  0.00  0.00    -0.157 OA
BRANCH  19  22
ATOM     22  C   UNL     1      -1.294  -2.028  24.905  0.00  0.00    +0.195 C 
BRANCH  22  23
ATOM     23  C   UNL     1      -2.068  -2.301  24.820  0.00  0.00    +0.003 A 
ATOM     24  C   UNL     1      -2.607  -2.212  25.439  0.00  0.00    -0.003 A 
ATOM     25  C   UNL     1      -3.381  -2.486  25.354  0.00  0.00    -0.000 A 
ATOM     26  C   UNL     1      -3.615  -2.849  24.651  0.00  0.00    -0.000 A 
ATOM     27  C   UNL     1      -3.076  -2.938  24.033  0.00  0.00    -0.000 A 
ATOM     28  C   UNL     1      -2.303  -2.665  24.118  0.00  0.00    -0.003 A 
ENDBRANCH  22  23
ENDBRANCH  19  22
ENDBRANCH  17  19
TORSDOF 6
ENDMDL
