MODEL 1
REMARK VINA RESULT:     -15.6      0.000      0.000
REMARK  Name = 
REMARK  4 active torsions:
REMARK  status: ('A' for Active; 'I' for Inactive)
REMARK    1  A    between atoms: C_5  and  C_6
REMARK    2  A    between atoms: C_7  and  C_8
REMARK    3  A    between atoms: N_16  and  C_17
REMARK    4  A    between atoms: C_17  and  C_18
REMARK                            x       y       z     vdW  Elec       q    Type
REMARK                         _______ _______ _______ _____ _____    ______ ____
ROOT
ATOM      8  C   UNL     1      -4.166   1.057  24.861  0.00  0.00    +0.056 A 
ATOM      9  C   UNL     1      -4.979   1.179  24.937  0.00  0.00    +0.006 A 
ATOM     10  C   UNL     1      -5.271   1.938  25.076  0.00  0.00    +0.013 A 
ATOM     11  C   UNL     1      -4.751   2.575  25.140  0.00  0.00    +0.041 A 
ATOM     12  C   UNL     1      -4.749   3.482  25.282  0.00  0.00    +0.054 C 
ATOM     13  C   UNL     1      -5.182   4.023  25.397  0.00  0.00    +0.011 C 
ATOM     14  C   UNL     1      -4.380   3.899  25.322  0.00  0.00    +0.039 C 
ATOM     15  C   UNL     1      -3.395   3.952  25.262  0.00  0.00    +0.074 C 
ATOM     16  N   UNL     1      -3.220   3.147  25.123  0.00  0.00    -0.267 NA
ATOM     24  C   UNL     1      -3.798   3.550  25.227  0.00  0.00    +0.078 C 
ATOM     25  C   UNL     1      -4.373   2.951  25.173  0.00  0.00    +0.110 C 
ATOM     26  N   UNL     1      -3.939   2.453  25.064  0.00  0.00    -0.299 N 
ATOM     27  C   UNL     1      -3.646   1.694  24.925  0.00  0.00    +0.261 A 
ATOM     28  O   UNL     1      -2.834   1.572  24.850  0.00  0.00    -0.267 OA
ENDROOT
BRANCH   8   7
ATOM      6  C   UNL     1      -4.354  -0.359  24.863  0.00  0.00    +0.000 C 
ATOM      7  C   UNL     1      -3.875   0.298  24.722  0.00  0.00    +0.005 C 
BRANCH   6   5
ATOM      1 CL   UNL     1      -3.191  -3.397  24.306  0.00  0.00    -0.082 Cl
ATOM      2  C   UNL     1      -3.482  -2.637  24.445  0.00  0.00    +0.058 A 
ATOM      3  C   UNL     1      -3.949  -2.264  23.877  0.00  0.00    +0.011 A 
ATOM      4  C   UNL     1      -4.239  -1.504  24.017  0.00  0.00    +0.001 A 
ATOM      5  C   UNL     1      -4.063  -1.118  24.724  0.00  0.00    +0.000 A 
ATOM     29  C   UNL     1      -3.595  -1.492  25.292  0.00  0.00    +0.001 A 
ATOM     30  C   UNL     1      -3.305  -2.251  25.153  0.00  0.00    +0.011 A 
ENDBRANCH   6   5
ENDBRANCH   8   7
BRANCH  16  17
ATOM     17  C   UNL     1      -2.767   2.471  24.986  0.00  0.00    +0.119 C 
BRANCH  17  18
ATOM     18  C   UNL     1      -1.946   2.527  24.937  0.00  0.00    +0.075 A 
ATOM     19  N   UNL     1      -1.585   2.672  24.210  0.00  0.00    -0.247 NA
ATOM     20  C   UNL     1      -0.762   2.728  24.162  0.00  0.00    +0.098 A 
ATOM     21  C   UNL     1      -0.303   2.639  24.841  0.00  0.00    +0.021 A 
ATOM     22  C   UNL     1      -0.663   2.493  25.568  0.00  0.00    +0.003 A 
ATOM     23  C   UNL     1      -1.486   2.437  25.616  0.00  0.00    +0.016 A 
ENDBRANCH  17  18
ENDBRANCH  16  17
TORSDOF 4
ENDMDL
MODEL 2
REMARK VINA RESULT:     -13.8      1.069      2.868
REMARK  Name = 
REMARK  4 active torsions:
REMARK  status: ('A' for Active; 'I' for Inactive)
REMARK    1  A    between atoms: C_5  and  C_6
REMARK    2  A    between atoms: C_7  and  C_8
REMARK    3  A    between atoms: N_16  and  C_17
REMARK    4  A    between atoms: C_17  and  C_18
REMARK                            x       y       z     vdW  Elec       q    Type
REMARK                         _______ _______ _______ _____ _____    ______ ____
ROOT
ATOM      8  C   UNL     1      -1.934   0.543  25.079  0.00  0.00    +0.056 A 
ATOM      9  C   UNL     1      -1.193   0.264  25.310  0.00  0.00    +0.006 A 
ATOM     10  C   UNL     1      -0.620   0.790  25.584  0.00  0.00    +0.013 A 
ATOM     11  C   UNL     1      -0.789   1.597  25.627  0.00  0.00    +0.041 A 
ATOM     12  C   UNL     1      -0.402   2.394  25.870  0.00  0.00    +0.054 C 
ATOM     13  C   UNL     1       0.196   2.663  26.120  0.00  0.00    +0.011 C 
ATOM     14  C   UNL     1      -0.537   2.935  25.891  0.00  0.00    +0.039 C 
ATOM     15  C   UNL     1      -1.349   3.450  25.664  0.00  0.00    +0.074 C 
ATOM     16  N   UNL     1      -1.842   2.827  25.406  0.00  0.00    -0.267 NA
ATOM     24  C   UNL     1      -1.180   2.906  25.655  0.00  0.00    +0.078 C 
ATOM     25  C   UNL     1      -0.949   2.107  25.635  0.00  0.00    +0.110 C 
ATOM     26  N   UNL     1      -1.530   1.876  25.396  0.00  0.00    -0.299 N 
ATOM     27  C   UNL     1      -2.102   1.349  25.122  0.00  0.00    +0.261 A 
ATOM     28  O   UNL     1      -2.843   1.629  24.890  0.00  0.00    -0.267 OA
ENDROOT
BRANCH   8   7
ATOM      6  C   UNL     1      -2.377  -0.797  24.861  0.00  0.00    +0.000 C 
ATOM      7  C   UNL     1      -2.505   0.016  24.804  0.00  0.00    +0.005 C 
BRANCH   6   5
ATOM      1 CL   UNL     1      -4.662  -2.911  23.765  0.00  0.00    -0.082 Cl
ATOM      2  C   UNL     1      -4.090  -2.382  24.039  0.00  0.00    +0.058 A 
ATOM      3  C   UNL     1      -3.466  -2.655  24.502  0.00  0.00    +0.011 A 
ATOM      4  C   UNL     1      -2.894  -2.126  24.777  0.00  0.00    +0.001 A 
ATOM      5  C   UNL     1      -2.948  -1.325  24.587  0.00  0.00    +0.000 A 
ATOM     29  C   UNL     1      -3.574  -1.053  24.123  0.00  0.00    +0.001 A 
ATOM     30  C   UNL     1      -4.145  -1.581  23.849  0.00  0.00    +0.011 A 
ENDBRANCH   6   5
ENDBRANCH   8   7
BRANCH  16  17
ATOM     17  C   UNL     1      -2.515   2.449  25.114  0.00  0.00    +0.119 C 
BRANCH  17  18
ATOM     18  C   UNL     1      -3.197   2.885  24.954  0.00  0.00    +0.075 A 
ATOM     19  N   UNL     1      -3.726   3.061  25.561  0.00  0.00    -0.247 NA
ATOM     20  C   UNL     1      -4.408   3.497  25.401  0.00  0.00    +0.098 A 
ATOM     21  C   UNL     1      -4.560   3.757  24.632  0.00  0.00    +0.021 A 
ATOM     22  C   UNL     1      -4.031   3.581  24.025  0.00  0.00    +0.003 A 
ATOM     23  C   UNL     1      -3.349   3.145  24.186  0.00  0.00    +0.016 A 
ENDBRANCH  17  18
ENDBRANCH  16  17
TORSDOF 4
ENDMDL
MODEL 3
REMARK VINA RESULT:     -13.6      2.135      4.266
REMARK  Name = 
REMARK  4 active torsions:
REMARK  status: ('A' for Active; 'I' for Inactive)
REMARK    1  A    between atoms: C_5  and  C_6
REMARK    2  A    between atoms: C_7  and  C_8
REMARK    3  A    between atoms: N_16  and  C_17
REMARK    4  A    between atoms: C_17  and  C_18
REMARK                            x       y       z     vdW  Elec       q    Type
REMARK                         _______ _______ _______ _____ _____    ______ ____
ROOT
ATOM      8  C   UNL     1      -3.683   0.062  24.929  0.00  0.00    +0.056 A 
ATOM      9  C   UNL     1      -4.223  -0.562  24.917  0.00  0.00    +0.006 A 
ATOM     10  C   UNL     1      -3.957  -1.335  24.806  0.00  0.00    +0.013 A 
ATOM     11  C   UNL     1      -3.152  -1.484  24.708  0.00  0.00    +0.041 A 
ATOM     12  C   UNL     1      -2.566  -2.180  24.573  0.00  0.00    +0.054 C 
ATOM     13  C   UNL     1      -2.548  -2.877  24.496  0.00  0.00    +0.011 C 
ATOM     14  C   UNL     1      -2.018  -2.259  24.509  0.00  0.00    +0.039 C 
ATOM     15  C   UNL     1      -1.235  -1.657  24.494  0.00  0.00    +0.074 C 
ATOM     16  N   UNL     1      -1.619  -0.924  24.613  0.00  0.00    -0.267 NA
ATOM     24  C   UNL     1      -1.799  -1.611  24.557  0.00  0.00    +0.078 C 
ATOM     25  C   UNL     1      -2.622  -1.526  24.650  0.00  0.00    +0.110 C 
ATOM     26  N   UNL     1      -2.612  -0.860  24.721  0.00  0.00    -0.299 N 
ATOM     27  C   UNL     1      -2.878  -0.087  24.831  0.00  0.00    +0.261 A 
ATOM     28  O   UNL     1      -2.338   0.537  24.844  0.00  0.00    -0.267 OA
ENDROOT
BRANCH   8   7
ATOM      6  C   UNL     1      -4.759   0.991  25.069  0.00  0.00    +0.000 C 
ATOM      7  C   UNL     1      -3.949   0.835  25.040  0.00  0.00    +0.005 C 
BRANCH   6   5
ATOM      1 CL   UNL     1      -5.828   4.082  25.512  0.00  0.00    -0.082 Cl
ATOM      2  C   UNL     1      -5.561   3.308  25.401  0.00  0.00    +0.058 A 
ATOM      3  C   UNL     1      -5.862   2.698  25.866  0.00  0.00    +0.011 A 
ATOM      4  C   UNL     1      -5.594   1.925  25.754  0.00  0.00    +0.001 A 
ATOM      5  C   UNL     1      -5.026   1.764  25.179  0.00  0.00    +0.000 A 
ATOM     29  C   UNL     1      -4.724   2.375  24.715  0.00  0.00    +0.001 A 
ATOM     30  C   UNL     1      -4.991   3.148  24.825  0.00  0.00    +0.011 A 
ENDBRANCH   6   5
ENDBRANCH   8   7
BRANCH  16  17
ATOM     17  C   UNL     1      -1.710  -0.110  24.710  0.00  0.00    +0.119 C 
BRANCH  17  18
ATOM     18  C   UNL     1      -1.057   0.389  24.639  0.00  0.00    +0.075 A 
ATOM     19  N   UNL     1      -0.706   0.508  23.903  0.00  0.00    -0.247 NA
ATOM     20  C   UNL     1      -0.052   1.007  23.832  0.00  0.00    +0.098 A 
ATOM     21  C   UNL     1       0.249   1.388  24.498  0.00  0.00    +0.021 A 
ATOM     22  C   UNL     1      -0.102   1.270  25.235  0.00  0.00    +0.003 A 
ATOM     23  C   UNL     1      -0.755   0.771  25.306  0.00  0.00    +0.016 A 
ENDBRANCH  17  18
ENDBRANCH  16  17
TORSDOF 4
ENDMDL
MODEL 4
REMARK VINA RESULT:     -13.5      1.684      3.189
REMARK  Name = 
REMARK  4 active torsions:
REMARK  status: ('A' for Active; 'I' for Inactive)
REMARK    1  A    between atoms: C_5  and  C_6
REMARK    2  A    between atoms: C_7  and  C_8
REMARK    3  A    between atoms: N_16  and  C_17
REMARK    4  A    between atoms: C_17  and  C_18
REMARK                            x       y       z     vdW  Elec       q    Type
REMARK                         _______ _______ _______ _____ _____    ______ ____
ROOT
ATOM      8  C   UNL     1      -1.303   2.040  25.064  0.00  0.00    +0.056 A 
ATOM      9  C   UNL     1      -0.534   2.340  25.059  0.00  0.00    +0.006 A 
ATOM     10  C   UNL     1      -0.409   3.155  25.080  0.00  0.00    +0.013 A 
ATOM     11  C   UNL     1      -1.053   3.671  25.106  0.00  0.00    +0.041 A 
ATOM     12  C   UNL     1      -1.247   4.568  25.135  0.00  0.00    +0.054 C 
ATOM     13  C   UNL     1      -0.939   5.198  25.147  0.00  0.00    +0.011 C 
ATOM     14  C   UNL     1      -1.696   4.899  25.152  0.00  0.00    +0.039 C 
ATOM     15  C   UNL     1      -2.670   4.734  25.165  0.00  0.00    +0.074 C 
ATOM     16  N   UNL     1      -2.671   3.899  25.141  0.00  0.00    -0.267 NA
ATOM     24  C   UNL     1      -2.192   4.425  25.148  0.00  0.00    +0.078 C 
ATOM     25  C   UNL     1      -1.502   3.959  25.122  0.00  0.00    +0.110 C 
ATOM     26  N   UNL     1      -1.821   3.371  25.111  0.00  0.00    -0.299 N 
ATOM     27  C   UNL     1      -1.947   2.556  25.090  0.00  0.00    +0.261 A 
ATOM     28  O   UNL     1      -2.715   2.256  25.095  0.00  0.00    -0.267 OA
ENDROOT
BRANCH   8   7
ATOM      6  C   UNL     1      -0.786   0.709  25.097  0.00  0.00    +0.000 C 
ATOM      7  C   UNL     1      -1.427   1.226  25.043  0.00  0.00    +0.005 C 
BRANCH   6   5
ATOM      1 CL   UNL     1      -1.279  -2.553  25.013  0.00  0.00    -0.082 Cl
ATOM      2  C   UNL     1      -1.155  -1.736  25.034  0.00  0.00    +0.058 A 
ATOM      3  C   UNL     1      -0.835  -1.352  24.379  0.00  0.00    +0.011 A 
ATOM      4  C   UNL     1      -0.711  -0.536  24.400  0.00  0.00    +0.001 A 
ATOM      5  C   UNL     1      -0.909  -0.106  25.076  0.00  0.00    +0.000 A 
ATOM     29  C   UNL     1      -1.230  -0.492  25.731  0.00  0.00    +0.001 A 
ATOM     30  C   UNL     1      -1.353  -1.307  25.710  0.00  0.00    +0.011 A 
ENDBRANCH   6   5
ENDBRANCH   8   7
BRANCH  16  17
ATOM     17  C   UNL     1      -2.970   3.130  25.125  0.00  0.00    +0.119 C 
BRANCH  17  18
ATOM     18  C   UNL     1      -3.785   3.004  25.135  0.00  0.00    +0.075 A 
ATOM     19  N   UNL     1      -4.212   3.115  25.832  0.00  0.00    -0.247 NA
ATOM     20  C   UNL     1      -5.027   2.989  25.842  0.00  0.00    +0.098 A 
ATOM     21  C   UNL     1      -5.416   2.752  25.155  0.00  0.00    +0.021 A 
ATOM     22  C   UNL     1      -4.991   2.641  24.457  0.00  0.00    +0.003 A 
ATOM     23  C   UNL     1      -4.175   2.767  24.447  0.00  0.00    +0.016 A 
ENDBRANCH  17  18
ENDBRANCH  16  17
TORSDOF 4
ENDMDL
MODEL 5
REMARK VINA RESULT:     -13.1      2.411      4.592
REMARK  Name = 
REMARK  4 active torsions:
REMARK  status: ('A' for Active; 'I' for Inactive)
REMARK    1  A    between atoms: C_5  and  C_6
REMARK    2  A    between atoms: C_7  and  C_8
REMARK    3  A    between atoms: N_16  and  C_17
REMARK    4  A    between atoms: C_17  and  C_18
REMARK                            x       y       z     vdW  Elec       q    Type
REMARK                         _______ _______ _______ _____ _____    ______ ____
ROOT
ATOM      8  C   UNL     1      -3.446   0.633  24.680  0.00  0.00    +0.056 A 
ATOM      9  C   UNL     1      -4.252   0.625  24.502  0.00  0.00    +0.006 A 
ATOM     10  C   UNL     1      -4.620  -0.082  24.291  0.00  0.00    +0.013 A 
ATOM     11  C   UNL     1      -4.184  -0.781  24.258  0.00  0.00    +0.041 A 
ATOM     12  C   UNL     1      -4.281  -1.675  24.072  0.00  0.00    +0.054 C 
ATOM     13  C   UNL     1      -4.763  -2.148  23.880  0.00  0.00    +0.011 C 
ATOM     14  C   UNL     1      -3.968  -2.136  24.056  0.00  0.00    +0.039 C 
ATOM     15  C   UNL     1      -3.014  -2.324  24.231  0.00  0.00    +0.074 C 
ATOM     16  N   UNL     1      -2.754  -1.555  24.429  0.00  0.00    -0.267 NA
ATOM     24  C   UNL     1      -3.362  -1.873  24.237  0.00  0.00    +0.078 C 
ATOM     25  C   UNL     1      -3.856  -1.203  24.252  0.00  0.00    +0.110 C 
ATOM     26  N   UNL     1      -3.378  -0.773  24.436  0.00  0.00    -0.299 N 
ATOM     27  C   UNL     1      -3.009  -0.065  24.647  0.00  0.00    +0.261 A 
ATOM     28  O   UNL     1      -2.203  -0.057  24.825  0.00  0.00    -0.267 OA
ENDROOT
BRANCH   8   7
ATOM      6  C   UNL     1      -3.433   2.062  24.703  0.00  0.00    +0.000 C 
ATOM      7  C   UNL     1      -3.078   1.341  24.891  0.00  0.00    +0.005 C 
BRANCH   6   5
ATOM      1 CL   UNL     1      -1.965   4.894  25.546  0.00  0.00    -0.082 Cl
ATOM      2  C   UNL     1      -2.332   4.186  25.335  0.00  0.00    +0.058 A 
ATOM      3  C   UNL     1      -2.991   3.923  25.755  0.00  0.00    +0.011 A 
ATOM      4  C   UNL     1      -3.358   3.214  25.544  0.00  0.00    +0.001 A 
ATOM      5  C   UNL     1      -3.066   2.770  24.913  0.00  0.00    +0.000 A 
ATOM     29  C   UNL     1      -2.406   3.033  24.493  0.00  0.00    +0.001 A 
ATOM     30  C   UNL     1      -2.039   3.741  24.704  0.00  0.00    +0.011 A 
ENDBRANCH   6   5
ENDBRANCH   8   7
BRANCH  16  17
ATOM     17  C   UNL     1      -2.238  -0.951  24.653  0.00  0.00    +0.119 C 
BRANCH  17  18
ATOM     18  C   UNL     1      -1.433  -1.108  24.741  0.00  0.00    +0.075 A 
ATOM     19  N   UNL     1      -0.910  -0.939  24.126  0.00  0.00    -0.247 NA
ATOM     20  C   UNL     1      -0.105  -1.096  24.214  0.00  0.00    +0.098 A 
ATOM     21  C   UNL     1       0.177  -1.421  24.918  0.00  0.00    +0.021 A 
ATOM     22  C   UNL     1      -0.345  -1.589  25.533  0.00  0.00    +0.003 A 
ATOM     23  C   UNL     1      -1.150  -1.433  25.445  0.00  0.00    +0.016 A 
ENDBRANCH  17  18
ENDBRANCH  16  17
TORSDOF 4
ENDMDL
MODEL 6
REMARK VINA RESULT:     -12.7      2.244      4.952
REMARK  Name = 
REMARK  4 active torsions:
REMARK  status: ('A' for Active; 'I' for Inactive)
REMARK    1  A    between atoms: C_5  and  C_6
REMARK    2  A    between atoms: C_7  and  C_8
REMARK    3  A    between atoms: N_16  and  C_17
REMARK    4  A    between atoms: C_17  and  C_18
REMARK                            x       y       z     vdW  Elec       q    Type
REMARK                         _______ _______ _______ _____ _____    ______ ____
ROOT
ATOM      8  C   UNL     1      -2.271   1.393  24.837  0.00  0.00    +0.056 A 
ATOM      9  C   UNL     1      -1.632   0.871  24.818  0.00  0.00    +0.006 A 
ATOM     10  C   UNL     1      -1.760   0.059  24.878  0.00  0.00    +0.013 A 
ATOM     11  C   UNL     1      -2.528  -0.233  24.957  0.00  0.00    +0.041 A 
ATOM     12  C   UNL     1      -2.985  -1.026  25.042  0.00  0.00    +0.054 C 
ATOM     13  C   UNL     1      -2.882  -1.719  25.077  0.00  0.00    +0.011 C 
ATOM     14  C   UNL     1      -3.511  -1.202  25.095  0.00  0.00    +0.039 C 
ATOM     15  C   UNL     1      -4.387  -0.745  25.137  0.00  0.00    +0.074 C 
ATOM     16  N   UNL     1      -4.135   0.048  25.068  0.00  0.00    -0.267 NA
ATOM     24  C   UNL     1      -3.839  -0.599  25.084  0.00  0.00    +0.078 C 
ATOM     25  C   UNL     1      -3.042  -0.368  25.007  0.00  0.00    +0.110 C 
ATOM     26  N   UNL     1      -3.167   0.288  24.976  0.00  0.00    -0.299 N 
ATOM     27  C   UNL     1      -3.039   1.101  24.916  0.00  0.00    +0.261 A 
ATOM     28  O   UNL     1      -3.678   1.622  24.935  0.00  0.00    -0.267 OA
ENDROOT
BRANCH   8   7
ATOM      6  C   UNL     1      -1.514   2.553  25.182  0.00  0.00    +0.000 C 
ATOM      7  C   UNL     1      -2.142   2.205  24.777  0.00  0.00    +0.005 C 
BRANCH   6   5
ATOM      1 CL   UNL     1      -0.993   5.804  24.943  0.00  0.00    -0.082 Cl
ATOM      2  C   UNL     1      -1.124   4.990  25.003  0.00  0.00    +0.058 A 
ATOM      3  C   UNL     1      -0.591   4.462  24.662  0.00  0.00    +0.011 A 
ATOM      4  C   UNL     1      -0.721   3.649  24.722  0.00  0.00    +0.001 A 
ATOM      5  C   UNL     1      -1.384   3.366  25.123  0.00  0.00    +0.000 A 
ATOM     29  C   UNL     1      -1.917   3.895  25.464  0.00  0.00    +0.001 A 
ATOM     30  C   UNL     1      -1.787   4.708  25.404  0.00  0.00    +0.011 A 
ENDBRANCH   6   5
ENDBRANCH   8   7
BRANCH  16  17
ATOM     17  C   UNL     1      -4.186   0.871  25.021  0.00  0.00    +0.119 C 
BRANCH  17  18
ATOM     18  C   UNL     1      -4.914   1.245  25.122  0.00  0.00    +0.075 A 
ATOM     19  N   UNL     1      -5.193   1.408  25.880  0.00  0.00    -0.247 NA
ATOM     20  C   UNL     1      -5.922   1.782  25.981  0.00  0.00    +0.098 A 
ATOM     21  C   UNL     1      -6.370   1.994  25.322  0.00  0.00    +0.021 A 
ATOM     22  C   UNL     1      -6.092   1.831  24.563  0.00  0.00    +0.003 A 
ATOM     23  C   UNL     1      -5.363   1.457  24.463  0.00  0.00    +0.016 A 
ENDBRANCH  17  18
ENDBRANCH  16  17
TORSDOF 4
ENDMDL
MODEL 7
REMARK VINA RESULT:     -12.5      2.423      4.916
REMARK  Name = 
REMARK  4 active torsions:
REMARK  status: ('A' for Active; 'I' for Inactive)
REMARK    1  A    between atoms: C_5  and  C_6
REMARK    2  A    between atoms: C_7  and  C_8
REMARK    3  A    between atoms: N_16  and  C_17
REMARK    4  A    between atoms: C_17  and  C_18
REMARK                            x       y       z     vdW  Elec       q    Type
REMARK                         _______ _______ _______ _____ _____    ______ ____
ROOT
ATOM      8  C   UNL     1      -2.033   1.384  24.594  0.00  0.00    +0.056 A 
ATOM      9  C   UNL     1      -1.406   1.862  24.351  0.00  0.00    +0.006 A 
ATOM     10  C   UNL     1      -0.696   1.521  24.108  0.00  0.00    +0.013 A 
ATOM     11  C   UNL     1      -0.613   0.700  24.107  0.00  0.00    +0.041 A 
ATOM     12  C   UNL     1       0.001   0.046  23.909  0.00  0.00    +0.054 C 
ATOM     13  C   UNL     1       0.658  -0.041  23.675  0.00  0.00    +0.011 C 
ATOM     14  C   UNL     1       0.037  -0.511  23.916  0.00  0.00    +0.039 C 
ATOM     15  C   UNL     1      -0.586  -1.236  24.166  0.00  0.00    +0.074 C 
ATOM     16  N   UNL     1      -1.249  -0.779  24.389  0.00  0.00    -0.267 NA
ATOM     24  C   UNL     1      -0.589  -0.666  24.147  0.00  0.00    +0.078 C 
ATOM     25  C   UNL     1      -0.611   0.166  24.125  0.00  0.00    +0.110 C 
ATOM     26  N   UNL     1      -1.239   0.221  24.349  0.00  0.00    -0.299 N 
ATOM     27  C   UNL     1      -1.949   0.563  24.593  0.00  0.00    +0.261 A 
ATOM     28  O   UNL     1      -2.576   0.084  24.836  0.00  0.00    -0.267 OA
ENDROOT
BRANCH   8   7
ATOM      6  C   UNL     1      -2.909   2.511  24.645  0.00  0.00    +0.000 C 
ATOM      7  C   UNL     1      -2.742   1.726  24.838  0.00  0.00    +0.005 C 
BRANCH   6   5
ATOM      1 CL   UNL     1      -5.747   3.885  25.619  0.00  0.00    -0.082 Cl
ATOM      2  C   UNL     1      -5.037   3.541  25.375  0.00  0.00    +0.058 A 
ATOM      3  C   UNL     1      -4.328   3.762  25.734  0.00  0.00    +0.011 A 
ATOM      4  C   UNL     1      -3.618   3.418  25.490  0.00  0.00    +0.001 A 
ATOM      5  C   UNL     1      -3.618   2.854  24.888  0.00  0.00    +0.000 A 
ATOM     29  C   UNL     1      -4.328   2.633  24.530  0.00  0.00    +0.001 A 
ATOM     30  C   UNL     1      -5.038   2.977  24.773  0.00  0.00    +0.011 A 
ENDBRANCH   6   5
ENDBRANCH   8   7
BRANCH  16  17
ATOM     17  C   UNL     1      -2.011  -0.608  24.657  0.00  0.00    +0.119 C 
BRANCH  17  18
ATOM     18  C   UNL     1      -2.542  -1.220  24.808  0.00  0.00    +0.075 A 
ATOM     19  N   UNL     1      -2.930  -1.594  24.183  0.00  0.00    -0.247 NA
ATOM     20  C   UNL     1      -3.462  -2.207  24.334  0.00  0.00    +0.098 A 
ATOM     21  C   UNL     1      -3.605  -2.446  25.110  0.00  0.00    +0.021 A 
ATOM     22  C   UNL     1      -3.218  -2.073  25.735  0.00  0.00    +0.003 A 
ATOM     23  C   UNL     1      -2.686  -1.460  25.584  0.00  0.00    +0.016 A 
ENDBRANCH  17  18
ENDBRANCH  16  17
TORSDOF 4
ENDMDL
MODEL 8
REMARK VINA RESULT:     -12.0      1.701      3.842
REMARK  Name = 
REMARK  4 active torsions:
REMARK  status: ('A' for Active; 'I' for Inactive)
REMARK    1  A    between atoms: C_5  and  C_6
REMARK    2  A    between atoms: C_7  and  C_8
REMARK    3  A    between atoms: N_16  and  C_17
REMARK    4  A    between atoms: C_17  and  C_18
REMARK                            x       y       z     vdW  Elec       q    Type
REMARK                         _______ _______ _______ _____ _____    ______ ____
ROOT
ATOM      8  C   UNL     1      -2.782   1.866  24.387  0.00  0.00    +0.056 A 
ATOM      9  C   UNL     1      -2.980   2.660  24.493  0.00  0.00    +0.006 A 
ATOM     10  C   UNL     1      -3.741   2.866  24.735  0.00  0.00    +0.013 A 
ATOM     11  C   UNL     1      -4.304   2.279  24.872  0.00  0.00    +0.041 A 
ATOM     12  C   UNL     1      -5.180   2.176  25.131  0.00  0.00    +0.054 C 
ATOM     13  C   UNL     1      -5.744   2.546  25.323  0.00  0.00    +0.011 C 
ATOM     14  C   UNL     1      -5.545   1.763  25.217  0.00  0.00    +0.039 C 
ATOM     15  C   UNL     1      -5.498   0.779  25.146  0.00  0.00    +0.074 C 
ATOM     16  N   UNL     1      -4.704   0.694  24.901  0.00  0.00    -0.267 NA
ATOM     24  C   UNL     1      -5.150   1.223  25.067  0.00  0.00    +0.078 C 
ATOM     25  C   UNL     1      -4.629   1.861  24.946  0.00  0.00    +0.110 C 
ATOM     26  N   UNL     1      -4.105   1.485  24.766  0.00  0.00    -0.299 N 
ATOM     27  C   UNL     1      -3.344   1.279  24.523  0.00  0.00    +0.261 A 
ATOM     28  O   UNL     1      -3.146   0.485  24.417  0.00  0.00    -0.267 OA
ENDROOT
BRANCH   8   7
ATOM      6  C   UNL     1      -1.365   1.969  24.540  0.00  0.00    +0.000 C 
ATOM      7  C   UNL     1      -2.021   1.661  24.145  0.00  0.00    +0.005 C 
BRANCH   6   5
ATOM      1 CL   UNL     1       1.681   1.149  23.572  0.00  0.00    -0.082 Cl
ATOM      2  C   UNL     1       0.919   1.354  23.814  0.00  0.00    +0.058 A 
ATOM      3  C   UNL     1       0.311   0.800  23.771  0.00  0.00    +0.011 A 
ATOM      4  C   UNL     1      -0.452   1.005  24.013  0.00  0.00    +0.001 A 
ATOM      5  C   UNL     1      -0.604   1.765  24.298  0.00  0.00    +0.000 A 
ATOM     29  C   UNL     1       0.006   2.319  24.341  0.00  0.00    +0.001 A 
ATOM     30  C   UNL     1       0.768   2.114  24.099  0.00  0.00    +0.011 A 
ENDBRANCH   6   5
ENDBRANCH   8   7
BRANCH  16  17
ATOM     17  C   UNL     1      -4.006   0.319  24.668  0.00  0.00    +0.119 C 
BRANCH  17  18
ATOM     18  C   UNL     1      -3.976  -0.504  24.621  0.00  0.00    +0.075 A 
ATOM     19  N   UNL     1      -4.222  -0.887  23.934  0.00  0.00    -0.247 NA
ATOM     20  C   UNL     1      -4.192  -1.711  23.887  0.00  0.00    +0.098 A 
ATOM     21  C   UNL     1      -3.914  -2.150  24.528  0.00  0.00    +0.021 A 
ATOM     22  C   UNL     1      -3.668  -1.767  25.215  0.00  0.00    +0.003 A 
ATOM     23  C   UNL     1      -3.698  -0.944  25.262  0.00  0.00    +0.016 A 
ENDBRANCH  17  18
ENDBRANCH  16  17
TORSDOF 4
ENDMDL
