MODEL 1
REMARK VINA RESULT:     -13.2      0.000      0.000
REMARK  Name = 
REMARK  5 active torsions:
REMARK  status: ('A' for Active; 'I' for Inactive)
REMARK    1  A    between atoms: C_2  and  C_5
REMARK    2  A    between atoms: C_8  and  C_11
REMARK    3  A    between atoms: N_20  and  C_24
REMARK    4  A    between atoms: C_27  and  O_28
REMARK    5  A    between atoms: O_28  and  C_29
REMARK                            x       y       z     vdW  Elec       q    Type
REMARK                         _______ _______ _______ _____ _____    ______ ____
ROOT
ATOM     11  C   UNL     1      -3.906   0.168  24.822  0.00  0.00    +0.249 C 
ATOM     12  O   UNL     1      -3.194   0.585  24.837  0.00  0.00    -0.270 OA
ATOM     13  N   UNL     1      -4.619   0.566  24.947  0.00  0.00    -0.268 N 
ATOM     14  C   UNL     1      -5.370   0.225  24.949  0.00  0.00    +0.096 C 
ATOM     15  C   UNL     1      -5.921   0.822  25.095  0.00  0.00    +0.045 C 
ATOM     16  C   UNL     1      -5.510   1.531  25.183  0.00  0.00    +0.126 C 
ATOM     17  N   UNL     1      -5.763   2.301  25.335  0.00  0.00    -0.187 NA
ATOM     18  C   UNL     1      -5.214   2.913  25.395  0.00  0.00    +0.333 C 
ATOM     19  O   UNL     1      -5.467   3.683  25.547  0.00  0.00    -0.250 OA
ATOM     20  N   UNL     1      -4.409   2.754  25.304  0.00  0.00    -0.190 N 
ATOM     21  C   UNL     1      -4.154   1.985  25.152  0.00  0.00    +0.256 C 
ATOM     22  O   UNL     1      -3.350   1.827  25.061  0.00  0.00    -0.272 OA
ATOM     23  C   UNL     1      -4.705   1.373  25.092  0.00  0.00    +0.173 C 
ENDROOT
BRANCH  11   8
ATOM      5  C   UNL     1      -3.906  -2.272  24.408  0.00  0.00    +0.071 A 
ATOM      6  C   UNL     1      -4.124  -1.751  23.806  0.00  0.00    +0.004 A 
ATOM      7  C   UNL     1      -4.124  -0.937  23.944  0.00  0.00    +0.004 A 
ATOM      8  C   UNL     1      -3.906  -0.645  24.684  0.00  0.00    +0.054 A 
ATOM      9  C   UNL     1      -3.689  -1.166  25.286  0.00  0.00    +0.004 A 
ATOM     10  C   UNL     1      -3.689  -1.979  25.148  0.00  0.00    +0.004 A 
BRANCH   5   2
ATOM      1  F   UNL     1      -3.908  -3.898  24.130  0.00  0.00    -0.166 F 
ATOM      2  C   UNL     1      -3.907  -3.085  24.269  0.00  0.00    +0.419 C 
ATOM      3  F   UNL     1      -4.288  -2.962  23.548  0.00  0.00    -0.166 F 
ATOM      4  F   UNL     1      -3.526  -3.209  24.990  0.00  0.00    -0.166 F 
ENDBRANCH   5   2
ENDBRANCH  11   8
BRANCH  20  24
ATOM     24  C   UNL     1      -3.858   3.367  25.365  0.00  0.00    +0.062 A 
ATOM     25  C   UNL     1      -3.502   3.530  26.090  0.00  0.00    +0.018 A 
ATOM     26  C   UNL     1      -2.951   4.142  26.151  0.00  0.00    +0.039 A 
ATOM     27  C   UNL     1      -2.758   4.590  25.486  0.00  0.00    +0.145 A 
ATOM     35  C   UNL     1      -3.115   4.426  24.760  0.00  0.00    +0.039 A 
ATOM     36  C   UNL     1      -3.665   3.815  24.699  0.00  0.00    +0.018 A 
BRANCH  27  28
ATOM     28  O   UNL     1      -2.208   5.201  25.546  0.00  0.00    -0.453 OA
BRANCH  28  29
ATOM     29  C   UNL     1      -1.469   5.128  25.187  0.00  0.00    +0.145 A 
ATOM     30  C   UNL     1      -0.999   4.466  25.339  0.00  0.00    +0.037 A 
ATOM     31  C   UNL     1      -0.260   4.393  24.980  0.00  0.00    +0.003 A 
ATOM     32  C   UNL     1       0.009   4.982  24.468  0.00  0.00    +0.000 A 
ATOM     33  C   UNL     1      -0.459   5.643  24.316  0.00  0.00    +0.003 A 
ATOM     34  C   UNL     1      -1.198   5.716  24.676  0.00  0.00    +0.037 A 
ENDBRANCH  28  29
ENDBRANCH  27  28
ENDBRANCH  20  24
TORSDOF 5
ENDMDL
MODEL 2
REMARK VINA RESULT:     -12.4      3.012      5.985
REMARK  Name = 
REMARK  5 active torsions:
REMARK  status: ('A' for Active; 'I' for Inactive)
REMARK    1  A    between atoms: C_2  and  C_5
REMARK    2  A    between atoms: C_8  and  C_11
REMARK    3  A    between atoms: N_20  and  C_24
REMARK    4  A    between atoms: C_27  and  O_28
REMARK    5  A    between atoms: O_28  and  C_29
REMARK                            x       y       z     vdW  Elec       q    Type
REMARK                         _______ _______ _______ _____ _____    ______ ____
ROOT
ATOM     11  C   UNL     1      -2.612   2.960  24.947  0.00  0.00    +0.249 C 
ATOM     12  O   UNL     1      -2.225   2.232  24.920  0.00  0.00    -0.270 OA
ATOM     13  N   UNL     1      -3.436   2.989  24.972  0.00  0.00    -0.268 N 
ATOM     14  C   UNL     1      -3.897   3.672  25.000  0.00  0.00    +0.096 C 
ATOM     15  C   UNL     1      -4.690   3.445  25.018  0.00  0.00    +0.045 C 
ATOM     16  C   UNL     1      -4.719   2.621  25.001  0.00  0.00    +0.126 C 
ATOM     17  N   UNL     1      -5.350   2.090  25.008  0.00  0.00    -0.187 NA
ATOM     18  C   UNL     1      -5.207   1.278  24.986  0.00  0.00    +0.333 C 
ATOM     19  O   UNL     1      -5.839   0.747  24.993  0.00  0.00    -0.250 OA
ATOM     20  N   UNL     1      -4.433   0.997  24.957  0.00  0.00    -0.190 N 
ATOM     21  C   UNL     1      -3.800   1.526  24.950  0.00  0.00    +0.256 C 
ATOM     22  O   UNL     1      -3.026   1.245  24.922  0.00  0.00    -0.272 OA
ATOM     23  C   UNL     1      -3.944   2.339  24.972  0.00  0.00    +0.173 C 
ENDROOT
BRANCH  11   8
ATOM      5  C   UNL     1      -1.301   5.060  24.952  0.00  0.00    +0.071 A 
ATOM      6  C   UNL     1      -1.589   4.752  25.662  0.00  0.00    +0.004 A 
ATOM      7  C   UNL     1      -2.026   4.052  25.660  0.00  0.00    +0.004 A 
ATOM      8  C   UNL     1      -2.175   3.660  24.949  0.00  0.00    +0.054 A 
ATOM      9  C   UNL     1      -1.887   3.969  24.240  0.00  0.00    +0.004 A 
ATOM     10  C   UNL     1      -1.450   4.669  24.242  0.00  0.00    +0.004 A 
BRANCH   5   2
ATOM      1  F   UNL     1      -0.427   6.459  24.957  0.00  0.00    -0.166 F 
ATOM      2  C   UNL     1      -0.864   5.760  24.955  0.00  0.00    +0.419 C 
ATOM      3  F   UNL     1      -0.176   5.331  24.802  0.00  0.00    -0.166 F 
ATOM      4  F   UNL     1      -1.552   6.190  25.107  0.00  0.00    -0.166 F 
ENDBRANCH   5   2
ENDBRANCH  11   8
BRANCH  20  24
ATOM     24  C   UNL     1      -4.289   0.184  24.936  0.00  0.00    +0.062 A 
ATOM     25  C   UNL     1      -4.090  -0.218  25.628  0.00  0.00    +0.018 A 
ATOM     26  C   UNL     1      -3.947  -1.031  25.606  0.00  0.00    +0.039 A 
ATOM     27  C   UNL     1      -4.003  -1.441  24.892  0.00  0.00    +0.145 A 
ATOM     35  C   UNL     1      -4.203  -1.038  24.200  0.00  0.00    +0.039 A 
ATOM     36  C   UNL     1      -4.346  -0.226  24.222  0.00  0.00    +0.018 A 
BRANCH  27  28
ATOM     28  O   UNL     1      -3.860  -2.252  24.871  0.00  0.00    -0.453 OA
BRANCH  28  29
ATOM     29  C   UNL     1      -3.119  -2.534  24.641  0.00  0.00    +0.145 A 
ATOM     30  C   UNL     1      -3.046  -2.995  23.959  0.00  0.00    +0.037 A 
ATOM     31  C   UNL     1      -2.306  -3.277  23.730  0.00  0.00    +0.003 A 
ATOM     32  C   UNL     1      -1.639  -3.099  24.182  0.00  0.00    +0.000 A 
ATOM     33  C   UNL     1      -1.711  -2.640  24.862  0.00  0.00    +0.003 A 
ATOM     34  C   UNL     1      -2.452  -2.357  25.092  0.00  0.00    +0.037 A 
ENDBRANCH  28  29
ENDBRANCH  27  28
ENDBRANCH  20  24
TORSDOF 5
ENDMDL
MODEL 3
REMARK VINA RESULT:     -11.3      3.713      5.443
REMARK  Name = 
REMARK  5 active torsions:
REMARK  status: ('A' for Active; 'I' for Inactive)
REMARK    1  A    between atoms: C_2  and  C_5
REMARK    2  A    between atoms: C_8  and  C_11
REMARK    3  A    between atoms: N_20  and  C_24
REMARK    4  A    between atoms: C_27  and  O_28
REMARK    5  A    between atoms: O_28  and  C_29
REMARK                            x       y       z     vdW  Elec       q    Type
REMARK                         _______ _______ _______ _____ _____    ______ ____
ROOT
ATOM     11  C   UNL     1      -0.156   0.157  23.735  0.00  0.00    +0.249 C 
ATOM     12  O   UNL     1      -0.716   0.752  23.621  0.00  0.00    -0.270 OA
ATOM     13  N   UNL     1      -0.368  -0.542  24.120  0.00  0.00    -0.268 N 
ATOM     14  C   UNL     1       0.130  -1.181  24.272  0.00  0.00    +0.096 C 
ATOM     15  C   UNL     1      -0.310  -1.758  24.667  0.00  0.00    +0.045 C 
ATOM     16  C   UNL     1      -1.078  -1.475  24.757  0.00  0.00    +0.126 C 
ATOM     17  N   UNL     1      -1.751  -1.803  25.104  0.00  0.00    -0.187 NA
ATOM     18  C   UNL     1      -2.459  -1.381  25.113  0.00  0.00    +0.333 C 
ATOM     19  O   UNL     1      -3.132  -1.710  25.460  0.00  0.00    -0.250 OA
ATOM     20  N   UNL     1      -2.495  -0.629  24.775  0.00  0.00    -0.190 N 
ATOM     21  C   UNL     1      -1.823  -0.300  24.428  0.00  0.00    +0.256 C 
ATOM     22  O   UNL     1      -1.860   0.452  24.090  0.00  0.00    -0.272 OA
ATOM     23  C   UNL     1      -1.114  -0.723  24.419  0.00  0.00    +0.173 C 
ENDROOT
BRANCH  11   8
ATOM      5  C   UNL     1       2.162   0.467  22.923  0.00  0.00    +0.071 A 
ATOM      6  C   UNL     1       1.650  -0.044  22.526  0.00  0.00    +0.004 A 
ATOM      7  C   UNL     1       0.877  -0.147  22.796  0.00  0.00    +0.004 A 
ATOM      8  C   UNL     1       0.616   0.260  23.464  0.00  0.00    +0.054 A 
ATOM      9  C   UNL     1       1.128   0.771  23.862  0.00  0.00    +0.004 A 
ATOM     10  C   UNL     1       1.901   0.875  23.591  0.00  0.00    +0.004 A 
BRANCH   5   2
ATOM      1  F   UNL     1       3.706   0.672  22.381  0.00  0.00    -0.166 F 
ATOM      2  C   UNL     1       2.934   0.570  22.652  0.00  0.00    +0.419 C 
ATOM      3  F   UNL     1       2.955  -0.219  22.413  0.00  0.00    -0.166 F 
ATOM      4  F   UNL     1       2.913   1.360  22.891  0.00  0.00    -0.166 F 
ENDBRANCH   5   2
ENDBRANCH  11   8
BRANCH  20  24
ATOM     24  C   UNL     1      -3.204  -0.206  24.784  0.00  0.00    +0.062 A 
ATOM     25  C   UNL     1      -3.662  -0.155  24.100  0.00  0.00    +0.018 A 
ATOM     26  C   UNL     1      -4.371   0.268  24.109  0.00  0.00    +0.039 A 
ATOM     27  C   UNL     1      -4.621   0.639  24.802  0.00  0.00    +0.145 A 
ATOM     35  C   UNL     1      -4.163   0.587  25.486  0.00  0.00    +0.039 A 
ATOM     36  C   UNL     1      -3.455   0.165  25.477  0.00  0.00    +0.018 A 
BRANCH  27  28
ATOM     28  O   UNL     1      -5.329   1.062  24.810  0.00  0.00    -0.453 OA
BRANCH  28  29
ATOM     29  C   UNL     1      -5.331   1.859  25.023  0.00  0.00    +0.145 A 
ATOM     30  C   UNL     1      -4.978   2.419  24.529  0.00  0.00    +0.037 A 
ATOM     31  C   UNL     1      -4.980   3.216  24.741  0.00  0.00    +0.003 A 
ATOM     32  C   UNL     1      -5.335   3.453  25.447  0.00  0.00    +0.000 A 
ATOM     33  C   UNL     1      -5.688   2.894  25.940  0.00  0.00    +0.003 A 
ATOM     34  C   UNL     1      -5.686   2.097  25.728  0.00  0.00    +0.037 A 
ENDBRANCH  28  29
ENDBRANCH  27  28
ENDBRANCH  20  24
TORSDOF 5
ENDMDL
MODEL 4
REMARK VINA RESULT:     -11.3      4.320      5.673
REMARK  Name = 
REMARK  5 active torsions:
REMARK  status: ('A' for Active; 'I' for Inactive)
REMARK    1  A    between atoms: C_2  and  C_5
REMARK    2  A    between atoms: C_8  and  C_11
REMARK    3  A    between atoms: N_20  and  C_24
REMARK    4  A    between atoms: C_27  and  O_28
REMARK    5  A    between atoms: O_28  and  C_29
REMARK                            x       y       z     vdW  Elec       q    Type
REMARK                         _______ _______ _______ _____ _____    ______ ____
ROOT
ATOM     11  C   UNL     1      -2.269   1.763  24.380  0.00  0.00    +0.249 C 
ATOM     12  O   UNL     1      -1.697   2.090  23.883  0.00  0.00    -0.270 OA
ATOM     13  N   UNL     1      -2.159   1.008  24.696  0.00  0.00    -0.268 N 
ATOM     14  C   UNL     1      -2.680   0.613  25.198  0.00  0.00    +0.096 C 
ATOM     15  C   UNL     1      -2.352  -0.123  25.377  0.00  0.00    +0.045 C 
ATOM     16  C   UNL     1      -1.629  -0.182  24.984  0.00  0.00    +0.126 C 
ATOM     17  N   UNL     1      -1.063  -0.782  24.955  0.00  0.00    -0.187 NA
ATOM     18  C   UNL     1      -0.379  -0.683  24.506  0.00  0.00    +0.333 C 
ATOM     19  O   UNL     1       0.187  -1.283  24.477  0.00  0.00    -0.250 OA
ATOM     20  N   UNL     1      -0.260   0.017  24.085  0.00  0.00    -0.190 N 
ATOM     21  C   UNL     1      -0.825   0.617  24.114  0.00  0.00    +0.256 C 
ATOM     22  O   UNL     1      -0.706   1.317  23.693  0.00  0.00    -0.272 OA
ATOM     23  C   UNL     1      -1.510   0.517  24.563  0.00  0.00    +0.173 C 
ENDROOT
BRANCH  11   8
ATOM      5  C   UNL     1      -4.314   3.046  24.927  0.00  0.00    +0.071 A 
ATOM      6  C   UNL     1      -3.627   3.155  25.372  0.00  0.00    +0.004 A 
ATOM      7  C   UNL     1      -2.945   2.728  25.190  0.00  0.00    +0.004 A 
ATOM      8  C   UNL     1      -2.950   2.191  24.563  0.00  0.00    +0.054 A 
ATOM      9  C   UNL     1      -3.637   2.082  24.119  0.00  0.00    +0.004 A 
ATOM     10  C   UNL     1      -4.319   2.510  24.301  0.00  0.00    +0.004 A 
BRANCH   5   2
ATOM      1  F   UNL     1      -5.677   3.901  25.293  0.00  0.00    -0.166 F 
ATOM      2  C   UNL     1      -4.995   3.474  25.110  0.00  0.00    +0.419 C 
ATOM      3  F   UNL     1      -5.317   2.806  25.471  0.00  0.00    -0.166 F 
ATOM      4  F   UNL     1      -4.673   4.142  24.749  0.00  0.00    -0.166 F 
ENDBRANCH   5   2
ENDBRANCH  11   8
BRANCH  20  24
ATOM     24  C   UNL     1       0.425   0.116  23.636  0.00  0.00    +0.062 A 
ATOM     25  C   UNL     1       0.555  -0.357  22.972  0.00  0.00    +0.018 A 
ATOM     26  C   UNL     1       1.240  -0.257  22.523  0.00  0.00    +0.039 A 
ATOM     27  C   UNL     1       1.795   0.315  22.736  0.00  0.00    +0.145 A 
ATOM     35  C   UNL     1       1.664   0.788  23.400  0.00  0.00    +0.039 A 
ATOM     36  C   UNL     1       0.980   0.689  23.849  0.00  0.00    +0.018 A 
BRANCH  27  28
ATOM     28  O   UNL     1       2.478   0.414  22.287  0.00  0.00    -0.453 OA
BRANCH  28  29
ATOM     29  C   UNL     1       3.219   0.313  22.636  0.00  0.00    +0.145 A 
ATOM     30  C   UNL     1       3.732   0.956  22.712  0.00  0.00    +0.037 A 
ATOM     31  C   UNL     1       4.472   0.854  23.060  0.00  0.00    +0.003 A 
ATOM     32  C   UNL     1       4.701   0.109  23.333  0.00  0.00    +0.000 A 
ATOM     33  C   UNL     1       4.189  -0.533  23.257  0.00  0.00    +0.003 A 
ATOM     34  C   UNL     1       3.449  -0.431  22.909  0.00  0.00    +0.037 A 
ENDBRANCH  28  29
ENDBRANCH  27  28
ENDBRANCH  20  24
TORSDOF 5
ENDMDL
MODEL 5
REMARK VINA RESULT:     -10.8      2.299      3.407
REMARK  Name = 
REMARK  5 active torsions:
REMARK  status: ('A' for Active; 'I' for Inactive)
REMARK    1  A    between atoms: C_2  and  C_5
REMARK    2  A    between atoms: C_8  and  C_11
REMARK    3  A    between atoms: N_20  and  C_24
REMARK    4  A    between atoms: C_27  and  O_28
REMARK    5  A    between atoms: O_28  and  C_29
REMARK                            x       y       z     vdW  Elec       q    Type
REMARK                         _______ _______ _______ _____ _____    ______ ____
ROOT
ATOM     11  C   UNL     1      -2.126  -0.567  24.534  0.00  0.00    +0.249 C 
ATOM     12  O   UNL     1      -2.433   0.151  24.800  0.00  0.00    -0.270 OA
ATOM     13  N   UNL     1      -1.338  -0.615  24.293  0.00  0.00    -0.268 N 
ATOM     14  C   UNL     1      -0.957  -1.291  24.016  0.00  0.00    +0.096 C 
ATOM     15  C   UNL     1      -0.176  -1.090  23.839  0.00  0.00    +0.045 C 
ATOM     16  C   UNL     1      -0.076  -0.289  24.006  0.00  0.00    +0.126 C 
ATOM     17  N   UNL     1       0.576   0.213  23.940  0.00  0.00    -0.187 NA
ATOM     18  C   UNL     1       0.511   1.006  24.154  0.00  0.00    +0.333 C 
ATOM     19  O   UNL     1       1.163   1.507  24.088  0.00  0.00    -0.250 OA
ATOM     20  N   UNL     1      -0.207   1.299  24.435  0.00  0.00    -0.190 N 
ATOM     21  C   UNL     1      -0.860   0.799  24.502  0.00  0.00    +0.256 C 
ATOM     22  O   UNL     1      -1.578   1.093  24.783  0.00  0.00    -0.272 OA
ATOM     23  C   UNL     1      -0.794   0.005  24.287  0.00  0.00    +0.173 C 
ENDROOT
BRANCH  11   8
ATOM      5  C   UNL     1      -3.568  -2.577  24.457  0.00  0.00    +0.071 A 
ATOM      6  C   UNL     1      -3.014  -2.489  25.063  0.00  0.00    +0.004 A 
ATOM      7  C   UNL     1      -2.533  -1.819  25.089  0.00  0.00    +0.004 A 
ATOM      8  C   UNL     1      -2.606  -1.237  24.509  0.00  0.00    +0.054 A 
ATOM      9  C   UNL     1      -3.160  -1.325  23.904  0.00  0.00    +0.004 A 
ATOM     10  C   UNL     1      -3.641  -1.995  23.878  0.00  0.00    +0.004 A 
BRANCH   5   2
ATOM      1  F   UNL     1      -4.529  -3.917  24.406  0.00  0.00    -0.166 F 
ATOM      2  C   UNL     1      -4.048  -3.247  24.432  0.00  0.00    +0.419 C 
ATOM      3  F   UNL     1      -4.447  -2.937  23.780  0.00  0.00    -0.166 F 
ATOM      4  F   UNL     1      -3.649  -3.559  25.084  0.00  0.00    -0.166 F 
ENDBRANCH   5   2
ENDBRANCH  11   8
BRANCH  20  24
ATOM     24  C   UNL     1      -0.273   2.094  24.650  0.00  0.00    +0.062 A 
ATOM     25  C   UNL     1      -0.439   2.663  24.076  0.00  0.00    +0.018 A 
ATOM     26  C   UNL     1      -0.505   3.457  24.291  0.00  0.00    +0.039 A 
ATOM     27  C   UNL     1      -0.405   3.682  25.078  0.00  0.00    +0.145 A 
ATOM     35  C   UNL     1      -0.238   3.112  25.651  0.00  0.00    +0.039 A 
ATOM     36  C   UNL     1      -0.173   2.318  25.437  0.00  0.00    +0.018 A 
BRANCH  27  28
ATOM     28  O   UNL     1      -0.471   4.475  25.292  0.00  0.00    -0.453 OA
BRANCH  28  29
ATOM     29  C   UNL     1      -1.211   4.840  25.302  0.00  0.00    +0.145 A 
ATOM     30  C   UNL     1      -1.332   5.541  24.884  0.00  0.00    +0.037 A 
ATOM     31  C   UNL     1      -2.072   5.905  24.895  0.00  0.00    +0.003 A 
ATOM     32  C   UNL     1      -2.691   5.568  25.323  0.00  0.00    +0.000 A 
ATOM     33  C   UNL     1      -2.571   4.867  25.741  0.00  0.00    +0.003 A 
ATOM     34  C   UNL     1      -1.830   4.503  25.730  0.00  0.00    +0.037 A 
ENDBRANCH  28  29
ENDBRANCH  27  28
ENDBRANCH  20  24
TORSDOF 5
ENDMDL
MODEL 6
REMARK VINA RESULT:     -10.1      4.106      6.409
REMARK  Name = 
REMARK  5 active torsions:
REMARK  status: ('A' for Active; 'I' for Inactive)
REMARK    1  A    between atoms: C_2  and  C_5
REMARK    2  A    between atoms: C_8  and  C_11
REMARK    3  A    between atoms: N_20  and  C_24
REMARK    4  A    between atoms: C_27  and  O_28
REMARK    5  A    between atoms: O_28  and  C_29
REMARK                            x       y       z     vdW  Elec       q    Type
REMARK                         _______ _______ _______ _____ _____    ______ ____
ROOT
ATOM     11  C   UNL     1       0.908   0.571  23.506  0.00  0.00    +0.249 C 
ATOM     12  O   UNL     1       0.441  -0.109  23.509  0.00  0.00    -0.270 OA
ATOM     13  N   UNL     1       0.607   1.280  23.803  0.00  0.00    -0.268 N 
ATOM     14  C   UNL     1       1.007   2.000  23.835  0.00  0.00    +0.096 C 
ATOM     15  C   UNL     1       0.501   2.558  24.172  0.00  0.00    +0.045 C 
ATOM     16  C   UNL     1      -0.212   2.182  24.347  0.00  0.00    +0.126 C 
ATOM     17  N   UNL     1      -0.913   2.456  24.685  0.00  0.00    -0.187 NA
ATOM     18  C   UNL     1      -1.547   1.941  24.795  0.00  0.00    +0.333 C 
ATOM     19  O   UNL     1      -2.248   2.216  25.133  0.00  0.00    -0.250 OA
ATOM     20  N   UNL     1      -1.482   1.151  24.566  0.00  0.00    -0.190 N 
ATOM     21  C   UNL     1      -0.781   0.876  24.228  0.00  0.00    +0.256 C 
ATOM     22  O   UNL     1      -0.715   0.086  24.000  0.00  0.00    -0.272 OA
ATOM     23  C   UNL     1      -0.146   1.392  24.119  0.00  0.00    +0.173 C 
ENDROOT
BRANCH  11   8
ATOM      5  C   UNL     1       3.213   0.488  22.607  0.00  0.00    +0.071 A 
ATOM      6  C   UNL     1       2.595   0.130  22.192  0.00  0.00    +0.004 A 
ATOM      7  C   UNL     1       1.827   0.158  22.492  0.00  0.00    +0.004 A 
ATOM      8  C   UNL     1       1.676   0.543  23.205  0.00  0.00    +0.054 A 
ATOM      9  C   UNL     1       2.294   0.901  23.619  0.00  0.00    +0.004 A 
ATOM     10  C   UNL     1       3.062   0.874  23.320  0.00  0.00    +0.004 A 
BRANCH   5   2
ATOM      1  F   UNL     1       4.749   0.432  22.007  0.00  0.00    -0.166 F 
ATOM      2  C   UNL     1       3.981   0.461  22.306  0.00  0.00    +0.419 C 
ATOM      3  F   UNL     1       4.228   0.048  22.977  0.00  0.00    -0.166 F 
ATOM      4  F   UNL     1       3.735   0.873  21.636  0.00  0.00    -0.166 F 
ENDBRANCH   5   2
ENDBRANCH  11   8
BRANCH  20  24
ATOM     24  C   UNL     1      -2.117   0.636  24.676  0.00  0.00    +0.062 A 
ATOM     25  C   UNL     1      -2.719   0.599  24.114  0.00  0.00    +0.018 A 
ATOM     26  C   UNL     1      -3.355   0.083  24.223  0.00  0.00    +0.039 A 
ATOM     27  C   UNL     1      -3.387  -0.395  24.895  0.00  0.00    +0.145 A 
ATOM     35  C   UNL     1      -2.783  -0.358  25.457  0.00  0.00    +0.039 A 
ATOM     36  C   UNL     1      -2.149   0.157  25.347  0.00  0.00    +0.018 A 
BRANCH  27  28
ATOM     28  O   UNL     1      -4.021  -0.910  25.004  0.00  0.00    -0.453 OA
BRANCH  28  29
ATOM     29  C   UNL     1      -3.998  -1.668  24.679  0.00  0.00    +0.145 A 
ATOM     30  C   UNL     1      -3.610  -2.278  25.079  0.00  0.00    +0.037 A 
ATOM     31  C   UNL     1      -3.587  -3.035  24.754  0.00  0.00    +0.003 A 
ATOM     32  C   UNL     1      -3.951  -3.184  24.028  0.00  0.00    +0.000 A 
ATOM     33  C   UNL     1      -4.337  -2.575  23.628  0.00  0.00    +0.003 A 
ATOM     34  C   UNL     1      -4.361  -1.818  23.953  0.00  0.00    +0.037 A 
ENDBRANCH  28  29
ENDBRANCH  27  28
ENDBRANCH  20  24
TORSDOF 5
ENDMDL
MODEL 7
REMARK VINA RESULT:      -9.9      3.707      6.895
REMARK  Name = 
REMARK  5 active torsions:
REMARK  status: ('A' for Active; 'I' for Inactive)
REMARK    1  A    between atoms: C_2  and  C_5
REMARK    2  A    between atoms: C_8  and  C_11
REMARK    3  A    between atoms: N_20  and  C_24
REMARK    4  A    between atoms: C_27  and  O_28
REMARK    5  A    between atoms: O_28  and  C_29
REMARK                            x       y       z     vdW  Elec       q    Type
REMARK                         _______ _______ _______ _____ _____    ______ ____
ROOT
ATOM     11  C   UNL     1      -1.128   2.480  24.771  0.00  0.00    +0.249 C 
ATOM     12  O   UNL     1      -1.729   1.944  24.953  0.00  0.00    -0.270 OA
ATOM     13  N   UNL     1      -0.406   2.207  24.480  0.00  0.00    -0.268 N 
ATOM     14  C   UNL     1       0.242   2.675  24.275  0.00  0.00    +0.096 C 
ATOM     15  C   UNL     1       0.844   2.176  24.011  0.00  0.00    +0.045 C 
ATOM     16  C   UNL     1       0.567   1.400  24.052  0.00  0.00    +0.126 C 
ATOM     17  N   UNL     1       0.918   0.677  23.864  0.00  0.00    -0.187 NA
ATOM     18  C   UNL     1       0.499  -0.025  23.965  0.00  0.00    +0.333 C 
ATOM     19  O   UNL     1       0.850  -0.747  23.776  0.00  0.00    -0.250 OA
ATOM     20  N   UNL     1      -0.274  -0.005  24.255  0.00  0.00    -0.190 N 
ATOM     21  C   UNL     1      -0.626   0.716  24.444  0.00  0.00    +0.256 C 
ATOM     22  O   UNL     1      -1.398   0.736  24.734  0.00  0.00    -0.272 OA
ATOM     23  C   UNL     1      -0.205   1.419  24.342  0.00  0.00    +0.173 C 
ENDROOT
BRANCH  11   8
ATOM      5  C   UNL     1      -1.493   4.906  25.098  0.00  0.00    +0.071 A 
ATOM      6  C   UNL     1      -1.202   4.445  25.718  0.00  0.00    +0.004 A 
ATOM      7  C   UNL     1      -1.080   3.636  25.609  0.00  0.00    +0.004 A 
ATOM      8  C   UNL     1      -1.250   3.288  24.881  0.00  0.00    +0.054 A 
ATOM      9  C   UNL     1      -1.541   3.749  24.261  0.00  0.00    +0.004 A 
ATOM     10  C   UNL     1      -1.662   4.558  24.370  0.00  0.00    +0.004 A 
BRANCH   5   2
ATOM      1  F   UNL     1      -1.736   6.523  25.318  0.00  0.00    -0.166 F 
ATOM      2  C   UNL     1      -1.614   5.714  25.208  0.00  0.00    +0.419 C 
ATOM      3  F   UNL     1      -2.291   5.553  25.651  0.00  0.00    -0.166 F 
ATOM      4  F   UNL     1      -0.938   5.877  24.764  0.00  0.00    -0.166 F 
ENDBRANCH   5   2
ENDBRANCH  11   8
BRANCH  20  24
ATOM     24  C   UNL     1      -0.695  -0.708  24.356  0.00  0.00    +0.062 A 
ATOM     25  C   UNL     1      -0.742  -1.056  25.103  0.00  0.00    +0.018 A 
ATOM     26  C   UNL     1      -1.162  -1.759  25.204  0.00  0.00    +0.039 A 
ATOM     27  C   UNL     1      -1.536  -2.114  24.559  0.00  0.00    +0.145 A 
ATOM     35  C   UNL     1      -1.488  -1.765  23.813  0.00  0.00    +0.039 A 
ATOM     36  C   UNL     1      -1.068  -1.063  23.711  0.00  0.00    +0.018 A 
BRANCH  27  28
ATOM     28  O   UNL     1      -1.956  -2.816  24.660  0.00  0.00    -0.453 OA
BRANCH  28  29
ATOM     29  C   UNL     1      -2.771  -2.830  24.534  0.00  0.00    +0.145 A 
ATOM     30  C   UNL     1      -3.079  -3.219  23.874  0.00  0.00    +0.037 A 
ATOM     31  C   UNL     1      -3.894  -3.234  23.747  0.00  0.00    +0.003 A 
ATOM     32  C   UNL     1      -4.401  -2.860  24.280  0.00  0.00    +0.000 A 
ATOM     33  C   UNL     1      -4.093  -2.471  24.939  0.00  0.00    +0.003 A 
ATOM     34  C   UNL     1      -3.278  -2.457  25.066  0.00  0.00    +0.037 A 
ENDBRANCH  28  29
ENDBRANCH  27  28
ENDBRANCH  20  24
TORSDOF 5
ENDMDL
MODEL 8
REMARK VINA RESULT:      -9.2     20.356     21.854
REMARK  Name = 
REMARK  5 active torsions:
REMARK  status: ('A' for Active; 'I' for Inactive)
REMARK    1  A    between atoms: C_2  and  C_5
REMARK    2  A    between atoms: C_8  and  C_11
REMARK    3  A    between atoms: N_20  and  C_24
REMARK    4  A    between atoms: C_27  and  O_28
REMARK    5  A    between atoms: O_28  and  C_29
REMARK                            x       y       z     vdW  Elec       q    Type
REMARK                         _______ _______ _______ _____ _____    ______ ____
ROOT
ATOM     11  C   UNL     1      16.643  -4.018  24.529  0.00  0.00    +0.249 C 
ATOM     12  O   UNL     1      16.380  -3.992  25.310  0.00  0.00    -0.270 OA
ATOM     13  N   UNL     1      16.914  -4.728  24.208  0.00  0.00    -0.268 N 
ATOM     14  C   UNL     1      17.193  -4.837  23.439  0.00  0.00    +0.096 C 
ATOM     15  C   UNL     1      17.404  -5.631  23.355  0.00  0.00    +0.045 C 
ATOM     16  C   UNL     1      17.256  -6.011  24.071  0.00  0.00    +0.126 C 
ATOM     17  N   UNL     1      17.357  -6.793  24.313  0.00  0.00    -0.187 NA
ATOM     18  C   UNL     1      17.156  -7.018  25.080  0.00  0.00    +0.333 C 
ATOM     19  O   UNL     1      17.258  -7.801  25.322  0.00  0.00    -0.250 OA
ATOM     20  N   UNL     1      16.853  -6.460  25.607  0.00  0.00    -0.190 N 
ATOM     21  C   UNL     1      16.751  -5.678  25.367  0.00  0.00    +0.256 C 
ATOM     22  O   UNL     1      16.448  -5.120  25.894  0.00  0.00    -0.272 OA
ATOM     23  C   UNL     1      16.953  -5.453  24.598  0.00  0.00    +0.173 C 
ENDROOT
BRANCH  11   8
ATOM      5  C   UNL     1      16.622  -1.964  23.147  0.00  0.00    +0.071 A 
ATOM      6  C   UNL     1      17.292  -2.159  23.587  0.00  0.00    +0.004 A 
ATOM      7  C   UNL     1      17.300  -2.843  24.048  0.00  0.00    +0.004 A 
ATOM      8  C   UNL     1      16.637  -3.333  24.069  0.00  0.00    +0.054 A 
ATOM      9  C   UNL     1      15.966  -3.139  23.629  0.00  0.00    +0.004 A 
ATOM     10  C   UNL     1      15.959  -2.455  23.168  0.00  0.00    +0.004 A 
BRANCH   5   2
ATOM      1  F   UNL     1      16.610  -0.595  22.226  0.00  0.00    -0.166 F 
ATOM      2  C   UNL     1      16.615  -1.280  22.687  0.00  0.00    +0.419 C 
ATOM      3  F   UNL     1      17.404  -1.139  22.885  0.00  0.00    -0.166 F 
ATOM      4  F   UNL     1      15.827  -1.420  22.488  0.00  0.00    -0.166 F 
ENDBRANCH   5   2
ENDBRANCH  11   8
BRANCH  20  24
ATOM     24  C   UNL     1      16.652  -6.685  26.376  0.00  0.00    +0.062 A 
ATOM     25  C   UNL     1      15.938  -7.074  26.517  0.00  0.00    +0.018 A 
ATOM     26  C   UNL     1      15.737  -7.299  27.286  0.00  0.00    +0.039 A 
ATOM     27  C   UNL     1      16.249  -7.134  27.911  0.00  0.00    +0.145 A 
ATOM     35  C   UNL     1      16.962  -6.745  27.768  0.00  0.00    +0.039 A 
ATOM     36  C   UNL     1      17.164  -6.521  27.001  0.00  0.00    +0.018 A 
BRANCH  27  28
ATOM     28  O   UNL     1      16.047  -7.359  28.678  0.00  0.00    -0.453 OA
BRANCH  28  29
ATOM     29  C   UNL     1      15.584  -6.861  29.146  0.00  0.00    +0.145 A 
ATOM     30  C   UNL     1      14.761  -6.926  29.129  0.00  0.00    +0.037 A 
ATOM     31  C   UNL     1      14.298  -6.428  29.596  0.00  0.00    +0.003 A 
ATOM     32  C   UNL     1      14.658  -5.865  30.080  0.00  0.00    +0.000 A 
ATOM     33  C   UNL     1      15.480  -5.800  30.097  0.00  0.00    +0.003 A 
ATOM     34  C   UNL     1      15.943  -6.298  29.630  0.00  0.00    +0.037 A 
ENDBRANCH  28  29
ENDBRANCH  27  28
ENDBRANCH  20  24
TORSDOF 5
ENDMDL
