MODEL 1
REMARK VINA RESULT:      -9.5      0.000      0.000
REMARK  Name = 
REMARK  7 active torsions:
REMARK  status: ('A' for Active; 'I' for Inactive)
REMARK    1  A    between atoms: C_2  and  C_4
REMARK    2  A    between atoms: C_6  and  C_7
REMARK    3  A    between atoms: C_7  and  C_8
REMARK    4  A    between atoms: C_11  and  C_13
REMARK    5  A    between atoms: C_23  and  C_24
REMARK    6  A    between atoms: C_24  and  N_25
REMARK    7  A    between atoms: N_28  and  C_31
REMARK                            x       y       z     vdW  Elec       q    Type
REMARK                         _______ _______ _______ _____ _____    ______ ____
ROOT
ATOM      4  C   UNL     1      -1.806   2.415  25.034  0.00  0.00    +0.006 C 
ATOM      5  C   UNL     1      -2.586   2.217  24.855  0.00  0.00    +0.005 C 
ATOM      6  C   UNL     1      -2.784   1.963  24.095  0.00  0.00    +0.027 C 
ATOM     20  C   UNL     1      -2.200   1.906  23.515  0.00  0.00    -0.048 C 
ATOM     21  C   UNL     1      -2.397   1.652  22.755  0.00  0.00    +0.026 C 
ATOM     22  C   UNL     1      -1.419   2.104  23.694  0.00  0.00    -0.034 C 
ATOM     23  C   UNL     1      -1.222   2.359  24.453  0.00  0.00    +0.037 C 
ENDROOT
BRANCH   4   2
ATOM      1  C   UNL     1      -1.651   3.471  25.984  0.00  0.00    +0.000 C 
ATOM      2  C   UNL     1      -1.608   2.670  25.793  0.00  0.00    +0.000 C 
ATOM      3  C   UNL     1      -1.368   2.122  26.362  0.00  0.00    +0.000 C 
ENDBRANCH   4   2
BRANCH   6   7
ATOM      7  C   UNL     1      -3.564   1.765  23.916  0.00  0.00    +0.091 C 
BRANCH   7   8
ATOM      8  C   UNL     1      -3.890   1.066  24.212  0.00  0.00    +0.227 A 
ATOM      9  N   UNL     1      -4.576   1.007  24.666  0.00  0.00    -0.111 NA
ATOM     10  N   UNL     1      -4.698   0.209  24.839  0.00  0.00    -0.107 NA
ATOM     11  C   UNL     1      -4.088  -0.223  24.492  0.00  0.00    +0.252 A 
ATOM     12  O   UNL     1      -3.588   0.307  24.104  0.00  0.00    -0.419 OA
BRANCH  11  13
ATOM     13  C   UNL     1      -3.993  -1.042  24.526  0.00  0.00    +0.083 A 
ATOM     14  C   UNL     1      -4.274  -1.516  23.912  0.00  0.00    +0.007 A 
ATOM     15  C   UNL     1      -4.179  -2.335  23.944  0.00  0.00    +0.000 A 
ATOM     16  C   UNL     1      -3.803  -2.680  24.593  0.00  0.00    +0.002 A 
ATOM     17  C   UNL     1      -3.522  -2.207  25.208  0.00  0.00    +0.030 A 
ATOM     18  C   UNL     1      -3.617  -1.387  25.173  0.00  0.00    +0.145 A 
ATOM     19  F   UNL     1      -3.336  -0.914  25.788  0.00  0.00    -0.204 F 
ENDBRANCH  11  13
ENDBRANCH   7   8
ENDBRANCH   6   7
BRANCH  23  24
ATOM     24  C   UNL     1      -0.442   2.556  24.632  0.00  0.00    +0.076 C 
BRANCH  24  25
ATOM     25  N   UNL     1       0.179   2.154  24.269  0.00  0.00    -0.269 NA
ATOM     26  C   UNL     1       0.289   1.348  24.413  0.00  0.00    +0.094 C 
ATOM     27  C   UNL     1       0.911   0.945  24.050  0.00  0.00    +0.110 C 
ATOM     28  N   UNL     1       1.422   1.348  23.542  0.00  0.00    -0.289 N 
ATOM     29  C   UNL     1       1.313   2.152  23.399  0.00  0.00    +0.110 C 
ATOM     30  C   UNL     1       0.691   2.555  23.762  0.00  0.00    +0.094 C 
BRANCH  28  31
ATOM     31  C   UNL     1       2.044   0.944  23.179  0.00  0.00    +0.151 A 
ATOM     32  C   UNL     1       1.901   0.230  22.791  0.00  0.00    +0.133 A 
ATOM     33  N   UNL     1       2.523  -0.173  22.427  0.00  0.00    -0.238 NA
ATOM     34  C   UNL     1       3.287   0.138  22.452  0.00  0.00    +0.120 A 
ATOM     35  C   UNL     1       3.429   0.852  22.841  0.00  0.00    +0.121 A 
ATOM     36  N   UNL     1       2.808   1.255  23.204  0.00  0.00    -0.226 NA
ENDBRANCH  28  31
ENDBRANCH  24  25
ENDBRANCH  23  24
TORSDOF 7
ENDMDL
MODEL 2
REMARK VINA RESULT:      -9.5      1.791      2.647
REMARK  Name = 
REMARK  7 active torsions:
REMARK  status: ('A' for Active; 'I' for Inactive)
REMARK    1  A    between atoms: C_2  and  C_4
REMARK    2  A    between atoms: C_6  and  C_7
REMARK    3  A    between atoms: C_7  and  C_8
REMARK    4  A    between atoms: C_11  and  C_13
REMARK    5  A    between atoms: C_23  and  C_24
REMARK    6  A    between atoms: C_24  and  N_25
REMARK    7  A    between atoms: N_28  and  C_31
REMARK                            x       y       z     vdW  Elec       q    Type
REMARK                         _______ _______ _______ _____ _____    ______ ____
ROOT
ATOM      4  C   UNL     1      -2.007   0.454  24.304  0.00  0.00    +0.006 C 
ATOM      5  C   UNL     1      -2.659   0.849  23.993  0.00  0.00    +0.005 C 
ATOM      6  C   UNL     1      -2.555   1.424  23.410  0.00  0.00    +0.027 C 
ATOM     20  C   UNL     1      -1.797   1.602  23.138  0.00  0.00    -0.048 C 
ATOM     21  C   UNL     1      -1.691   2.177  22.556  0.00  0.00    +0.026 C 
ATOM     22  C   UNL     1      -1.143   1.206  23.450  0.00  0.00    -0.034 C 
ATOM     23  C   UNL     1      -1.248   0.632  24.033  0.00  0.00    +0.037 C 
ENDROOT
BRANCH   4   2
ATOM      1  C   UNL     1      -1.990   0.069  25.680  0.00  0.00    +0.000 C 
ATOM      2  C   UNL     1      -2.111  -0.120  24.886  0.00  0.00    +0.000 C 
ATOM      3  C   UNL     1      -2.339  -0.886  24.675  0.00  0.00    +0.000 C 
ENDBRANCH   4   2
BRANCH   6   7
ATOM      7  C   UNL     1      -3.208   1.820  23.098  0.00  0.00    +0.091 C 
BRANCH   7   8
ATOM      8  C   UNL     1      -3.728   2.217  23.601  0.00  0.00    +0.227 A 
ATOM      9  N   UNL     1      -3.789   3.035  23.687  0.00  0.00    -0.111 NA
ATOM     10  N   UNL     1      -4.377   3.189  24.245  0.00  0.00    -0.107 NA
ATOM     11  C   UNL     1      -4.679   2.466  24.503  0.00  0.00    +0.252 A 
ATOM     12  O   UNL     1      -4.278   1.865  24.105  0.00  0.00    -0.419 OA
BRANCH  11  13
ATOM     13  C   UNL     1      -5.278   2.362  25.061  0.00  0.00    +0.083 A 
ATOM     14  C   UNL     1      -5.950   1.925  24.868  0.00  0.00    +0.007 A 
ATOM     15  C   UNL     1      -6.550   1.820  25.426  0.00  0.00    +0.000 A 
ATOM     16  C   UNL     1      -6.475   2.154  26.177  0.00  0.00    +0.002 A 
ATOM     17  C   UNL     1      -5.803   2.591  26.371  0.00  0.00    +0.030 A 
ATOM     18  C   UNL     1      -5.204   2.695  25.812  0.00  0.00    +0.145 A 
ATOM     19  F   UNL     1      -4.533   3.132  26.006  0.00  0.00    -0.204 F 
ENDBRANCH  11  13
ENDBRANCH   7   8
ENDBRANCH   6   7
BRANCH  23  24
ATOM     24  C   UNL     1      -0.595   0.237  24.344  0.00  0.00    +0.076 C 
BRANCH  24  25
ATOM     25  N   UNL     1       0.138   0.292  23.970  0.00  0.00    -0.269 NA
ATOM     26  C   UNL     1       0.375  -0.293  23.438  0.00  0.00    +0.094 C 
ATOM     27  C   UNL     1       1.108  -0.237  23.063  0.00  0.00    +0.110 C 
ATOM     28  N   UNL     1       1.604   0.403  23.221  0.00  0.00    -0.289 N 
ATOM     29  C   UNL     1       1.367   0.987  23.753  0.00  0.00    +0.110 C 
ATOM     30  C   UNL     1       0.634   0.932  24.127  0.00  0.00    +0.094 C 
BRANCH  28  31
ATOM     31  C   UNL     1       2.338   0.459  22.846  0.00  0.00    +0.151 A 
ATOM     32  C   UNL     1       2.465   0.070  22.130  0.00  0.00    +0.133 A 
ATOM     33  N   UNL     1       3.198   0.125  21.755  0.00  0.00    -0.238 NA
ATOM     34  C   UNL     1       3.804   0.569  22.098  0.00  0.00    +0.120 A 
ATOM     35  C   UNL     1       3.675   0.958  22.814  0.00  0.00    +0.121 A 
ATOM     36  N   UNL     1       2.942   0.902  23.188  0.00  0.00    -0.226 NA
ENDBRANCH  28  31
ENDBRANCH  24  25
ENDBRANCH  23  24
TORSDOF 7
ENDMDL
MODEL 3
REMARK VINA RESULT:      -9.3      1.910      3.542
REMARK  Name = 
REMARK  7 active torsions:
REMARK  status: ('A' for Active; 'I' for Inactive)
REMARK    1  A    between atoms: C_2  and  C_4
REMARK    2  A    between atoms: C_6  and  C_7
REMARK    3  A    between atoms: C_7  and  C_8
REMARK    4  A    between atoms: C_11  and  C_13
REMARK    5  A    between atoms: C_23  and  C_24
REMARK    6  A    between atoms: C_24  and  N_25
REMARK    7  A    between atoms: N_28  and  C_31
REMARK                            x       y       z     vdW  Elec       q    Type
REMARK                         _______ _______ _______ _____ _____    ______ ____
ROOT
ATOM      4  C   UNL     1      -3.226  -0.915  25.142  0.00  0.00    +0.006 C 
ATOM      5  C   UNL     1      -3.946  -0.540  24.999  0.00  0.00    +0.005 C 
ATOM      6  C   UNL     1      -4.015  -0.003  24.376  0.00  0.00    +0.027 C 
ATOM     20  C   UNL     1      -3.363   0.157  23.896  0.00  0.00    -0.048 C 
ATOM     21  C   UNL     1      -3.431   0.693  23.272  0.00  0.00    +0.026 C 
ATOM     22  C   UNL     1      -2.642  -0.219  24.039  0.00  0.00    -0.034 C 
ATOM     23  C   UNL     1      -2.574  -0.755  24.662  0.00  0.00    +0.037 C 
ENDROOT
BRANCH   4   2
ATOM      1  C   UNL     1      -3.298  -2.254  25.636  0.00  0.00    +0.000 C 
ATOM      2  C   UNL     1      -3.157  -1.451  25.765  0.00  0.00    +0.000 C 
ATOM      3  C   UNL     1      -2.947  -1.184  26.517  0.00  0.00    +0.000 C 
ENDBRANCH   4   2
BRANCH   6   7
ATOM      7  C   UNL     1      -4.735   0.372  24.232  0.00  0.00    +0.091 C 
BRANCH   7   8
ATOM      8  C   UNL     1      -4.991   0.978  24.732  0.00  0.00    +0.227 A 
ATOM      9  N   UNL     1      -5.532   0.898  25.350  0.00  0.00    -0.111 NA
ATOM     10  N   UNL     1      -5.627   1.639  25.701  0.00  0.00    -0.107 NA
ATOM     11  C   UNL     1      -5.145   2.175  25.300  0.00  0.00    +0.252 A 
ATOM     12  O   UNL     1      -4.752   1.766  24.701  0.00  0.00    -0.419 OA
BRANCH  11  13
ATOM     13  C   UNL     1      -5.069   2.979  25.468  0.00  0.00    +0.083 A 
ATOM     14  C   UNL     1      -5.714   3.484  25.370  0.00  0.00    +0.007 A 
ATOM     15  C   UNL     1      -5.639   4.288  25.537  0.00  0.00    +0.000 A 
ATOM     16  C   UNL     1      -4.917   4.588  25.803  0.00  0.00    +0.002 A 
ATOM     17  C   UNL     1      -4.271   4.084  25.902  0.00  0.00    +0.030 A 
ATOM     18  C   UNL     1      -4.348   3.279  25.734  0.00  0.00    +0.145 A 
ATOM     19  F   UNL     1      -3.703   2.775  25.832  0.00  0.00    -0.204 F 
ENDBRANCH  11  13
ENDBRANCH   7   8
ENDBRANCH   6   7
BRANCH  23  24
ATOM     24  C   UNL     1      -1.854  -1.130  24.805  0.00  0.00    +0.076 C 
BRANCH  24  25
ATOM     25  N   UNL     1      -1.161  -0.835  24.469  0.00  0.00    -0.269 NA
ATOM     26  C   UNL     1      -0.806  -0.159  24.782  0.00  0.00    +0.094 C 
ATOM     27  C   UNL     1      -0.113   0.136  24.446  0.00  0.00    +0.110 C 
ATOM     28  N   UNL     1       0.225  -0.245  23.797  0.00  0.00    -0.289 N 
ATOM     29  C   UNL     1      -0.129  -0.921  23.485  0.00  0.00    +0.110 C 
ATOM     30  C   UNL     1      -0.822  -1.216  23.821  0.00  0.00    +0.094 C 
BRANCH  28  31
ATOM     31  C   UNL     1       0.919   0.050  23.461  0.00  0.00    +0.151 A 
ATOM     32  C   UNL     1       1.242   0.758  23.736  0.00  0.00    +0.133 A 
ATOM     33  N   UNL     1       1.935   1.053  23.400  0.00  0.00    -0.238 NA
ATOM     34  C   UNL     1       2.306   0.640  22.788  0.00  0.00    +0.120 A 
ATOM     35  C   UNL     1       1.982  -0.067  22.514  0.00  0.00    +0.121 A 
ATOM     36  N   UNL     1       1.289  -0.362  22.850  0.00  0.00    -0.226 NA
ENDBRANCH  28  31
ENDBRANCH  24  25
ENDBRANCH  23  24
TORSDOF 7
ENDMDL
MODEL 4
REMARK VINA RESULT:      -9.2      2.819      4.089
REMARK  Name = 
REMARK  7 active torsions:
REMARK  status: ('A' for Active; 'I' for Inactive)
REMARK    1  A    between atoms: C_2  and  C_4
REMARK    2  A    between atoms: C_6  and  C_7
REMARK    3  A    between atoms: C_7  and  C_8
REMARK    4  A    between atoms: C_11  and  C_13
REMARK    5  A    between atoms: C_23  and  C_24
REMARK    6  A    between atoms: C_24  and  N_25
REMARK    7  A    between atoms: N_28  and  C_31
REMARK                            x       y       z     vdW  Elec       q    Type
REMARK                         _______ _______ _______ _____ _____    ______ ____
ROOT
ATOM      4  C   UNL     1      -5.019   1.268  24.938  0.00  0.00    +0.006 C 
ATOM      5  C   UNL     1      -4.944   0.486  24.687  0.00  0.00    +0.005 C 
ATOM      6  C   UNL     1      -4.377   0.286  24.122  0.00  0.00    +0.027 C 
ATOM     20  C   UNL     1      -3.885   0.868  23.808  0.00  0.00    -0.048 C 
ATOM     21  C   UNL     1      -3.318   0.669  23.243  0.00  0.00    +0.026 C 
ATOM     22  C   UNL     1      -3.960   1.651  24.059  0.00  0.00    -0.034 C 
ATOM     23  C   UNL     1      -4.527   1.850  24.623  0.00  0.00    +0.037 C 
ENDROOT
BRANCH   4   2
ATOM      1  C   UNL     1      -5.440   1.327  26.302  0.00  0.00    +0.000 C 
ATOM      2  C   UNL     1      -5.586   1.468  25.502  0.00  0.00    +0.000 C 
ATOM      3  C   UNL     1      -6.300   1.809  25.267  0.00  0.00    +0.000 C 
ENDBRANCH   4   2
BRANCH   6   7
ATOM      7  C   UNL     1      -4.303  -0.496  23.871  0.00  0.00    +0.091 C 
BRANCH   7   8
ATOM      8  C   UNL     1      -3.821  -1.020  24.290  0.00  0.00    +0.227 A 
ATOM      9  N   UNL     1      -4.081  -1.645  24.761  0.00  0.00    -0.111 NA
ATOM     10  N   UNL     1      -3.416  -2.022  25.074  0.00  0.00    -0.107 NA
ATOM     11  C   UNL     1      -2.747  -1.628  24.795  0.00  0.00    +0.252 A 
ATOM     12  O   UNL     1      -2.997  -1.009  24.311  0.00  0.00    -0.419 OA
BRANCH  11  13
ATOM     13  C   UNL     1      -1.964  -1.820  24.970  0.00  0.00    +0.083 A 
ATOM     14  C   UNL     1      -1.588  -2.432  24.563  0.00  0.00    +0.007 A 
ATOM     15  C   UNL     1      -0.805  -2.624  24.737  0.00  0.00    +0.000 A 
ATOM     16  C   UNL     1      -0.398  -2.205  25.320  0.00  0.00    +0.002 A 
ATOM     17  C   UNL     1      -0.772  -1.594  25.728  0.00  0.00    +0.030 A 
ATOM     18  C   UNL     1      -1.556  -1.401  25.552  0.00  0.00    +0.145 A 
ATOM     19  F   UNL     1      -1.931  -0.790  25.960  0.00  0.00    -0.204 F 
ENDBRANCH  11  13
ENDBRANCH   7   8
ENDBRANCH   6   7
BRANCH  23  24
ATOM     24  C   UNL     1      -4.601   2.633  24.874  0.00  0.00    +0.076 C 
BRANCH  24  25
ATOM     25  N   UNL     1      -3.940   3.126  24.889  0.00  0.00    -0.269 NA
ATOM     26  C   UNL     1      -3.810   3.660  24.273  0.00  0.00    +0.094 C 
ATOM     27  C   UNL     1      -3.149   4.153  24.287  0.00  0.00    +0.110 C 
ATOM     28  N   UNL     1      -2.618   4.112  24.918  0.00  0.00    -0.289 N 
ATOM     29  C   UNL     1      -2.748   3.579  25.533  0.00  0.00    +0.110 C 
ATOM     30  C   UNL     1      -3.409   3.086  25.518  0.00  0.00    +0.094 C 
BRANCH  28  31
ATOM     31  C   UNL     1      -1.956   4.606  24.932  0.00  0.00    +0.151 A 
ATOM     32  C   UNL     1      -2.046   5.410  25.096  0.00  0.00    +0.133 A 
ATOM     33  N   UNL     1      -1.385   5.904  25.111  0.00  0.00    -0.238 NA
ATOM     34  C   UNL     1      -0.634   5.593  24.962  0.00  0.00    +0.120 A 
ATOM     35  C   UNL     1      -0.546   4.789  24.798  0.00  0.00    +0.121 A 
ATOM     36  N   UNL     1      -1.207   4.296  24.783  0.00  0.00    -0.226 NA
ENDBRANCH  28  31
ENDBRANCH  24  25
ENDBRANCH  23  24
TORSDOF 7
ENDMDL
MODEL 5
REMARK VINA RESULT:      -9.2      1.962      3.946
REMARK  Name = 
REMARK  7 active torsions:
REMARK  status: ('A' for Active; 'I' for Inactive)
REMARK    1  A    between atoms: C_2  and  C_4
REMARK    2  A    between atoms: C_6  and  C_7
REMARK    3  A    between atoms: C_7  and  C_8
REMARK    4  A    between atoms: C_11  and  C_13
REMARK    5  A    between atoms: C_23  and  C_24
REMARK    6  A    between atoms: C_24  and  N_25
REMARK    7  A    between atoms: N_28  and  C_31
REMARK                            x       y       z     vdW  Elec       q    Type
REMARK                         _______ _______ _______ _____ _____    ______ ____
ROOT
ATOM      4  C   UNL     1       0.127  -0.028  24.004  0.00  0.00    +0.006 C 
ATOM      5  C   UNL     1      -0.124  -0.749  24.316  0.00  0.00    +0.005 C 
ATOM      6  C   UNL     1      -0.544  -0.767  25.026  0.00  0.00    +0.027 C 
ATOM     20  C   UNL     1      -0.713  -0.064  25.423  0.00  0.00    -0.048 C 
ATOM     21  C   UNL     1      -1.132  -0.081  26.133  0.00  0.00    +0.026 C 
ATOM     22  C   UNL     1      -0.461   0.657  25.111  0.00  0.00    -0.034 C 
ATOM     23  C   UNL     1      -0.041   0.675  24.401  0.00  0.00    +0.037 C 
ENDROOT
BRANCH   4   2
ATOM      1  C   UNL     1       1.371   0.017  23.302  0.00  0.00    +0.000 C 
ATOM      2  C   UNL     1       0.547  -0.010  23.294  0.00  0.00    +0.000 C 
ATOM      3  C   UNL     1       0.141  -0.020  22.574  0.00  0.00    +0.000 C 
ENDBRANCH   4   2
BRANCH   6   7
ATOM      7  C   UNL     1      -0.795  -1.488  25.339  0.00  0.00    +0.091 C 
BRANCH   7   8
ATOM      8  C   UNL     1      -1.359  -1.938  24.936  0.00  0.00    +0.227 A 
ATOM      9  N   UNL     1      -1.221  -2.656  24.554  0.00  0.00    -0.111 NA
ATOM     10  N   UNL     1      -1.935  -2.911  24.228  0.00  0.00    -0.107 NA
ATOM     11  C   UNL     1      -2.513  -2.351  24.409  0.00  0.00    +0.252 A 
ATOM     12  O   UNL     1      -2.156  -1.749  24.847  0.00  0.00    -0.419 OA
BRANCH  11  13
ATOM     13  C   UNL     1      -3.307  -2.385  24.191  0.00  0.00    +0.083 A 
ATOM     14  C   UNL     1      -3.727  -3.091  24.270  0.00  0.00    +0.007 A 
ATOM     15  C   UNL     1      -4.522  -3.127  24.052  0.00  0.00    +0.000 A 
ATOM     16  C   UNL     1      -4.897  -2.454  23.754  0.00  0.00    +0.002 A 
ATOM     17  C   UNL     1      -4.479  -1.748  23.674  0.00  0.00    +0.030 A 
ATOM     18  C   UNL     1      -3.683  -1.714  23.893  0.00  0.00    +0.145 A 
ATOM     19  F   UNL     1      -3.264  -1.008  23.813  0.00  0.00    -0.204 F 
ENDBRANCH  11  13
ENDBRANCH   7   8
ENDBRANCH   6   7
BRANCH  23  24
ATOM     24  C   UNL     1       0.209   1.396  24.089  0.00  0.00    +0.076 C 
BRANCH  24  25
ATOM     25  N   UNL     1      -0.168   2.094  24.309  0.00  0.00    -0.269 NA
ATOM     26  C   UNL     1       0.140   2.554  24.923  0.00  0.00    +0.094 C 
ATOM     27  C   UNL     1      -0.238   3.253  25.143  0.00  0.00    +0.110 C 
ATOM     28  N   UNL     1      -0.923   3.493  24.751  0.00  0.00    -0.289 N 
ATOM     29  C   UNL     1      -1.230   3.035  24.139  0.00  0.00    +0.110 C 
ATOM     30  C   UNL     1      -0.853   2.335  23.918  0.00  0.00    +0.094 C 
BRANCH  28  31
ATOM     31  C   UNL     1      -1.301   4.194  24.972  0.00  0.00    +0.151 A 
ATOM     32  C   UNL     1      -0.936   4.921  24.833  0.00  0.00    +0.133 A 
ATOM     33  N   UNL     1      -1.314   5.620  25.054  0.00  0.00    -0.238 NA
ATOM     34  C   UNL     1      -2.056   5.593  25.414  0.00  0.00    +0.120 A 
ATOM     35  C   UNL     1      -2.420   4.865  25.552  0.00  0.00    +0.121 A 
ATOM     36  N   UNL     1      -2.043   4.166  25.331  0.00  0.00    -0.226 NA
ENDBRANCH  28  31
ENDBRANCH  24  25
ENDBRANCH  23  24
TORSDOF 7
ENDMDL
MODEL 6
REMARK VINA RESULT:      -9.1      2.866      5.185
REMARK  Name = 
REMARK  7 active torsions:
REMARK  status: ('A' for Active; 'I' for Inactive)
REMARK    1  A    between atoms: C_2  and  C_4
REMARK    2  A    between atoms: C_6  and  C_7
REMARK    3  A    between atoms: C_7  and  C_8
REMARK    4  A    between atoms: C_11  and  C_13
REMARK    5  A    between atoms: C_23  and  C_24
REMARK    6  A    between atoms: C_24  and  N_25
REMARK    7  A    between atoms: N_28  and  C_31
REMARK                            x       y       z     vdW  Elec       q    Type
REMARK                         _______ _______ _______ _____ _____    ______ ____
ROOT
ATOM      4  C   UNL     1      -5.028   2.191  25.019  0.00  0.00    +0.006 C 
ATOM      5  C   UNL     1      -4.665   2.920  24.889  0.00  0.00    +0.005 C 
ATOM      6  C   UNL     1      -4.082   2.994  24.309  0.00  0.00    +0.027 C 
ATOM     20  C   UNL     1      -3.862   2.338  23.860  0.00  0.00    -0.048 C 
ATOM     21  C   UNL     1      -3.279   2.411  23.281  0.00  0.00    +0.026 C 
ATOM     22  C   UNL     1      -4.225   1.608  23.990  0.00  0.00    -0.034 C 
ATOM     23  C   UNL     1      -4.807   1.535  24.570  0.00  0.00    +0.037 C 
ENDROOT
BRANCH   4   2
ATOM      1  C   UNL     1      -5.410   2.180  26.396  0.00  0.00    +0.000 C 
ATOM      2  C   UNL     1      -5.610   2.117  25.597  0.00  0.00    +0.000 C 
ATOM      3  C   UNL     1      -6.394   1.979  25.379  0.00  0.00    +0.000 C 
ENDBRANCH   4   2
BRANCH   6   7
ATOM      7  C   UNL     1      -3.720   3.723  24.179  0.00  0.00    +0.091 C 
BRANCH   7   8
ATOM      8  C   UNL     1      -3.044   3.930  24.607  0.00  0.00    +0.227 A 
ATOM      9  N   UNL     1      -2.888   4.670  24.937  0.00  0.00    -0.111 NA
ATOM     10  N   UNL     1      -2.154   4.631  25.313  0.00  0.00    -0.107 NA
ATOM     11  C   UNL     1      -1.858   3.868  25.214  0.00  0.00    +0.252 A 
ATOM     12  O   UNL     1      -2.408   3.435  24.777  0.00  0.00    -0.419 OA
BRANCH  11  13
ATOM     13  C   UNL     1      -1.138   3.586  25.500  0.00  0.00    +0.083 A 
ATOM     14  C   UNL     1      -1.116   3.134  26.190  0.00  0.00    +0.007 A 
ATOM     15  C   UNL     1      -0.397   2.851  26.478  0.00  0.00    +0.000 A 
ATOM     16  C   UNL     1       0.303   3.023  26.075  0.00  0.00    +0.002 A 
ATOM     17  C   UNL     1       0.283   3.475  25.386  0.00  0.00    +0.030 A 
ATOM     18  C   UNL     1      -0.438   3.757  25.098  0.00  0.00    +0.145 A 
ATOM     19  F   UNL     1      -0.458   4.209  24.409  0.00  0.00    -0.204 F 
ENDBRANCH  11  13
ENDBRANCH   7   8
ENDBRANCH   6   7
BRANCH  23  24
ATOM     24  C   UNL     1      -5.169   0.805  24.699  0.00  0.00    +0.076 C 
BRANCH  24  25
ATOM     25  N   UNL     1      -4.726   0.112  24.660  0.00  0.00    -0.269 NA
ATOM     26  C   UNL     1      -4.228  -0.097  25.285  0.00  0.00    +0.094 C 
ATOM     27  C   UNL     1      -3.784  -0.791  25.245  0.00  0.00    +0.110 C 
ATOM     28  N   UNL     1      -3.837  -1.277  24.580  0.00  0.00    -0.289 N 
ATOM     29  C   UNL     1      -4.334  -1.069  23.956  0.00  0.00    +0.110 C 
ATOM     30  C   UNL     1      -4.778  -0.375  23.995  0.00  0.00    +0.094 C 
BRANCH  28  31
ATOM     31  C   UNL     1      -3.393  -1.972  24.541  0.00  0.00    +0.151 A 
ATOM     32  C   UNL     1      -3.773  -2.704  24.530  0.00  0.00    +0.133 A 
ATOM     33  N   UNL     1      -3.329  -3.398  24.491  0.00  0.00    -0.238 NA
ATOM     34  C   UNL     1      -2.505  -3.360  24.462  0.00  0.00    +0.120 A 
ATOM     35  C   UNL     1      -2.126  -2.627  24.472  0.00  0.00    +0.121 A 
ATOM     36  N   UNL     1      -2.570  -1.933  24.512  0.00  0.00    -0.226 NA
ENDBRANCH  28  31
ENDBRANCH  24  25
ENDBRANCH  23  24
TORSDOF 7
ENDMDL
MODEL 7
REMARK VINA RESULT:      -9.1      2.296      5.985
REMARK  Name = 
REMARK  7 active torsions:
REMARK  status: ('A' for Active; 'I' for Inactive)
REMARK    1  A    between atoms: C_2  and  C_4
REMARK    2  A    between atoms: C_6  and  C_7
REMARK    3  A    between atoms: C_7  and  C_8
REMARK    4  A    between atoms: C_11  and  C_13
REMARK    5  A    between atoms: C_23  and  C_24
REMARK    6  A    between atoms: C_24  and  N_25
REMARK    7  A    between atoms: N_28  and  C_31
REMARK                            x       y       z     vdW  Elec       q    Type
REMARK                         _______ _______ _______ _____ _____    ______ ____
ROOT
ATOM      4  C   UNL     1      -0.301   1.958  24.306  0.00  0.00    +0.006 C 
ATOM      5  C   UNL     1       0.149   1.283  24.157  0.00  0.00    +0.005 C 
ATOM      6  C   UNL     1      -0.217   0.592  23.895  0.00  0.00    +0.027 C 
ATOM     20  C   UNL     1      -1.034   0.575  23.782  0.00  0.00    -0.048 C 
ATOM     21  C   UNL     1      -1.401  -0.115  23.520  0.00  0.00    +0.026 C 
ATOM     22  C   UNL     1      -1.485   1.251  23.931  0.00  0.00    -0.034 C 
ATOM     23  C   UNL     1      -1.118   1.941  24.193  0.00  0.00    +0.037 C 
ENDROOT
BRANCH   4   2
ATOM      1  C   UNL     1       0.234   3.255  24.035  0.00  0.00    +0.000 C 
ATOM      2  C   UNL     1       0.065   2.648  24.568  0.00  0.00    +0.000 C 
ATOM      3  C   UNL     1       0.264   2.733  25.365  0.00  0.00    +0.000 C 
ENDBRANCH   4   2
BRANCH   6   7
ATOM      7  C   UNL     1       0.233  -0.083  23.746  0.00  0.00    +0.091 C 
BRANCH   7   8
ATOM      8  C   UNL     1       0.909  -0.032  23.274  0.00  0.00    +0.227 A 
ATOM      9  N   UNL     1       0.937  -0.131  22.455  0.00  0.00    -0.111 NA
ATOM     10  N   UNL     1       1.720  -0.033  22.214  0.00  0.00    -0.107 NA
ATOM     11  C   UNL     1       2.175   0.126  22.883  0.00  0.00    +0.252 A 
ATOM     12  O   UNL     1       1.674   0.126  23.538  0.00  0.00    -0.419 OA
BRANCH  11  13
ATOM     13  C   UNL     1       2.989   0.260  22.895  0.00  0.00    +0.083 A 
ATOM     14  C   UNL     1       3.287   1.007  22.710  0.00  0.00    +0.007 A 
ATOM     15  C   UNL     1       4.100   1.143  22.722  0.00  0.00    +0.000 A 
ATOM     16  C   UNL     1       4.617   0.530  22.920  0.00  0.00    +0.002 A 
ATOM     17  C   UNL     1       4.320  -0.217  23.105  0.00  0.00    +0.030 A 
ATOM     18  C   UNL     1       3.505  -0.351  23.093  0.00  0.00    +0.145 A 
ATOM     19  F   UNL     1       3.209  -1.098  23.279  0.00  0.00    -0.204 F 
ENDBRANCH  11  13
ENDBRANCH   7   8
ENDBRANCH   6   7
BRANCH  23  24
ATOM     24  C   UNL     1      -1.569   2.616  24.342  0.00  0.00    +0.076 C 
BRANCH  24  25
ATOM     25  N   UNL     1      -2.373   2.546  24.510  0.00  0.00    -0.269 NA
ATOM     26  C   UNL     1      -2.620   2.356  25.274  0.00  0.00    +0.094 C 
ATOM     27  C   UNL     1      -3.425   2.286  25.442  0.00  0.00    +0.110 C 
ATOM     28  N   UNL     1      -3.982   2.405  24.845  0.00  0.00    -0.289 N 
ATOM     29  C   UNL     1      -3.735   2.595  24.082  0.00  0.00    +0.110 C 
ATOM     30  C   UNL     1      -2.931   2.665  23.914  0.00  0.00    +0.094 C 
BRANCH  28  31
ATOM     31  C   UNL     1      -4.788   2.335  25.013  0.00  0.00    +0.151 A 
ATOM     32  C   UNL     1      -5.179   2.939  25.418  0.00  0.00    +0.133 A 
ATOM     33  N   UNL     1      -5.983   2.869  25.585  0.00  0.00    -0.238 NA
ATOM     34  C   UNL     1      -6.397   2.195  25.349  0.00  0.00    +0.120 A 
ATOM     35  C   UNL     1      -6.006   1.592  24.945  0.00  0.00    +0.121 A 
ATOM     36  N   UNL     1      -5.201   1.662  24.777  0.00  0.00    -0.226 NA
ENDBRANCH  28  31
ENDBRANCH  24  25
ENDBRANCH  23  24
TORSDOF 7
ENDMDL
MODEL 8
REMARK VINA RESULT:      -9.0      2.136      4.629
REMARK  Name = 
REMARK  7 active torsions:
REMARK  status: ('A' for Active; 'I' for Inactive)
REMARK    1  A    between atoms: C_2  and  C_4
REMARK    2  A    between atoms: C_6  and  C_7
REMARK    3  A    between atoms: C_7  and  C_8
REMARK    4  A    between atoms: C_11  and  C_13
REMARK    5  A    between atoms: C_23  and  C_24
REMARK    6  A    between atoms: C_24  and  N_25
REMARK    7  A    between atoms: N_28  and  C_31
REMARK                            x       y       z     vdW  Elec       q    Type
REMARK                         _______ _______ _______ _____ _____    ______ ____
ROOT
ATOM      4  C   UNL     1      -0.570   2.146  25.181  0.00  0.00    +0.006 C 
ATOM      5  C   UNL     1      -0.312   1.425  24.877  0.00  0.00    +0.005 C 
ATOM      6  C   UNL     1      -0.670   1.108  24.205  0.00  0.00    +0.027 C 
ATOM     20  C   UNL     1      -1.287   1.513  23.837  0.00  0.00    -0.048 C 
ATOM     21  C   UNL     1      -1.646   1.197  23.165  0.00  0.00    +0.026 C 
ATOM     22  C   UNL     1      -1.546   2.236  24.142  0.00  0.00    -0.034 C 
ATOM     23  C   UNL     1      -1.187   2.552  24.814  0.00  0.00    +0.037 C 
ENDROOT
BRANCH   4   2
ATOM      1  C   UNL     1       0.283   3.120  25.787  0.00  0.00    +0.000 C 
ATOM      2  C   UNL     1      -0.212   2.463  25.853  0.00  0.00    +0.000 C 
ATOM      3  C   UNL     1      -0.348   2.121  26.593  0.00  0.00    +0.000 C 
ENDBRANCH   4   2
BRANCH   6   7
ATOM      7  C   UNL     1      -0.412   0.387  23.900  0.00  0.00    +0.091 C 
BRANCH   7   8
ATOM      8  C   UNL     1      -0.662  -0.321  24.246  0.00  0.00    +0.227 A 
ATOM      9  N   UNL     1      -0.179  -0.869  24.630  0.00  0.00    -0.111 NA
ATOM     10  N   UNL     1      -0.657  -1.490  24.889  0.00  0.00    -0.107 NA
ATOM     11  C   UNL     1      -1.434  -1.325  24.665  0.00  0.00    +0.252 A 
ATOM     12  O   UNL     1      -1.436  -0.602  24.267  0.00  0.00    -0.419 OA
BRANCH  11  13
ATOM     13  C   UNL     1      -2.092  -1.799  24.812  0.00  0.00    +0.083 A 
ATOM     14  C   UNL     1      -2.253  -2.445  24.325  0.00  0.00    +0.007 A 
ATOM     15  C   UNL     1      -2.912  -2.920  24.471  0.00  0.00    +0.000 A 
ATOM     16  C   UNL     1      -3.410  -2.748  25.107  0.00  0.00    +0.002 A 
ATOM     17  C   UNL     1      -3.250  -2.102  25.594  0.00  0.00    +0.030 A 
ATOM     18  C   UNL     1      -2.590  -1.628  25.447  0.00  0.00    +0.145 A 
ATOM     19  F   UNL     1      -2.431  -0.982  25.934  0.00  0.00    -0.204 F 
ENDBRANCH  11  13
ENDBRANCH   7   8
ENDBRANCH   6   7
BRANCH  23  24
ATOM     24  C   UNL     1      -1.446   3.273  25.118  0.00  0.00    +0.076 C 
BRANCH  24  25
ATOM     25  N   UNL     1      -2.253   3.420  25.202  0.00  0.00    -0.269 NA
ATOM     26  C   UNL     1      -2.636   3.226  25.907  0.00  0.00    +0.094 C 
ATOM     27  C   UNL     1      -3.444   3.373  25.992  0.00  0.00    +0.110 C 
ATOM     28  N   UNL     1      -3.868   3.713  25.371  0.00  0.00    -0.289 N 
ATOM     29  C   UNL     1      -3.485   3.906  24.667  0.00  0.00    +0.110 C 
ATOM     30  C   UNL     1      -2.678   3.760  24.582  0.00  0.00    +0.094 C 
BRANCH  28  31
ATOM     31  C   UNL     1      -4.676   3.860  25.456  0.00  0.00    +0.151 A 
ATOM     32  C   UNL     1      -5.192   3.239  25.626  0.00  0.00    +0.133 A 
ATOM     33  N   UNL     1      -5.999   3.385  25.711  0.00  0.00    -0.238 NA
ATOM     34  C   UNL     1      -6.291   4.153  25.625  0.00  0.00    +0.120 A 
ATOM     35  C   UNL     1      -5.774   4.773  25.455  0.00  0.00    +0.121 A 
ATOM     36  N   UNL     1      -4.967   4.626  25.371  0.00  0.00    -0.226 NA
ENDBRANCH  28  31
ENDBRANCH  24  25
ENDBRANCH  23  24
TORSDOF 7
ENDMDL
MODEL 9
REMARK VINA RESULT:      -8.8      2.403      3.338
REMARK  Name = 
REMARK  7 active torsions:
REMARK  status: ('A' for Active; 'I' for Inactive)
REMARK    1  A    between atoms: C_2  and  C_4
REMARK    2  A    between atoms: C_6  and  C_7
REMARK    3  A    between atoms: C_7  and  C_8
REMARK    4  A    between atoms: C_11  and  C_13
REMARK    5  A    between atoms: C_23  and  C_24
REMARK    6  A    between atoms: C_24  and  N_25
REMARK    7  A    between atoms: N_28  and  C_31
REMARK                            x       y       z     vdW  Elec       q    Type
REMARK                         _______ _______ _______ _____ _____    ______ ____
ROOT
ATOM      4  C   UNL     1      -1.455   3.017  24.752  0.00  0.00    +0.006 C 
ATOM      5  C   UNL     1      -2.128   3.427  24.509  0.00  0.00    +0.005 C 
ATOM      6  C   UNL     1      -2.590   3.133  23.892  0.00  0.00    +0.027 C 
ATOM     20  C   UNL     1      -2.379   2.429  23.518  0.00  0.00    -0.048 C 
ATOM     21  C   UNL     1      -2.841   2.135  22.901  0.00  0.00    +0.026 C 
ATOM     22  C   UNL     1      -1.705   2.019  23.760  0.00  0.00    -0.034 C 
ATOM     23  C   UNL     1      -1.244   2.313  24.377  0.00  0.00    +0.037 C 
ENDROOT
BRANCH   4   2
ATOM      1  C   UNL     1      -1.228   3.198  26.151  0.00  0.00    +0.000 C 
ATOM      2  C   UNL     1      -0.993   3.310  25.368  0.00  0.00    +0.000 C 
ATOM      3  C   UNL     1      -0.293   3.717  25.202  0.00  0.00    +0.000 C 
ENDBRANCH   4   2
BRANCH   6   7
ATOM      7  C   UNL     1      -3.263   3.543  23.650  0.00  0.00    +0.091 C 
BRANCH   7   8
ATOM      8  C   UNL     1      -3.939   3.545  24.125  0.00  0.00    +0.227 A 
ATOM      9  N   UNL     1      -4.346   4.214  24.385  0.00  0.00    -0.111 NA
ATOM     10  N   UNL     1      -4.984   3.960  24.843  0.00  0.00    -0.107 NA
ATOM     11  C   UNL     1      -4.971   3.136  24.865  0.00  0.00    +0.252 A 
ATOM     12  O   UNL     1      -4.324   2.879  24.421  0.00  0.00    -0.419 OA
BRANCH  11  13
ATOM     13  C   UNL     1      -5.508   2.652  25.262  0.00  0.00    +0.083 A 
ATOM     14  C   UNL     1      -6.020   2.166  24.834  0.00  0.00    +0.007 A 
ATOM     15  C   UNL     1      -6.558   1.682  25.230  0.00  0.00    +0.000 A 
ATOM     16  C   UNL     1      -6.585   1.685  26.055  0.00  0.00    +0.002 A 
ATOM     17  C   UNL     1      -6.074   2.170  26.483  0.00  0.00    +0.030 A 
ATOM     18  C   UNL     1      -5.535   2.654  26.086  0.00  0.00    +0.145 A 
ATOM     19  F   UNL     1      -5.025   3.139  26.515  0.00  0.00    -0.204 F 
ENDBRANCH  11  13
ENDBRANCH   7   8
ENDBRANCH   6   7
BRANCH  23  24
ATOM     24  C   UNL     1      -0.571   1.902  24.619  0.00  0.00    +0.076 C 
BRANCH  24  25
ATOM     25  N   UNL     1      -0.592   1.081  24.691  0.00  0.00    -0.269 NA
ATOM     26  C   UNL     1      -0.239   0.607  24.115  0.00  0.00    +0.094 C 
ATOM     27  C   UNL     1      -0.260  -0.215  24.188  0.00  0.00    +0.110 C 
ATOM     28  N   UNL     1      -0.634  -0.562  24.836  0.00  0.00    -0.289 N 
ATOM     29  C   UNL     1      -0.986  -0.088  25.411  0.00  0.00    +0.110 C 
ATOM     30  C   UNL     1      -0.965   0.733  25.339  0.00  0.00    +0.094 C 
BRANCH  28  31
ATOM     31  C   UNL     1      -0.655  -1.384  24.908  0.00  0.00    +0.151 A 
ATOM     32  C   UNL     1      -1.283  -1.810  24.584  0.00  0.00    +0.133 A 
ATOM     33  N   UNL     1      -1.304  -2.632  24.657  0.00  0.00    -0.238 NA
ATOM     34  C   UNL     1      -0.697  -3.027  25.053  0.00  0.00    +0.120 A 
ATOM     35  C   UNL     1      -0.070  -2.600  25.376  0.00  0.00    +0.121 A 
ATOM     36  N   UNL     1      -0.049  -1.779  25.304  0.00  0.00    -0.226 NA
ENDBRANCH  28  31
ENDBRANCH  24  25
ENDBRANCH  23  24
TORSDOF 7
ENDMDL
