MODEL 1
REMARK VINA RESULT:      -9.6      0.000      0.000
REMARK  Name = 
REMARK  7 active torsions:
REMARK  status: ('A' for Active; 'I' for Inactive)
REMARK    1  A    between atoms: C_2  and  C_4
REMARK    2  A    between atoms: C_6  and  C_7
REMARK    3  A    between atoms: C_7  and  C_8
REMARK    4  A    between atoms: N_13  and  C_14
REMARK    5  A    between atoms: C_14  and  C_15
REMARK    6  A    between atoms: C_22  and  C_23
REMARK    7  A    between atoms: C_23  and  C_24
REMARK                            x       y       z     vdW  Elec       q    Type
REMARK                         _______ _______ _______ _____ _____    ______ ____
ROOT
ATOM      4  C   UNL     1      -3.274  -0.338  24.904  0.00  0.00    +0.005 C 
ATOM      5  C   UNL     1      -2.687   0.237  24.983  0.00  0.00    +0.005 C 
ATOM      6  C   UNL     1      -1.928   0.022  25.218  0.00  0.00    +0.027 C 
ATOM     19  C   UNL     1      -1.753  -0.770  25.376  0.00  0.00    -0.048 C 
ATOM     20  C   UNL     1      -0.993  -0.986  25.612  0.00  0.00    +0.026 C 
ATOM     21  C   UNL     1      -2.340  -1.345  25.296  0.00  0.00    -0.034 C 
ATOM     22  C   UNL     1      -3.100  -1.130  25.061  0.00  0.00    +0.037 C 
ENDROOT
BRANCH   4   2
ATOM      1  C   UNL     1      -4.250  -0.175  23.873  0.00  0.00    +0.000 C 
ATOM      2  C   UNL     1      -4.035  -0.122  24.668  0.00  0.00    +0.000 C 
ATOM      3  C   UNL     1      -4.579   0.147  25.227  0.00  0.00    +0.000 C 
ENDBRANCH   4   2
BRANCH   6   7
ATOM      7  C   UNL     1      -1.341   0.596  25.298  0.00  0.00    +0.089 C 
BRANCH   7   8
ATOM      8  C   UNL     1      -1.151   1.083  24.659  0.00  0.00    +0.226 C 
ATOM      9  O   UNL     1      -1.062   0.760  23.906  0.00  0.00    -0.275 OA
ATOM     10  N   UNL     1      -1.051   1.893  24.775  0.00  0.00    -0.277 N 
ATOM     11  C   UNL     1      -1.140   2.217  25.529  0.00  0.00    +0.111 C 
ATOM     12  C   UNL     1      -1.039   3.027  25.644  0.00  0.00    +0.094 C 
ATOM     13  N   UNL     1      -0.849   3.515  25.006  0.00  0.00    -0.268 NA
ATOM     17  C   UNL     1      -0.760   3.192  24.252  0.00  0.00    +0.094 C 
ATOM     18  C   UNL     1      -0.861   2.381  24.136  0.00  0.00    +0.111 C 
BRANCH  13  14
ATOM     14  C   UNL     1      -0.749   4.326  25.122  0.00  0.00    +0.108 C 
BRANCH  14  15
ATOM     15  C   UNL     1      -1.403   4.828  25.107  0.00  0.00    +0.199 C 
ATOM     16  O   UNL     1      -1.297   5.646  25.135  0.00  0.00    -0.219 OA
ENDBRANCH  14  15
ENDBRANCH  13  14
ENDBRANCH   7   8
ENDBRANCH   6   7
BRANCH  22  23
ATOM     23  C   UNL     1      -3.686  -1.704  24.982  0.00  0.00    +0.110 C 
BRANCH  23  24
ATOM     24  C   UNL     1      -3.477  -2.499  24.913  0.00  0.00    +0.073 C 
ATOM     25  N   UNL     1      -3.268  -3.294  24.846  0.00  0.00    -0.196 NA
ENDBRANCH  23  24
ENDBRANCH  22  23
TORSDOF 7
ENDMDL
MODEL 2
REMARK VINA RESULT:      -9.6      1.802      5.290
REMARK  Name = 
REMARK  7 active torsions:
REMARK  status: ('A' for Active; 'I' for Inactive)
REMARK    1  A    between atoms: C_2  and  C_4
REMARK    2  A    between atoms: C_6  and  C_7
REMARK    3  A    between atoms: C_7  and  C_8
REMARK    4  A    between atoms: N_13  and  C_14
REMARK    5  A    between atoms: C_14  and  C_15
REMARK    6  A    between atoms: C_22  and  C_23
REMARK    7  A    between atoms: C_23  and  C_24
REMARK                            x       y       z     vdW  Elec       q    Type
REMARK                         _______ _______ _______ _____ _____    ______ ____
ROOT
ATOM      4  C   UNL     1      -1.486   2.874  25.187  0.00  0.00    +0.005 C 
ATOM      5  C   UNL     1      -2.045   2.277  25.071  0.00  0.00    +0.005 C 
ATOM      6  C   UNL     1      -2.842   2.469  24.988  0.00  0.00    +0.027 C 
ATOM     19  C   UNL     1      -3.082   3.258  25.019  0.00  0.00    -0.048 C 
ATOM     20  C   UNL     1      -3.880   3.450  24.935  0.00  0.00    +0.026 C 
ATOM     21  C   UNL     1      -2.523   3.855  25.135  0.00  0.00    -0.034 C 
ATOM     22  C   UNL     1      -1.726   3.663  25.218  0.00  0.00    +0.037 C 
ENDROOT
BRANCH   4   2
ATOM      1  C   UNL     1      -0.375   2.538  26.021  0.00  0.00    +0.000 C 
ATOM      2  C   UNL     1      -0.688   2.681  25.271  0.00  0.00    +0.000 C 
ATOM      3  C   UNL     1      -0.204   2.633  24.605  0.00  0.00    +0.000 C 
ENDBRANCH   4   2
BRANCH   6   7
ATOM      7  C   UNL     1      -3.400   1.873  24.872  0.00  0.00    +0.089 C 
BRANCH   7   8
ATOM      8  C   UNL     1      -3.352   1.385  24.209  0.00  0.00    +0.226 C 
ATOM      9  O   UNL     1      -3.115   1.697  23.484  0.00  0.00    -0.275 OA
ATOM     10  N   UNL     1      -3.542   0.585  24.271  0.00  0.00    -0.277 N 
ATOM     11  C   UNL     1      -3.780   0.272  24.996  0.00  0.00    +0.111 C 
ATOM     12  C   UNL     1      -3.970  -0.528  25.058  0.00  0.00    +0.094 C 
ATOM     13  N   UNL     1      -3.923  -1.016  24.394  0.00  0.00    -0.268 NA
ATOM     17  C   UNL     1      -3.685  -0.704  23.669  0.00  0.00    +0.094 C 
ATOM     18  C   UNL     1      -3.495   0.097  23.606  0.00  0.00    +0.111 C 
BRANCH  13  14
ATOM     14  C   UNL     1      -4.113  -1.817  24.456  0.00  0.00    +0.108 C 
BRANCH  14  15
ATOM     15  C   UNL     1      -3.517  -2.374  24.581  0.00  0.00    +0.199 C 
ATOM     16  O   UNL     1      -3.694  -3.179  24.564  0.00  0.00    -0.219 OA
ENDBRANCH  14  15
ENDBRANCH  13  14
ENDBRANCH   7   8
ENDBRANCH   6   7
BRANCH  22  23
ATOM     23  C   UNL     1      -1.168   4.259  25.334  0.00  0.00    +0.110 C 
BRANCH  23  24
ATOM     24  C   UNL     1      -1.366   5.044  25.179  0.00  0.00    +0.073 C 
ATOM     25  N   UNL     1      -1.564   5.830  25.023  0.00  0.00    -0.196 NA
ENDBRANCH  23  24
ENDBRANCH  22  23
TORSDOF 7
ENDMDL
MODEL 3
REMARK VINA RESULT:      -9.4      1.085      1.886
REMARK  Name = 
REMARK  7 active torsions:
REMARK  status: ('A' for Active; 'I' for Inactive)
REMARK    1  A    between atoms: C_2  and  C_4
REMARK    2  A    between atoms: C_6  and  C_7
REMARK    3  A    between atoms: C_7  and  C_8
REMARK    4  A    between atoms: N_13  and  C_14
REMARK    5  A    between atoms: C_14  and  C_15
REMARK    6  A    between atoms: C_22  and  C_23
REMARK    7  A    between atoms: C_23  and  C_24
REMARK                            x       y       z     vdW  Elec       q    Type
REMARK                         _______ _______ _______ _____ _____    ______ ____
ROOT
ATOM      4  C   UNL     1      -2.447  -0.834  25.037  0.00  0.00    +0.005 C 
ATOM      5  C   UNL     1      -2.568  -0.018  24.987  0.00  0.00    +0.005 C 
ATOM      6  C   UNL     1      -3.313   0.277  24.796  0.00  0.00    +0.027 C 
ATOM     19  C   UNL     1      -3.939  -0.242  24.653  0.00  0.00    -0.048 C 
ATOM     20  C   UNL     1      -4.685   0.053  24.461  0.00  0.00    +0.026 C 
ATOM     21  C   UNL     1      -3.818  -1.058  24.703  0.00  0.00    -0.034 C 
ATOM     22  C   UNL     1      -3.073  -1.353  24.894  0.00  0.00    +0.037 C 
ENDROOT
BRANCH   4   2
ATOM      1  C   UNL     1      -1.198  -1.397  24.632  0.00  0.00    +0.000 C 
ATOM      2  C   UNL     1      -1.701  -1.129  25.229  0.00  0.00    +0.000 C 
ATOM      3  C   UNL     1      -1.459  -1.156  26.017  0.00  0.00    +0.000 C 
ENDBRANCH   4   2
BRANCH   6   7
ATOM      7  C   UNL     1      -3.434   1.091  24.746  0.00  0.00    +0.089 C 
BRANCH   7   8
ATOM      8  C   UNL     1      -2.941   1.554  24.274  0.00  0.00    +0.226 C 
ATOM      9  O   UNL     1      -2.661   1.259  23.557  0.00  0.00    -0.275 OA
ATOM     10  N   UNL     1      -2.728   2.312  24.520  0.00  0.00    -0.277 N 
ATOM     11  C   UNL     1      -3.008   2.608  25.237  0.00  0.00    +0.111 C 
ATOM     12  C   UNL     1      -2.796   3.366  25.483  0.00  0.00    +0.094 C 
ATOM     13  N   UNL     1      -2.302   3.829  25.010  0.00  0.00    -0.268 NA
ATOM     17  C   UNL     1      -2.022   3.534  24.293  0.00  0.00    +0.094 C 
ATOM     18  C   UNL     1      -2.234   2.776  24.047  0.00  0.00    +0.111 C 
BRANCH  13  14
ATOM     14  C   UNL     1      -2.089   4.588  25.256  0.00  0.00    +0.108 C 
BRANCH  14  15
ATOM     15  C   UNL     1      -1.338   4.881  25.083  0.00  0.00    +0.199 C 
ATOM     16  O   UNL     1      -1.193   5.692  25.121  0.00  0.00    -0.219 OA
ENDBRANCH  14  15
ENDBRANCH  13  14
ENDBRANCH   7   8
ENDBRANCH   6   7
BRANCH  22  23
ATOM     23  C   UNL     1      -2.952  -2.167  24.944  0.00  0.00    +0.110 C 
BRANCH  23  24
ATOM     24  C   UNL     1      -3.476  -2.685  24.573  0.00  0.00    +0.073 C 
ATOM     25  N   UNL     1      -4.000  -3.203  24.201  0.00  0.00    -0.196 NA
ENDBRANCH  23  24
ENDBRANCH  22  23
TORSDOF 7
ENDMDL
MODEL 4
REMARK VINA RESULT:      -9.0      2.272      3.014
REMARK  Name = 
REMARK  7 active torsions:
REMARK  status: ('A' for Active; 'I' for Inactive)
REMARK    1  A    between atoms: C_2  and  C_4
REMARK    2  A    between atoms: C_6  and  C_7
REMARK    3  A    between atoms: C_7  and  C_8
REMARK    4  A    between atoms: N_13  and  C_14
REMARK    5  A    between atoms: C_14  and  C_15
REMARK    6  A    between atoms: C_22  and  C_23
REMARK    7  A    between atoms: C_23  and  C_24
REMARK                            x       y       z     vdW  Elec       q    Type
REMARK                         _______ _______ _______ _____ _____    ______ ____
ROOT
ATOM      4  C   UNL     1      -2.191  -0.692  24.964  0.00  0.00    +0.005 C 
ATOM      5  C   UNL     1      -2.746  -0.081  24.929  0.00  0.00    +0.005 C 
ATOM      6  C   UNL     1      -3.498  -0.224  24.625  0.00  0.00    +0.027 C 
ATOM     19  C   UNL     1      -3.698  -0.978  24.355  0.00  0.00    -0.048 C 
ATOM     20  C   UNL     1      -4.452  -1.122  24.051  0.00  0.00    +0.026 C 
ATOM     21  C   UNL     1      -3.144  -1.589  24.390  0.00  0.00    -0.034 C 
ATOM     22  C   UNL     1      -2.391  -1.446  24.694  0.00  0.00    +0.037 C 
ENDROOT
BRANCH   4   2
ATOM      1  C   UNL     1      -0.816  -0.364  24.758  0.00  0.00    +0.000 C 
ATOM      2  C   UNL     1      -1.438  -0.549  25.268  0.00  0.00    +0.000 C 
ATOM      3  C   UNL     1      -1.307  -0.591  26.081  0.00  0.00    +0.000 C 
ENDBRANCH   4   2
BRANCH   6   7
ATOM      7  C   UNL     1      -4.052   0.386  24.591  0.00  0.00    +0.089 C 
BRANCH   7   8
ATOM      8  C   UNL     1      -3.863   1.095  24.215  0.00  0.00    +0.226 C 
ATOM      9  O   UNL     1      -3.374   1.092  23.551  0.00  0.00    -0.275 OA
ATOM     10  N   UNL     1      -4.161   1.807  24.504  0.00  0.00    -0.277 N 
ATOM     11  C   UNL     1      -4.650   1.811  25.169  0.00  0.00    +0.111 C 
ATOM     12  C   UNL     1      -4.949   2.523  25.458  0.00  0.00    +0.094 C 
ATOM     13  N   UNL     1      -4.759   3.233  25.082  0.00  0.00    -0.268 NA
ATOM     17  C   UNL     1      -4.271   3.230  24.418  0.00  0.00    +0.094 C 
ATOM     18  C   UNL     1      -3.971   2.518  24.128  0.00  0.00    +0.111 C 
BRANCH  13  14
ATOM     14  C   UNL     1      -5.058   3.946  25.372  0.00  0.00    +0.108 C 
BRANCH  14  15
ATOM     15  C   UNL     1      -5.853   4.002  25.586  0.00  0.00    +0.199 C 
ATOM     16  O   UNL     1      -6.181   4.737  25.766  0.00  0.00    -0.219 OA
ENDBRANCH  14  15
ENDBRANCH  13  14
ENDBRANCH   7   8
ENDBRANCH   6   7
BRANCH  22  23
ATOM     23  C   UNL     1      -1.837  -2.056  24.728  0.00  0.00    +0.110 C 
BRANCH  23  24
ATOM     24  C   UNL     1      -1.979  -2.764  24.329  0.00  0.00    +0.073 C 
ATOM     25  N   UNL     1      -2.120  -3.472  23.929  0.00  0.00    -0.196 NA
ENDBRANCH  23  24
ENDBRANCH  22  23
TORSDOF 7
ENDMDL
MODEL 5
REMARK VINA RESULT:      -8.9      2.335      3.678
REMARK  Name = 
REMARK  7 active torsions:
REMARK  status: ('A' for Active; 'I' for Inactive)
REMARK    1  A    between atoms: C_2  and  C_4
REMARK    2  A    between atoms: C_6  and  C_7
REMARK    3  A    between atoms: C_7  and  C_8
REMARK    4  A    between atoms: N_13  and  C_14
REMARK    5  A    between atoms: C_14  and  C_15
REMARK    6  A    between atoms: C_22  and  C_23
REMARK    7  A    between atoms: C_23  and  C_24
REMARK                            x       y       z     vdW  Elec       q    Type
REMARK                         _______ _______ _______ _____ _____    ______ ____
ROOT
ATOM      4  C   UNL     1      -3.891   2.187  24.397  0.00  0.00    +0.005 C 
ATOM      5  C   UNL     1      -3.212   1.718  24.362  0.00  0.00    +0.005 C 
ATOM      6  C   UNL     1      -3.232   0.943  24.640  0.00  0.00    +0.027 C 
ATOM     19  C   UNL     1      -3.931   0.635  24.954  0.00  0.00    -0.048 C 
ATOM     20  C   UNL     1      -3.952  -0.142  25.233  0.00  0.00    +0.026 C 
ATOM     21  C   UNL     1      -4.610   1.104  24.989  0.00  0.00    -0.034 C 
ATOM     22  C   UNL     1      -4.590   1.879  24.711  0.00  0.00    +0.037 C 
ENDROOT
BRANCH   4   2
ATOM      1  C   UNL     1      -3.927   3.112  23.308  0.00  0.00    +0.000 C 
ATOM      2  C   UNL     1      -3.870   2.964  24.118  0.00  0.00    +0.000 C 
ATOM      3  C   UNL     1      -3.793   3.590  24.650  0.00  0.00    +0.000 C 
ENDBRANCH   4   2
BRANCH   6   7
ATOM      7  C   UNL     1      -2.555   0.474  24.605  0.00  0.00    +0.089 C 
BRANCH   7   8
ATOM      8  C   UNL     1      -1.826   0.783  24.835  0.00  0.00    +0.226 C 
ATOM      9  O   UNL     1      -1.789   1.352  25.430  0.00  0.00    -0.275 OA
ATOM     10  N   UNL     1      -1.134   0.524  24.470  0.00  0.00    -0.277 N 
ATOM     11  C   UNL     1      -1.170  -0.046  23.874  0.00  0.00    +0.111 C 
ATOM     12  C   UNL     1      -0.478  -0.306  23.508  0.00  0.00    +0.094 C 
ATOM     13  N   UNL     1       0.252   0.005  23.738  0.00  0.00    -0.268 NA
ATOM     17  C   UNL     1       0.288   0.574  24.334  0.00  0.00    +0.094 C 
ATOM     18  C   UNL     1      -0.404   0.834  24.700  0.00  0.00    +0.111 C 
BRANCH  13  14
ATOM     14  C   UNL     1       0.944  -0.256  23.372  0.00  0.00    +0.108 C 
BRANCH  14  15
ATOM     15  C   UNL     1       1.219   0.125  22.693  0.00  0.00    +0.199 C 
ATOM     16  O   UNL     1       1.965  -0.056  22.393  0.00  0.00    -0.219 OA
ENDBRANCH  14  15
ENDBRANCH  13  14
ENDBRANCH   7   8
ENDBRANCH   6   7
BRANCH  22  23
ATOM     23  C   UNL     1      -5.267   2.348  24.746  0.00  0.00    +0.110 C 
BRANCH  23  24
ATOM     24  C   UNL     1      -5.985   2.017  24.980  0.00  0.00    +0.073 C 
ATOM     25  N   UNL     1      -6.703   1.685  25.214  0.00  0.00    -0.196 NA
ENDBRANCH  23  24
ENDBRANCH  22  23
TORSDOF 7
ENDMDL
MODEL 6
REMARK VINA RESULT:      -8.7      2.575      5.294
REMARK  Name = 
REMARK  7 active torsions:
REMARK  status: ('A' for Active; 'I' for Inactive)
REMARK    1  A    between atoms: C_2  and  C_4
REMARK    2  A    between atoms: C_6  and  C_7
REMARK    3  A    between atoms: C_7  and  C_8
REMARK    4  A    between atoms: N_13  and  C_14
REMARK    5  A    between atoms: C_14  and  C_15
REMARK    6  A    between atoms: C_22  and  C_23
REMARK    7  A    between atoms: C_23  and  C_24
REMARK                            x       y       z     vdW  Elec       q    Type
REMARK                         _______ _______ _______ _____ _____    ______ ____
ROOT
ATOM      4  C   UNL     1      -4.079   2.764  25.028  0.00  0.00    +0.005 C 
ATOM      5  C   UNL     1      -4.062   1.951  24.885  0.00  0.00    +0.005 C 
ATOM      6  C   UNL     1      -4.765   1.522  24.861  0.00  0.00    +0.027 C 
ATOM     19  C   UNL     1      -5.487   1.905  24.980  0.00  0.00    -0.048 C 
ATOM     20  C   UNL     1      -6.191   1.475  24.956  0.00  0.00    +0.026 C 
ATOM     21  C   UNL     1      -5.503   2.718  25.124  0.00  0.00    -0.034 C 
ATOM     22  C   UNL     1      -4.800   3.147  25.148  0.00  0.00    +0.037 C 
ENDROOT
BRANCH   4   2
ATOM      1  C   UNL     1      -3.006   3.339  25.776  0.00  0.00    +0.000 C 
ATOM      2  C   UNL     1      -3.375   3.193  25.052  0.00  0.00    +0.000 C 
ATOM      3  C   UNL     1      -3.040   3.476  24.353  0.00  0.00    +0.000 C 
ENDBRANCH   4   2
BRANCH   6   7
ATOM      7  C   UNL     1      -4.748   0.710  24.717  0.00  0.00    +0.089 C 
BRANCH   7   8
ATOM      8  C   UNL     1      -4.427   0.198  25.279  0.00  0.00    +0.226 C 
ATOM      9  O   UNL     1      -4.517   0.358  26.082  0.00  0.00    -0.275 OA
ATOM     10  N   UNL     1      -4.017  -0.475  25.036  0.00  0.00    -0.277 N 
ATOM     11  C   UNL     1      -3.927  -0.636  24.232  0.00  0.00    +0.111 C 
ATOM     12  C   UNL     1      -3.516  -1.308  23.989  0.00  0.00    +0.094 C 
ATOM     13  N   UNL     1      -3.195  -1.821  24.551  0.00  0.00    -0.268 NA
ATOM     17  C   UNL     1      -3.285  -1.660  25.355  0.00  0.00    +0.094 C 
ATOM     18  C   UNL     1      -3.696  -0.988  25.598  0.00  0.00    +0.111 C 
BRANCH  13  14
ATOM     14  C   UNL     1      -2.784  -2.494  24.308  0.00  0.00    +0.108 C 
BRANCH  14  15
ATOM     15  C   UNL     1      -1.959  -2.506  24.337  0.00  0.00    +0.199 C 
ATOM     16  O   UNL     1      -1.542  -3.114  23.967  0.00  0.00    -0.219 OA
ENDBRANCH  14  15
ENDBRANCH  13  14
ENDBRANCH   7   8
ENDBRANCH   6   7
BRANCH  22  23
ATOM     23  C   UNL     1      -4.817   3.959  25.291  0.00  0.00    +0.110 C 
BRANCH  23  24
ATOM     24  C   UNL     1      -5.521   4.322  25.519  0.00  0.00    +0.073 C 
ATOM     25  N   UNL     1      -6.227   4.685  25.745  0.00  0.00    -0.196 NA
ENDBRANCH  23  24
ENDBRANCH  22  23
TORSDOF 7
ENDMDL
