MODEL 1
REMARK VINA RESULT:      -9.4      0.000      0.000
REMARK  Name = 
REMARK  8 active torsions:
REMARK  status: ('A' for Active; 'I' for Inactive)
REMARK    1  A    between atoms: C_2  and  C_4
REMARK    2  A    between atoms: C_4  and  C_5
REMARK    3  A    between atoms: C_5  and  N_6
REMARK    4  A    between atoms: C_5  and  C_31
REMARK    5  A    between atoms: C_7  and  C_9
REMARK    6  A    between atoms: C_16  and  N_18
REMARK    7  A    between atoms: N_21  and  C_22
REMARK    8  A    between atoms: C_25  and  C_28
REMARK                            x       y       z     vdW  Elec       q    Type
REMARK                         _______ _______ _______ _____ _____    ______ ____
ROOT
ATOM      9  C   UNL     1      -3.292   2.528  24.598  0.00  0.00    +0.200 C 
ATOM     10  O   UNL     1      -3.485   2.603  25.396  0.00  0.00    -0.216 OA
ATOM     11  C   UNL     1      -3.033   2.729  23.841  0.00  0.00    +0.075 C 
ATOM     12  C   UNL     1      -3.032   2.161  23.241  0.00  0.00    +0.187 C 
ATOM     13  O   UNL     1      -2.772   2.362  22.485  0.00  0.00    -0.220 OA
ATOM     14  C   UNL     1      -3.290   1.394  23.399  0.00  0.00    +0.202 C 
ATOM     15  O   UNL     1      -3.289   0.826  22.800  0.00  0.00    -0.219 OA
ATOM     16  C   UNL     1      -3.549   1.193  24.156  0.00  0.00    +0.133 C 
ATOM     17  C   UNL     1      -3.550   1.760  24.755  0.00  0.00    +0.064 C 
ENDROOT
BRANCH  16  18
ATOM     18  N   UNL     1      -3.808   0.426  24.314  0.00  0.00    -0.186 NA
ATOM     19  C   UNL     1      -4.592   0.291  24.530  0.00  0.00    +0.344 C 
ATOM     20  O   UNL     1      -5.119   0.923  24.588  0.00  0.00    -0.249 OA
ATOM     21  N   UNL     1      -4.850  -0.477  24.688  0.00  0.00    -0.161 NA
BRANCH  21  22
ATOM     22  C   UNL     1      -4.324  -1.109  24.630  0.00  0.00    +0.075 A 
ATOM     23  C   UNL     1      -4.322  -1.583  23.955  0.00  0.00    +0.017 A 
ATOM     24  C   UNL     1      -3.795  -2.216  23.897  0.00  0.00    +0.004 A 
ATOM     25  C   UNL     1      -3.271  -2.374  24.514  0.00  0.00    +0.035 A 
ATOM     26  C   UNL     1      -3.273  -1.900  25.189  0.00  0.00    +0.004 A 
ATOM     27  C   UNL     1      -3.800  -1.268  25.247  0.00  0.00    +0.017 A 
BRANCH  25  28
ATOM     28  C   UNL     1      -2.745  -3.007  24.455  0.00  0.00    +0.173 C 
ATOM     29  C   UNL     1      -1.931  -2.872  24.479  0.00  0.00    +0.077 C 
ATOM     30  O   UNL     1      -3.033  -3.776  24.371  0.00  0.00    -0.291 OA
ENDBRANCH  25  28
ENDBRANCH  21  22
ENDBRANCH  16  18
BRANCH   9   7
ATOM      6  N   UNL     1      -2.469   3.523  25.208  0.00  0.00    -0.196 NA
ATOM      7  C   UNL     1      -3.101   3.321  24.717  0.00  0.00    +0.269 C 
ATOM      8  O   UNL     1      -3.541   3.912  24.346  0.00  0.00    -0.271 OA
BRANCH   6   5
ATOM      5  C   UNL     1      -2.277   4.317  25.327  0.00  0.00    +0.174 C 
BRANCH   5  31
ATOM     31  C   UNL     1      -2.589   4.724  25.973  0.00  0.00    +0.281 C 
ATOM     32  N   UNL     1      -2.917   5.474  25.870  0.00  0.00    -0.086 NA
ATOM     33  O   UNL     1      -2.572   4.383  26.724  0.00  0.00    -0.270 OA
ENDBRANCH   5  31
BRANCH   5   4
ATOM      4  C   UNL     1      -1.774   4.702  24.799  0.00  0.00    +0.031 C 
BRANCH   4   2
ATOM      1  C   UNL     1      -0.576   4.106  25.299  0.00  0.00    +0.000 C 
ATOM      2  C   UNL     1      -0.966   4.749  24.959  0.00  0.00    +0.002 C 
ATOM      3  C   UNL     1      -0.548   5.437  24.780  0.00  0.00    +0.000 C 
ENDBRANCH   4   2
ENDBRANCH   5   4
ENDBRANCH   6   5
ENDBRANCH   9   7
TORSDOF 8
ENDMDL
MODEL 2
REMARK VINA RESULT:      -8.9      4.416      6.168
REMARK  Name = 
REMARK  8 active torsions:
REMARK  status: ('A' for Active; 'I' for Inactive)
REMARK    1  A    between atoms: C_2  and  C_4
REMARK    2  A    between atoms: C_4  and  C_5
REMARK    3  A    between atoms: C_5  and  N_6
REMARK    4  A    between atoms: C_5  and  C_31
REMARK    5  A    between atoms: C_7  and  C_9
REMARK    6  A    between atoms: C_16  and  N_18
REMARK    7  A    between atoms: N_21  and  C_22
REMARK    8  A    between atoms: C_25  and  C_28
REMARK                            x       y       z     vdW  Elec       q    Type
REMARK                         _______ _______ _______ _____ _____    ______ ____
ROOT
ATOM      9  C   UNL     1      -0.516  -0.082  24.329  0.00  0.00    +0.200 C 
ATOM     10  O   UNL     1      -0.581  -0.896  24.217  0.00  0.00    -0.216 OA
ATOM     11  C   UNL     1      -0.702   0.685  24.571  0.00  0.00    +0.075 C 
ATOM     12  C   UNL     1      -0.188   1.308  24.400  0.00  0.00    +0.187 C 
ATOM     13  O   UNL     1      -0.374   2.074  24.642  0.00  0.00    -0.220 OA
ATOM     14  C   UNL     1       0.512   1.163  23.989  0.00  0.00    +0.202 C 
ATOM     15  O   UNL     1       1.026   1.786  23.818  0.00  0.00    -0.219 OA
ATOM     16  C   UNL     1       0.698   0.397  23.747  0.00  0.00    +0.133 C 
ATOM     17  C   UNL     1       0.184  -0.225  23.917  0.00  0.00    +0.064 C 
ENDROOT
BRANCH  16  18
ATOM     18  N   UNL     1       1.398   0.253  23.335  0.00  0.00    -0.186 NA
ATOM     19  C   UNL     1       1.371  -0.013  22.555  0.00  0.00    +0.344 C 
ATOM     20  O   UNL     1       0.643  -0.135  22.186  0.00  0.00    -0.249 OA
ATOM     21  N   UNL     1       2.071  -0.157  22.144  0.00  0.00    -0.161 NA
BRANCH  21  22
ATOM     22  C   UNL     1       2.799  -0.036  22.512  0.00  0.00    +0.075 A 
ATOM     23  C   UNL     1       3.121  -0.623  22.993  0.00  0.00    +0.017 A 
ATOM     24  C   UNL     1       3.849  -0.502  23.362  0.00  0.00    +0.004 A 
ATOM     25  C   UNL     1       4.255   0.208  23.249  0.00  0.00    +0.035 A 
ATOM     26  C   UNL     1       3.933   0.795  22.768  0.00  0.00    +0.004 A 
ATOM     27  C   UNL     1       3.205   0.673  22.399  0.00  0.00    +0.017 A 
BRANCH  25  28
ATOM     28  C   UNL     1       4.983   0.328  23.618  0.00  0.00    +0.173 C 
ATOM     29  C   UNL     1       5.537  -0.282  23.650  0.00  0.00    +0.077 C 
ATOM     30  O   UNL     1       5.157   1.060  23.957  0.00  0.00    -0.291 OA
ENDBRANCH  25  28
ENDBRANCH  21  22
ENDBRANCH  16  18
BRANCH   9   7
ATOM      6  N   UNL     1      -1.888  -0.475  24.261  0.00  0.00    -0.196 NA
ATOM      7  C   UNL     1      -1.238  -0.220  24.702  0.00  0.00    +0.269 C 
ATOM      8  O   UNL     1      -1.312  -0.104  25.516  0.00  0.00    -0.271 OA
BRANCH   6   5
ATOM      5  C   UNL     1      -2.610  -0.614  24.634  0.00  0.00    +0.174 C 
BRANCH   5  31
ATOM     31  C   UNL     1      -3.202  -0.038  24.615  0.00  0.00    +0.281 C 
ATOM     32  N   UNL     1      -3.452   0.273  23.893  0.00  0.00    -0.086 NA
ATOM     33  O   UNL     1      -3.544   0.226  25.318  0.00  0.00    -0.270 OA
ENDBRANCH   5  31
BRANCH   5   4
ATOM      4  C   UNL     1      -2.741  -1.327  25.026  0.00  0.00    +0.031 C 
BRANCH   4   2
ATOM      1  C   UNL     1      -3.955  -1.750  24.402  0.00  0.00    +0.000 C 
ATOM      2  C   UNL     1      -3.192  -1.918  24.667  0.00  0.00    +0.002 C 
ATOM      3  C   UNL     1      -2.880  -2.676  24.573  0.00  0.00    +0.000 C 
ENDBRANCH   4   2
ENDBRANCH   5   4
ENDBRANCH   6   5
ENDBRANCH   9   7
TORSDOF 8
ENDMDL
MODEL 3
REMARK VINA RESULT:      -8.8      2.200      2.717
REMARK  Name = 
REMARK  8 active torsions:
REMARK  status: ('A' for Active; 'I' for Inactive)
REMARK    1  A    between atoms: C_2  and  C_4
REMARK    2  A    between atoms: C_4  and  C_5
REMARK    3  A    between atoms: C_5  and  N_6
REMARK    4  A    between atoms: C_5  and  C_31
REMARK    5  A    between atoms: C_7  and  C_9
REMARK    6  A    between atoms: C_16  and  N_18
REMARK    7  A    between atoms: N_21  and  C_22
REMARK    8  A    between atoms: C_25  and  C_28
REMARK                            x       y       z     vdW  Elec       q    Type
REMARK                         _______ _______ _______ _____ _____    ______ ____
ROOT
ATOM      9  C   UNL     1      -0.932   1.623  25.181  0.00  0.00    +0.200 C 
ATOM     10  O   UNL     1      -1.479   1.856  25.752  0.00  0.00    -0.216 OA
ATOM     11  C   UNL     1      -0.318   1.669  24.631  0.00  0.00    +0.075 C 
ATOM     12  C   UNL     1      -0.084   0.993  24.218  0.00  0.00    +0.187 C 
ATOM     13  O   UNL     1       0.530   1.039  23.669  0.00  0.00    -0.220 OA
ATOM     14  C   UNL     1      -0.463   0.274  24.355  0.00  0.00    +0.202 C 
ATOM     15  O   UNL     1      -0.229  -0.401  23.942  0.00  0.00    -0.219 OA
ATOM     16  C   UNL     1      -1.076   0.228  24.904  0.00  0.00    +0.133 C 
ATOM     17  C   UNL     1      -1.310   0.903  25.317  0.00  0.00    +0.064 C 
ENDROOT
BRANCH  16  18
ATOM     18  N   UNL     1      -1.456  -0.491  25.041  0.00  0.00    -0.186 NA
ATOM     19  C   UNL     1      -1.194  -0.987  25.645  0.00  0.00    +0.344 C 
ATOM     20  O   UNL     1      -0.552  -0.765  26.114  0.00  0.00    -0.249 OA
ATOM     21  N   UNL     1      -1.574  -1.707  25.781  0.00  0.00    -0.161 NA
BRANCH  21  22
ATOM     22  C   UNL     1      -2.215  -1.931  25.314  0.00  0.00    +0.075 A 
ATOM     23  C   UNL     1      -2.973  -1.667  25.501  0.00  0.00    +0.017 A 
ATOM     24  C   UNL     1      -3.615  -1.890  25.032  0.00  0.00    +0.004 A 
ATOM     25  C   UNL     1      -3.498  -2.378  24.378  0.00  0.00    +0.035 A 
ATOM     26  C   UNL     1      -2.739  -2.642  24.191  0.00  0.00    +0.004 A 
ATOM     27  C   UNL     1      -2.097  -2.418  24.659  0.00  0.00    +0.017 A 
BRANCH  25  28
ATOM     28  C   UNL     1      -4.140  -2.601  23.910  0.00  0.00    +0.173 C 
ATOM     29  C   UNL     1      -4.610  -2.026  23.551  0.00  0.00    +0.077 C 
ATOM     30  O   UNL     1      -4.313  -3.401  23.802  0.00  0.00    -0.291 OA
ENDBRANCH  25  28
ENDBRANCH  21  22
ENDBRANCH  16  18
BRANCH   9   7
ATOM      6  N   UNL     1      -1.240   2.991  24.908  0.00  0.00    -0.196 NA
ATOM      7  C   UNL     1      -0.743   2.423  25.243  0.00  0.00    +0.269 C 
ATOM      8  O   UNL     1      -0.057   2.657  25.638  0.00  0.00    -0.271 OA
BRANCH   6   5
ATOM      5  C   UNL     1      -1.051   3.792  24.969  0.00  0.00    +0.174 C 
BRANCH   5  31
ATOM     31  C   UNL     1      -0.602   4.156  24.381  0.00  0.00    +0.281 C 
ATOM     32  N   UNL     1       0.034   4.640  24.587  0.00  0.00    -0.086 NA
ATOM     33  O   UNL     1      -0.789   4.038  23.586  0.00  0.00    -0.270 OA
ENDBRANCH   5  31
BRANCH   5   4
ATOM      4  C   UNL     1      -1.311   4.227  25.620  0.00  0.00    +0.031 C 
BRANCH   4   2
ATOM      1  C   UNL     1      -2.003   5.407  25.206  0.00  0.00    +0.000 C 
ATOM      2  C   UNL     1      -2.008   4.667  25.570  0.00  0.00    +0.002 C 
ATOM      3  C   UNL     1      -2.709   4.366  25.883  0.00  0.00    +0.000 C 
ENDBRANCH   4   2
ENDBRANCH   5   4
ENDBRANCH   6   5
ENDBRANCH   9   7
TORSDOF 8
ENDMDL
MODEL 4
REMARK VINA RESULT:      -8.8      2.133      6.020
REMARK  Name = 
REMARK  8 active torsions:
REMARK  status: ('A' for Active; 'I' for Inactive)
REMARK    1  A    between atoms: C_2  and  C_4
REMARK    2  A    between atoms: C_4  and  C_5
REMARK    3  A    between atoms: C_5  and  N_6
REMARK    4  A    between atoms: C_5  and  C_31
REMARK    5  A    between atoms: C_7  and  C_9
REMARK    6  A    between atoms: C_16  and  N_18
REMARK    7  A    between atoms: N_21  and  C_22
REMARK    8  A    between atoms: C_25  and  C_28
REMARK                            x       y       z     vdW  Elec       q    Type
REMARK                         _______ _______ _______ _____ _____    ______ ____
ROOT
ATOM      9  C   UNL     1      -1.715  -0.230  25.051  0.00  0.00    +0.200 C 
ATOM     10  O   UNL     1      -2.276  -0.232  25.655  0.00  0.00    -0.216 OA
ATOM     11  C   UNL     1      -1.260  -0.494  24.415  0.00  0.00    +0.075 C 
ATOM     12  C   UNL     1      -0.693   0.004  24.080  0.00  0.00    +0.187 C 
ATOM     13  O   UNL     1      -0.238  -0.258  23.444  0.00  0.00    -0.220 OA
ATOM     14  C   UNL     1      -0.582   0.764  24.380  0.00  0.00    +0.202 C 
ATOM     15  O   UNL     1      -0.016   1.262  24.045  0.00  0.00    -0.219 OA
ATOM     16  C   UNL     1      -1.037   1.027  25.016  0.00  0.00    +0.133 C 
ATOM     17  C   UNL     1      -1.603   0.530  25.351  0.00  0.00    +0.064 C 
ENDROOT
BRANCH  16  18
ATOM     18  N   UNL     1      -0.926   1.787  25.317  0.00  0.00    -0.186 NA
ATOM     19  C   UNL     1      -0.441   1.904  25.973  0.00  0.00    +0.344 C 
ATOM     20  O   UNL     1      -0.066   1.262  26.329  0.00  0.00    -0.249 OA
ATOM     21  N   UNL     1      -0.330   2.665  26.273  0.00  0.00    -0.161 NA
BRANCH  21  22
ATOM     22  C   UNL     1      -0.705   3.308  25.918  0.00  0.00    +0.075 A 
ATOM     23  C   UNL     1      -1.484   3.493  26.117  0.00  0.00    +0.017 A 
ATOM     24  C   UNL     1      -1.859   4.137  25.761  0.00  0.00    +0.004 A 
ATOM     25  C   UNL     1      -1.455   4.594  25.206  0.00  0.00    +0.035 A 
ATOM     26  C   UNL     1      -0.676   4.409  25.007  0.00  0.00    +0.004 A 
ATOM     27  C   UNL     1      -0.301   3.765  25.363  0.00  0.00    +0.017 A 
BRANCH  25  28
ATOM     28  C   UNL     1      -1.830   5.237  24.851  0.00  0.00    +0.173 C 
ATOM     29  C   UNL     1      -2.544   5.130  24.450  0.00  0.00    +0.077 C 
ATOM     30  O   UNL     1      -1.493   5.988  24.896  0.00  0.00    -0.291 OA
ENDBRANCH  25  28
ENDBRANCH  21  22
ENDBRANCH  16  18
BRANCH   9   7
ATOM      6  N   UNL     1      -2.838  -1.110  24.961  0.00  0.00    -0.196 NA
ATOM      7  C   UNL     1      -2.021  -0.991  24.960  0.00  0.00    +0.269 C 
ATOM      8  O   UNL     1      -1.510  -1.633  24.867  0.00  0.00    -0.271 OA
BRANCH   6   5
ATOM      5  C   UNL     1      -3.143  -1.871  24.870  0.00  0.00    +0.174 C 
BRANCH   5  31
ATOM     31  C   UNL     1      -3.283  -2.342  25.533  0.00  0.00    +0.281 C 
ATOM     32  N   UNL     1      -3.044  -3.131  25.536  0.00  0.00    -0.086 NA
ATOM     33  O   UNL     1      -3.662  -2.024  26.193  0.00  0.00    -0.270 OA
ENDBRANCH   5  31
BRANCH   5   4
ATOM      4  C   UNL     1      -3.309  -2.160  24.116  0.00  0.00    +0.031 C 
BRANCH   4   2
ATOM      1  C   UNL     1      -4.462  -2.817  23.586  0.00  0.00    +0.000 C 
ATOM      2  C   UNL     1      -4.080  -2.125  23.821  0.00  0.00    +0.002 C 
ATOM      3  C   UNL     1      -4.466  -1.399  23.762  0.00  0.00    +0.000 C 
ENDBRANCH   4   2
ENDBRANCH   5   4
ENDBRANCH   6   5
ENDBRANCH   9   7
TORSDOF 8
ENDMDL
MODEL 5
REMARK VINA RESULT:      -8.7      1.292      5.527
REMARK  Name = 
REMARK  8 active torsions:
REMARK  status: ('A' for Active; 'I' for Inactive)
REMARK    1  A    between atoms: C_2  and  C_4
REMARK    2  A    between atoms: C_4  and  C_5
REMARK    3  A    between atoms: C_5  and  N_6
REMARK    4  A    between atoms: C_5  and  C_31
REMARK    5  A    between atoms: C_7  and  C_9
REMARK    6  A    between atoms: C_16  and  N_18
REMARK    7  A    between atoms: N_21  and  C_22
REMARK    8  A    between atoms: C_25  and  C_28
REMARK                            x       y       z     vdW  Elec       q    Type
REMARK                         _______ _______ _______ _____ _____    ______ ____
ROOT
ATOM      9  C   UNL     1      -3.377   0.108  24.512  0.00  0.00    +0.200 C 
ATOM     10  O   UNL     1      -3.423  -0.101  25.307  0.00  0.00    -0.216 OA
ATOM     11  C   UNL     1      -3.337   0.032  23.691  0.00  0.00    +0.075 C 
ATOM     12  C   UNL     1      -3.295   0.705  23.215  0.00  0.00    +0.187 C 
ATOM     13  O   UNL     1      -3.256   0.629  22.395  0.00  0.00    -0.220 OA
ATOM     14  C   UNL     1      -3.292   1.454  23.561  0.00  0.00    +0.202 C 
ATOM     15  O   UNL     1      -3.250   2.128  23.086  0.00  0.00    -0.219 OA
ATOM     16  C   UNL     1      -3.331   1.530  24.381  0.00  0.00    +0.133 C 
ATOM     17  C   UNL     1      -3.374   0.858  24.856  0.00  0.00    +0.064 C 
ENDROOT
BRANCH  16  18
ATOM     18  N   UNL     1      -3.328   2.279  24.727  0.00  0.00    -0.186 NA
ATOM     19  C   UNL     1      -3.977   2.533  25.168  0.00  0.00    +0.344 C 
ATOM     20  O   UNL     1      -4.630   2.038  25.265  0.00  0.00    -0.249 OA
ATOM     21  N   UNL     1      -3.974   3.282  25.514  0.00  0.00    -0.161 NA
BRANCH  21  22
ATOM     22  C   UNL     1      -3.322   3.778  25.418  0.00  0.00    +0.075 A 
ATOM     23  C   UNL     1      -3.327   4.357  24.830  0.00  0.00    +0.017 A 
ATOM     24  C   UNL     1      -2.675   4.853  24.734  0.00  0.00    +0.004 A 
ATOM     25  C   UNL     1      -2.017   4.770  25.226  0.00  0.00    +0.035 A 
ATOM     26  C   UNL     1      -2.012   4.191  25.813  0.00  0.00    +0.004 A 
ATOM     27  C   UNL     1      -2.665   3.695  25.909  0.00  0.00    +0.017 A 
BRANCH  25  28
ATOM     28  C   UNL     1      -1.366   5.266  25.129  0.00  0.00    +0.173 C 
ATOM     29  C   UNL     1      -0.621   4.946  24.973  0.00  0.00    +0.077 C 
ATOM     30  O   UNL     1      -1.458   6.084  25.188  0.00  0.00    -0.291 OA
ENDBRANCH  25  28
ENDBRANCH  21  22
ENDBRANCH  16  18
BRANCH   9   7
ATOM      6  N   UNL     1      -2.830  -1.173  24.830  0.00  0.00    -0.196 NA
ATOM      7  C   UNL     1      -3.396  -0.713  24.442  0.00  0.00    +0.269 C 
ATOM      8  O   UNL     1      -3.980  -1.076  23.986  0.00  0.00    -0.271 OA
BRANCH   6   5
ATOM      5  C   UNL     1      -2.849  -1.995  24.761  0.00  0.00    +0.174 C 
BRANCH   5  31
ATOM     31  C   UNL     1      -3.406  -2.432  25.184  0.00  0.00    +0.281 C 
ATOM     32  N   UNL     1      -3.881  -2.983  24.794  0.00  0.00    -0.086 NA
ATOM     33  O   UNL     1      -3.490  -2.319  25.996  0.00  0.00    -0.270 OA
ENDBRANCH   5  31
BRANCH   5   4
ATOM      4  C   UNL     1      -2.310  -2.378  24.268  0.00  0.00    +0.031 C 
BRANCH   4   2
ATOM      1  C   UNL     1      -1.288  -2.715  25.209  0.00  0.00    +0.000 C 
ATOM      2  C   UNL     1      -1.512  -2.410  24.476  0.00  0.00    +0.002 C 
ATOM      3  C   UNL     1      -0.937  -2.135  23.951  0.00  0.00    +0.000 C 
ENDBRANCH   4   2
ENDBRANCH   5   4
ENDBRANCH   6   5
ENDBRANCH   9   7
TORSDOF 8
ENDMDL
MODEL 6
REMARK VINA RESULT:      -8.1      4.424      5.401
REMARK  Name = 
REMARK  8 active torsions:
REMARK  status: ('A' for Active; 'I' for Inactive)
REMARK    1  A    between atoms: C_2  and  C_4
REMARK    2  A    between atoms: C_4  and  C_5
REMARK    3  A    between atoms: C_5  and  N_6
REMARK    4  A    between atoms: C_5  and  C_31
REMARK    5  A    between atoms: C_7  and  C_9
REMARK    6  A    between atoms: C_16  and  N_18
REMARK    7  A    between atoms: N_21  and  C_22
REMARK    8  A    between atoms: C_25  and  C_28
REMARK                            x       y       z     vdW  Elec       q    Type
REMARK                         _______ _______ _______ _____ _____    ______ ____
ROOT
ATOM      9  C   UNL     1      -0.209   1.284  24.421  0.00  0.00    +0.200 C 
ATOM     10  O   UNL     1      -0.001   2.069  24.285  0.00  0.00    -0.216 OA
ATOM     11  C   UNL     1      -0.633   0.630  24.695  0.00  0.00    +0.075 C 
ATOM     12  C   UNL     1      -0.366  -0.133  24.528  0.00  0.00    +0.187 C 
ATOM     13  O   UNL     1      -0.790  -0.786  24.801  0.00  0.00    -0.220 OA
ATOM     14  C   UNL     1       0.323  -0.243  24.088  0.00  0.00    +0.202 C 
ATOM     15  O   UNL     1       0.589  -1.006  23.921  0.00  0.00    -0.219 OA
ATOM     16  C   UNL     1       0.746   0.410  23.815  0.00  0.00    +0.133 C 
ATOM     17  C   UNL     1       0.480   1.173  23.982  0.00  0.00    +0.064 C 
ENDROOT
BRANCH  16  18
ATOM     18  N   UNL     1       1.435   0.301  23.375  0.00  0.00    -0.186 NA
ATOM     19  C   UNL     1       1.388   0.120  22.572  0.00  0.00    +0.344 C 
ATOM     20  O   UNL     1       0.651   0.047  22.208  0.00  0.00    -0.249 OA
ATOM     21  N   UNL     1       2.078   0.010  22.133  0.00  0.00    -0.161 NA
BRANCH  21  22
ATOM     22  C   UNL     1       2.814   0.082  22.496  0.00  0.00    +0.075 A 
ATOM     23  C   UNL     1       3.202   0.810  22.502  0.00  0.00    +0.017 A 
ATOM     24  C   UNL     1       3.939   0.882  22.866  0.00  0.00    +0.004 A 
ATOM     25  C   UNL     1       4.288   0.226  23.223  0.00  0.00    +0.035 A 
ATOM     26  C   UNL     1       3.901  -0.502  23.218  0.00  0.00    +0.004 A 
ATOM     27  C   UNL     1       3.164  -0.574  22.854  0.00  0.00    +0.017 A 
BRANCH  25  28
ATOM     28  C   UNL     1       5.025   0.299  23.587  0.00  0.00    +0.173 C 
ATOM     29  C   UNL     1       5.637  -0.218  23.389  0.00  0.00    +0.077 C 
ATOM     30  O   UNL     1       5.151   0.891  24.149  0.00  0.00    -0.291 OA
ENDBRANCH  25  28
ENDBRANCH  21  22
ENDBRANCH  16  18
BRANCH   9   7
ATOM      6  N   UNL     1      -1.208   2.305  24.457  0.00  0.00    -0.196 NA
ATOM      7  C   UNL     1      -0.826   1.665  24.814  0.00  0.00    +0.269 C 
ATOM      8  O   UNL     1      -1.061   1.409  25.562  0.00  0.00    -0.271 OA
BRANCH   6   5
ATOM      5  C   UNL     1      -1.825   2.687  24.849  0.00  0.00    +0.174 C 
BRANCH   5  31
ATOM     31  C   UNL     1      -2.604   2.575  24.602  0.00  0.00    +0.281 C 
ATOM     32  N   UNL     1      -2.819   2.745  23.824  0.00  0.00    -0.086 NA
ATOM     33  O   UNL     1      -3.169   2.292  25.133  0.00  0.00    -0.270 OA
ENDBRANCH   5  31
BRANCH   5   4
ATOM      4  C   UNL     1      -1.662   3.181  25.489  0.00  0.00    +0.031 C 
BRANCH   4   2
ATOM      1  C   UNL     1      -2.451   4.345  25.744  0.00  0.00    +0.000 C 
ATOM      2  C   UNL     1      -1.777   3.996  25.420  0.00  0.00    +0.002 C 
ATOM      3  C   UNL     1      -1.218   4.460  25.029  0.00  0.00    +0.000 C 
ENDBRANCH   4   2
ENDBRANCH   5   4
ENDBRANCH   6   5
ENDBRANCH   9   7
TORSDOF 8
ENDMDL
MODEL 7
REMARK VINA RESULT:      -7.9      2.742      3.875
REMARK  Name = 
REMARK  8 active torsions:
REMARK  status: ('A' for Active; 'I' for Inactive)
REMARK    1  A    between atoms: C_2  and  C_4
REMARK    2  A    between atoms: C_4  and  C_5
REMARK    3  A    between atoms: C_5  and  N_6
REMARK    4  A    between atoms: C_5  and  C_31
REMARK    5  A    between atoms: C_7  and  C_9
REMARK    6  A    between atoms: C_16  and  N_18
REMARK    7  A    between atoms: N_21  and  C_22
REMARK    8  A    between atoms: C_25  and  C_28
REMARK                            x       y       z     vdW  Elec       q    Type
REMARK                         _______ _______ _______ _____ _____    ______ ____
ROOT
ATOM      9  C   UNL     1      -3.616   1.182  24.520  0.00  0.00    +0.200 C 
ATOM     10  O   UNL     1      -3.328   1.933  24.697  0.00  0.00    -0.216 OA
ATOM     11  C   UNL     1      -4.152   0.577  24.349  0.00  0.00    +0.075 C 
ATOM     12  C   UNL     1      -3.878  -0.191  24.220  0.00  0.00    +0.187 C 
ATOM     13  O   UNL     1      -4.413  -0.795  24.049  0.00  0.00    -0.220 OA
ATOM     14  C   UNL     1      -3.071  -0.354  24.261  0.00  0.00    +0.202 C 
ATOM     15  O   UNL     1      -2.798  -1.122  24.132  0.00  0.00    -0.219 OA
ATOM     16  C   UNL     1      -2.536   0.250  24.432  0.00  0.00    +0.133 C 
ATOM     17  C   UNL     1      -2.809   1.017  24.561  0.00  0.00    +0.064 C 
ENDROOT
BRANCH  16  18
ATOM     18  N   UNL     1      -1.729   0.087  24.473  0.00  0.00    -0.186 NA
ATOM     19  C   UNL     1      -1.383  -0.105  25.197  0.00  0.00    +0.344 C 
ATOM     20  O   UNL     1      -1.844  -0.134  25.880  0.00  0.00    -0.249 OA
ATOM     21  N   UNL     1      -0.575  -0.268  25.238  0.00  0.00    -0.161 NA
BRANCH  21  22
ATOM     22  C   UNL     1      -0.113  -0.239  24.556  0.00  0.00    +0.075 A 
ATOM     23  C   UNL     1       0.163   0.486  24.276  0.00  0.00    +0.017 A 
ATOM     24  C   UNL     1       0.626   0.515  23.593  0.00  0.00    +0.004 A 
ATOM     25  C   UNL     1       0.811  -0.181  23.190  0.00  0.00    +0.035 A 
ATOM     26  C   UNL     1       0.535  -0.906  23.470  0.00  0.00    +0.004 A 
ATOM     27  C   UNL     1       0.072  -0.935  24.153  0.00  0.00    +0.017 A 
BRANCH  25  28
ATOM     28  C   UNL     1       1.273  -0.151  22.508  0.00  0.00    +0.173 C 
ATOM     29  C   UNL     1       2.069   0.064  22.555  0.00  0.00    +0.077 C 
ATOM     30  O   UNL     1       0.940  -0.335  21.775  0.00  0.00    -0.291 OA
ENDBRANCH  25  28
ENDBRANCH  21  22
ENDBRANCH  16  18
BRANCH   9   7
ATOM      6  N   UNL     1      -4.590   1.929  25.251  0.00  0.00    -0.196 NA
ATOM      7  C   UNL     1      -4.324   1.605  24.540  0.00  0.00    +0.269 C 
ATOM      8  O   UNL     1      -4.765   1.706  23.850  0.00  0.00    -0.271 OA
BRANCH   6   5
ATOM      5  C   UNL     1      -5.297   2.353  25.272  0.00  0.00    +0.174 C 
BRANCH   5  31
ATOM     31  C   UNL     1      -5.986   1.994  25.551  0.00  0.00    +0.281 C 
ATOM     32  N   UNL     1      -6.030   1.740  26.335  0.00  0.00    -0.086 NA
ATOM     33  O   UNL     1      -6.631   1.890  25.048  0.00  0.00    -0.270 OA
ENDBRANCH   5  31
BRANCH   5   4
ATOM      4  C   UNL     1      -5.316   3.135  25.012  0.00  0.00    +0.031 C 
BRANCH   4   2
ATOM      1  C   UNL     1      -5.965   4.252  25.624  0.00  0.00    +0.000 C 
ATOM      2  C   UNL     1      -5.312   3.752  25.561  0.00  0.00    +0.002 C 
ATOM      3  C   UNL     1      -4.654   3.869  26.046  0.00  0.00    +0.000 C 
ENDBRANCH   4   2
ENDBRANCH   5   4
ENDBRANCH   6   5
ENDBRANCH   9   7
TORSDOF 8
ENDMDL
MODEL 8
REMARK VINA RESULT:      -7.8      2.571      5.114
REMARK  Name = 
REMARK  8 active torsions:
REMARK  status: ('A' for Active; 'I' for Inactive)
REMARK    1  A    between atoms: C_2  and  C_4
REMARK    2  A    between atoms: C_4  and  C_5
REMARK    3  A    between atoms: C_5  and  N_6
REMARK    4  A    between atoms: C_5  and  C_31
REMARK    5  A    between atoms: C_7  and  C_9
REMARK    6  A    between atoms: C_16  and  N_18
REMARK    7  A    between atoms: N_21  and  C_22
REMARK    8  A    between atoms: C_25  and  C_28
REMARK                            x       y       z     vdW  Elec       q    Type
REMARK                         _______ _______ _______ _____ _____    ______ ____
ROOT
ATOM      9  C   UNL     1      -0.924   1.498  24.486  0.00  0.00    +0.200 C 
ATOM     10  O   UNL     1      -1.224   1.170  23.791  0.00  0.00    -0.216 OA
ATOM     11  C   UNL     1      -0.407   1.650  25.111  0.00  0.00    +0.075 C 
ATOM     12  C   UNL     1      -0.617   2.194  25.696  0.00  0.00    +0.187 C 
ATOM     13  O   UNL     1      -0.101   2.347  26.321  0.00  0.00    -0.220 OA
ATOM     14  C   UNL     1      -1.343   2.583  25.655  0.00  0.00    +0.202 C 
ATOM     15  O   UNL     1      -1.553   3.126  26.240  0.00  0.00    -0.219 OA
ATOM     16  C   UNL     1      -1.859   2.430  25.031  0.00  0.00    +0.133 C 
ATOM     17  C   UNL     1      -1.649   1.888  24.446  0.00  0.00    +0.064 C 
ENDROOT
BRANCH  16  18
ATOM     18  N   UNL     1      -2.585   2.820  24.990  0.00  0.00    -0.186 NA
ATOM     19  C   UNL     1      -2.635   3.564  24.638  0.00  0.00    +0.344 C 
ATOM     20  O   UNL     1      -1.959   3.919  24.326  0.00  0.00    -0.249 OA
ATOM     21  N   UNL     1      -3.362   3.953  24.598  0.00  0.00    -0.161 NA
BRANCH  21  22
ATOM     22  C   UNL     1      -4.038   3.599  24.910  0.00  0.00    +0.075 A 
ATOM     23  C   UNL     1      -4.446   3.032  24.470  0.00  0.00    +0.017 A 
ATOM     24  C   UNL     1      -5.122   2.677  24.782  0.00  0.00    +0.004 A 
ATOM     25  C   UNL     1      -5.391   2.889  25.533  0.00  0.00    +0.035 A 
ATOM     26  C   UNL     1      -4.983   3.456  25.972  0.00  0.00    +0.004 A 
ATOM     27  C   UNL     1      -4.306   3.811  25.660  0.00  0.00    +0.017 A 
BRANCH  25  28
ATOM     28  C   UNL     1      -6.067   2.534  25.844  0.00  0.00    +0.173 C 
ATOM     29  C   UNL     1      -6.509   2.012  25.383  0.00  0.00    +0.077 C 
ATOM     30  O   UNL     1      -6.302   2.701  26.617  0.00  0.00    -0.291 OA
ENDBRANCH  25  28
ENDBRANCH  21  22
ENDBRANCH  16  18
BRANCH   9   7
ATOM      6  N   UNL     1      -0.460   0.223  24.037  0.00  0.00    -0.196 NA
ATOM      7  C   UNL     1      -0.302   0.994  24.285  0.00  0.00    +0.269 C 
ATOM      8  O   UNL     1       0.477   1.261  24.332  0.00  0.00    -0.271 OA
BRANCH   6   5
ATOM      5  C   UNL     1       0.162  -0.281  23.837  0.00  0.00    +0.174 C 
BRANCH   5  31
ATOM     31  C   UNL     1       0.565  -0.176  23.125  0.00  0.00    +0.281 C 
ATOM     32  N   UNL     1       1.384  -0.075  23.125  0.00  0.00    -0.086 NA
ATOM     33  O   UNL     1       0.151  -0.171  22.412  0.00  0.00    -0.270 OA
ENDBRANCH   5  31
BRANCH   5   4
ATOM      4  C   UNL     1       0.380  -0.889  24.349  0.00  0.00    +0.031 C 
BRANCH   4   2
ATOM      1  C   UNL     1      -0.251  -1.736  25.311  0.00  0.00    +0.000 C 
ATOM      2  C   UNL     1      -0.158  -1.489  24.530  0.00  0.00    +0.002 C 
ATOM      3  C   UNL     1      -0.603  -1.839  23.930  0.00  0.00    +0.000 C 
ENDBRANCH   4   2
ENDBRANCH   5   4
ENDBRANCH   6   5
ENDBRANCH   9   7
TORSDOF 8
ENDMDL
