MODEL 1
REMARK VINA RESULT:     -10.4      0.000      0.000
REMARK  Name = 
REMARK  6 active torsions:
REMARK  status: ('A' for Active; 'I' for Inactive)
REMARK    1  A    between atoms: C_2  and  C_4
REMARK    2  A    between atoms: C_6  and  C_7
REMARK    3  A    between atoms: C_7  and  C_8
REMARK    4  A    between atoms: C_19  and  C_20
REMARK    5  A    between atoms: C_20  and  N_21
REMARK    6  A    between atoms: C_22  and  C_24
REMARK                            x       y       z     vdW  Elec       q    Type
REMARK                         _______ _______ _______ _____ _____    ______ ____
ROOT
ATOM      4  C   UNL     1      -4.101   1.533  25.023  0.00  0.00    +0.006 C 
ATOM      5  C   UNL     1      -4.069   0.711  24.958  0.00  0.00    +0.005 C 
ATOM      6  C   UNL     1      -3.341   0.325  24.958  0.00  0.00    +0.027 C 
ATOM     16  C   UNL     1      -2.643   0.761  25.022  0.00  0.00    -0.048 C 
ATOM     17  C   UNL     1      -1.914   0.375  25.021  0.00  0.00    +0.026 C 
ATOM     18  C   UNL     1      -2.675   1.583  25.086  0.00  0.00    -0.033 C 
ATOM     19  C   UNL     1      -3.403   1.969  25.087  0.00  0.00    +0.043 C 
ENDROOT
BRANCH   4   2
ATOM      1  C   UNL     1      -5.297   1.917  25.704  0.00  0.00    +0.000 C 
ATOM      2  C   UNL     1      -4.831   1.918  25.023  0.00  0.00    +0.000 C 
ATOM      3  C   UNL     1      -5.093   2.305  24.344  0.00  0.00    +0.000 C 
ENDBRANCH   4   2
BRANCH   6   7
ATOM      7  C   UNL     1      -3.309  -0.497  24.893  0.00  0.00    +0.089 C 
BRANCH   7   8
ATOM      8  C   UNL     1      -3.694  -0.877  24.270  0.00  0.00    +0.226 C 
ATOM      9  O   UNL     1      -4.000  -0.436  23.644  0.00  0.00    -0.275 OA
ATOM     10  N   UNL     1      -3.772  -1.698  24.274  0.00  0.00    -0.274 N 
ATOM     11  C   UNL     1      -3.466  -2.140  24.900  0.00  0.00    +0.125 C 
ATOM     12  C   UNL     1      -3.545  -2.960  24.904  0.00  0.00    +0.164 C 
ATOM     13  O   UNL     1      -3.930  -3.341  24.280  0.00  0.00    -0.350 OA
ATOM     14  C   UNL     1      -4.236  -2.900  23.654  0.00  0.00    +0.164 C 
ATOM     15  C   UNL     1      -4.157  -2.079  23.650  0.00  0.00    +0.125 C 
ENDBRANCH   7   8
ENDBRANCH   6   7
BRANCH  19  20
ATOM     20  C   UNL     1      -3.436   2.790  25.151  0.00  0.00    +0.120 C 
BRANCH  20  21
ATOM     21  N   UNL     1      -2.768   3.245  24.984  0.00  0.00    -0.201 NA
ATOM     22  C   UNL     1      -2.638   3.951  25.389  0.00  0.00    +0.268 C 
ATOM     23  O   UNL     1      -3.175   4.204  25.962  0.00  0.00    -0.268 OA
BRANCH  22  24
ATOM     24  C   UNL     1      -1.969   4.406  25.221  0.00  0.00    +0.093 A 
ATOM     25  C   UNL     1      -2.036   5.225  25.146  0.00  0.00    +0.107 A 
ATOM     26  N   UNL     1      -1.367   5.679  24.979  0.00  0.00    -0.222 NA
ATOM     27  C   UNL     1      -0.632   5.314  24.887  0.00  0.00    +0.199 A 
ATOM     28  N   UNL     1      -0.567   4.495  24.962  0.00  0.00    -0.222 NA
ATOM     29  C   UNL     1      -1.235   4.041  25.129  0.00  0.00    +0.107 A 
ENDBRANCH  22  24
ENDBRANCH  20  21
ENDBRANCH  19  20
TORSDOF 6
ENDMDL
MODEL 2
REMARK VINA RESULT:     -10.1      1.047      5.632
REMARK  Name = 
REMARK  6 active torsions:
REMARK  status: ('A' for Active; 'I' for Inactive)
REMARK    1  A    between atoms: C_2  and  C_4
REMARK    2  A    between atoms: C_6  and  C_7
REMARK    3  A    between atoms: C_7  and  C_8
REMARK    4  A    between atoms: C_19  and  C_20
REMARK    5  A    between atoms: C_20  and  N_21
REMARK    6  A    between atoms: C_22  and  C_24
REMARK                            x       y       z     vdW  Elec       q    Type
REMARK                         _______ _______ _______ _____ _____    ______ ____
ROOT
ATOM      4  C   UNL     1      -3.364   1.893  24.606  0.00  0.00    +0.006 C 
ATOM      5  C   UNL     1      -2.809   2.473  24.795  0.00  0.00    +0.005 C 
ATOM      6  C   UNL     1      -2.070   2.257  25.089  0.00  0.00    +0.027 C 
ATOM     16  C   UNL     1      -1.885   1.460  25.196  0.00  0.00    -0.048 C 
ATOM     17  C   UNL     1      -1.146   1.244  25.490  0.00  0.00    +0.026 C 
ATOM     18  C   UNL     1      -2.441   0.879  25.007  0.00  0.00    -0.033 C 
ATOM     19  C   UNL     1      -3.180   1.096  24.713  0.00  0.00    +0.043 C 
ENDROOT
BRANCH   4   2
ATOM      1  C   UNL     1      -4.755   2.145  24.818  0.00  0.00    +0.000 C 
ATOM      2  C   UNL     1      -4.104   2.110  24.312  0.00  0.00    +0.000 C 
ATOM      3  C   UNL     1      -4.192   2.291  23.513  0.00  0.00    +0.000 C 
ENDBRANCH   4   2
BRANCH   6   7
ATOM      7  C   UNL     1      -1.515   2.838  25.278  0.00  0.00    +0.089 C 
BRANCH   7   8
ATOM      8  C   UNL     1      -1.765   3.596  25.487  0.00  0.00    +0.226 C 
ATOM      9  O   UNL     1      -2.403   3.692  26.001  0.00  0.00    -0.275 OA
ATOM     10  N   UNL     1      -1.377   4.256  25.182  0.00  0.00    -0.274 N 
ATOM     11  C   UNL     1      -0.738   4.160  24.669  0.00  0.00    +0.125 C 
ATOM     12  C   UNL     1      -0.350   4.821  24.364  0.00  0.00    +0.164 C 
ATOM     13  O   UNL     1      -0.601   5.579  24.573  0.00  0.00    -0.350 OA
ATOM     14  C   UNL     1      -1.239   5.676  25.087  0.00  0.00    +0.164 C 
ATOM     15  C   UNL     1      -1.627   5.015  25.392  0.00  0.00    +0.125 C 
ENDBRANCH   7   8
ENDBRANCH   6   7
BRANCH  19  20
ATOM     20  C   UNL     1      -3.735   0.516  24.524  0.00  0.00    +0.120 C 
BRANCH  20  21
ATOM     21  N   UNL     1      -3.530  -0.282  24.567  0.00  0.00    -0.201 NA
ATOM     22  C   UNL     1      -4.104  -0.862  24.450  0.00  0.00    +0.268 C 
ATOM     23  O   UNL     1      -4.884  -0.645  24.290  0.00  0.00    -0.268 OA
BRANCH  22  24
ATOM     24  C   UNL     1      -3.898  -1.661  24.493  0.00  0.00    +0.093 A 
ATOM     25  C   UNL     1      -4.024  -2.154  23.843  0.00  0.00    +0.107 A 
ATOM     26  N   UNL     1      -3.819  -2.952  23.886  0.00  0.00    -0.222 NA
ATOM     27  C   UNL     1      -3.488  -3.257  24.579  0.00  0.00    +0.199 A 
ATOM     28  N   UNL     1      -3.364  -2.763  25.228  0.00  0.00    -0.222 NA
ATOM     29  C   UNL     1      -3.569  -1.965  25.185  0.00  0.00    +0.107 A 
ENDBRANCH  22  24
ENDBRANCH  20  21
ENDBRANCH  19  20
TORSDOF 6
ENDMDL
MODEL 3
REMARK VINA RESULT:      -9.9      1.076      2.147
REMARK  Name = 
REMARK  6 active torsions:
REMARK  status: ('A' for Active; 'I' for Inactive)
REMARK    1  A    between atoms: C_2  and  C_4
REMARK    2  A    between atoms: C_6  and  C_7
REMARK    3  A    between atoms: C_7  and  C_8
REMARK    4  A    between atoms: C_19  and  C_20
REMARK    5  A    between atoms: C_20  and  N_21
REMARK    6  A    between atoms: C_22  and  C_24
REMARK                            x       y       z     vdW  Elec       q    Type
REMARK                         _______ _______ _______ _____ _____    ______ ____
ROOT
ATOM      4  C   UNL     1      -1.641   0.571  24.738  0.00  0.00    +0.006 C 
ATOM      5  C   UNL     1      -2.218  -0.013  24.664  0.00  0.00    +0.005 C 
ATOM      6  C   UNL     1      -3.013   0.176  24.770  0.00  0.00    +0.027 C 
ATOM     16  C   UNL     1      -3.233   0.950  24.949  0.00  0.00    -0.048 C 
ATOM     17  C   UNL     1      -4.029   1.140  25.055  0.00  0.00    +0.026 C 
ATOM     18  C   UNL     1      -2.656   1.536  25.023  0.00  0.00    -0.033 C 
ATOM     19  C   UNL     1      -1.861   1.347  24.917  0.00  0.00    +0.043 C 
ENDROOT
BRANCH   4   2
ATOM      1  C   UNL     1      -0.389   0.145  25.278  0.00  0.00    +0.000 C 
ATOM      2  C   UNL     1      -0.845   0.382  24.632  0.00  0.00    +0.000 C 
ATOM      3  C   UNL     1      -0.506   0.428  23.882  0.00  0.00    +0.000 C 
ENDBRANCH   4   2
BRANCH   6   7
ATOM      7  C   UNL     1      -3.590  -0.410  24.696  0.00  0.00    +0.089 C 
BRANCH   7   8
ATOM      8  C   UNL     1      -3.492  -1.137  25.074  0.00  0.00    +0.226 C 
ATOM      9  O   UNL     1      -3.186  -1.164  25.840  0.00  0.00    -0.275 OA
ATOM     10  N   UNL     1      -3.698  -1.834  24.686  0.00  0.00    -0.274 N 
ATOM     11  C   UNL     1      -4.004  -1.806  23.920  0.00  0.00    +0.125 C 
ATOM     12  C   UNL     1      -4.211  -2.504  23.532  0.00  0.00    +0.164 C 
ATOM     13  O   UNL     1      -4.112  -3.231  23.911  0.00  0.00    -0.350 OA
ATOM     14  C   UNL     1      -3.807  -3.259  24.676  0.00  0.00    +0.164 C 
ATOM     15  C   UNL     1      -3.600  -2.562  25.064  0.00  0.00    +0.125 C 
ENDBRANCH   7   8
ENDBRANCH   6   7
BRANCH  19  20
ATOM     20  C   UNL     1      -1.283   1.931  24.991  0.00  0.00    +0.120 C 
BRANCH  20  21
ATOM     21  N   UNL     1      -1.494   2.728  24.943  0.00  0.00    -0.201 NA
ATOM     22  C   UNL     1      -0.987   3.306  25.239  0.00  0.00    +0.268 C 
ATOM     23  O   UNL     1      -0.269   3.090  25.584  0.00  0.00    -0.268 OA
BRANCH  22  24
ATOM     24  C   UNL     1      -1.197   4.104  25.191  0.00  0.00    +0.093 A 
ATOM     25  C   UNL     1      -0.701   4.638  24.805  0.00  0.00    +0.107 A 
ATOM     26  N   UNL     1      -0.911   5.434  24.756  0.00  0.00    -0.222 NA
ATOM     27  C   UNL     1      -1.618   5.696  25.094  0.00  0.00    +0.199 A 
ATOM     28  N   UNL     1      -2.113   5.161  25.480  0.00  0.00    -0.222 NA
ATOM     29  C   UNL     1      -1.903   4.365  25.528  0.00  0.00    +0.107 A 
ENDBRANCH  22  24
ENDBRANCH  20  21
ENDBRANCH  19  20
TORSDOF 6
ENDMDL
MODEL 4
REMARK VINA RESULT:      -9.6      2.745      4.674
REMARK  Name = 
REMARK  6 active torsions:
REMARK  status: ('A' for Active; 'I' for Inactive)
REMARK    1  A    between atoms: C_2  and  C_4
REMARK    2  A    between atoms: C_6  and  C_7
REMARK    3  A    between atoms: C_7  and  C_8
REMARK    4  A    between atoms: C_19  and  C_20
REMARK    5  A    between atoms: C_20  and  N_21
REMARK    6  A    between atoms: C_22  and  C_24
REMARK                            x       y       z     vdW  Elec       q    Type
REMARK                         _______ _______ _______ _____ _____    ______ ____
ROOT
ATOM      4  C   UNL     1      -1.967   0.467  24.821  0.00  0.00    +0.006 C 
ATOM      5  C   UNL     1      -2.598   0.994  24.895  0.00  0.00    +0.005 C 
ATOM      6  C   UNL     1      -2.693   1.602  24.348  0.00  0.00    +0.027 C 
ATOM     16  C   UNL     1      -2.159   1.685  23.725  0.00  0.00    -0.048 C 
ATOM     17  C   UNL     1      -2.254   2.294  23.177  0.00  0.00    +0.026 C 
ATOM     18  C   UNL     1      -1.527   1.158  23.651  0.00  0.00    -0.033 C 
ATOM     19  C   UNL     1      -1.431   0.550  24.198  0.00  0.00    +0.043 C 
ENDROOT
BRANCH   4   2
ATOM      1  C   UNL     1      -2.244  -0.868  25.248  0.00  0.00    +0.000 C 
ATOM      2  C   UNL     1      -1.871  -0.142  25.369  0.00  0.00    +0.000 C 
ATOM      3  C   UNL     1      -1.404  -0.025  26.038  0.00  0.00    +0.000 C 
ENDBRANCH   4   2
BRANCH   6   7
ATOM      7  C   UNL     1      -3.325   2.129  24.422  0.00  0.00    +0.089 C 
BRANCH   7   8
ATOM      8  C   UNL     1      -4.089   1.843  24.543  0.00  0.00    +0.226 C 
ATOM      9  O   UNL     1      -4.313   1.117  24.221  0.00  0.00    -0.275 OA
ATOM     10  N   UNL     1      -4.627   2.282  24.987  0.00  0.00    -0.274 N 
ATOM     11  C   UNL     1      -4.403   3.008  25.309  0.00  0.00    +0.125 C 
ATOM     12  C   UNL     1      -4.942   3.447  25.753  0.00  0.00    +0.164 C 
ATOM     13  O   UNL     1      -5.707   3.160  25.874  0.00  0.00    -0.350 OA
ATOM     14  C   UNL     1      -5.931   2.435  25.552  0.00  0.00    +0.164 C 
ATOM     15  C   UNL     1      -5.393   1.995  25.108  0.00  0.00    +0.125 C 
ENDBRANCH   7   8
ENDBRANCH   6   7
BRANCH  19  20
ATOM     20  C   UNL     1      -0.801   0.023  24.124  0.00  0.00    +0.120 C 
BRANCH  20  21
ATOM     21  N   UNL     1      -0.123   0.246  23.710  0.00  0.00    -0.201 NA
ATOM     22  C   UNL     1       0.446  -0.318  23.517  0.00  0.00    +0.268 C 
ATOM     23  O   UNL     1       0.338  -1.106  23.737  0.00  0.00    -0.268 OA
BRANCH  22  24
ATOM     24  C   UNL     1       1.124  -0.096  23.102  0.00  0.00    +0.093 A 
ATOM     25  C   UNL     1       1.252  -0.380  22.338  0.00  0.00    +0.107 A 
ATOM     26  N   UNL     1       1.930  -0.157  21.924  0.00  0.00    -0.222 NA
ATOM     27  C   UNL     1       2.480   0.350  22.274  0.00  0.00    +0.199 A 
ATOM     28  N   UNL     1       2.351   0.633  23.037  0.00  0.00    -0.222 NA
ATOM     29  C   UNL     1       1.673   0.410  23.452  0.00  0.00    +0.107 A 
ENDBRANCH  22  24
ENDBRANCH  20  21
ENDBRANCH  19  20
TORSDOF 6
ENDMDL
MODEL 5
REMARK VINA RESULT:      -8.7      2.718      4.351
REMARK  Name = 
REMARK  6 active torsions:
REMARK  status: ('A' for Active; 'I' for Inactive)
REMARK    1  A    between atoms: C_2  and  C_4
REMARK    2  A    between atoms: C_6  and  C_7
REMARK    3  A    between atoms: C_7  and  C_8
REMARK    4  A    between atoms: C_19  and  C_20
REMARK    5  A    between atoms: C_20  and  N_21
REMARK    6  A    between atoms: C_22  and  C_24
REMARK                            x       y       z     vdW  Elec       q    Type
REMARK                         _______ _______ _______ _____ _____    ______ ____
ROOT
ATOM      4  C   UNL     1      -1.973   0.028  24.701  0.00  0.00    +0.006 C 
ATOM      5  C   UNL     1      -1.175   0.048  24.492  0.00  0.00    +0.005 C 
ATOM      6  C   UNL     1      -0.851   0.732  24.166  0.00  0.00    +0.027 C 
ATOM     16  C   UNL     1      -1.324   1.398  24.049  0.00  0.00    -0.048 C 
ATOM     17  C   UNL     1      -0.999   2.082  23.723  0.00  0.00    +0.026 C 
ATOM     18  C   UNL     1      -2.122   1.378  24.258  0.00  0.00    -0.033 C 
ATOM     19  C   UNL     1      -2.447   0.694  24.584  0.00  0.00    +0.043 C 
ENDROOT
BRANCH   4   2
ATOM      1  C   UNL     1      -2.225  -0.802  25.836  0.00  0.00    +0.000 C 
ATOM      2  C   UNL     1      -2.297  -0.657  25.027  0.00  0.00    +0.000 C 
ATOM      3  C   UNL     1      -2.694  -1.195  24.545  0.00  0.00    +0.000 C 
ENDBRANCH   4   2
BRANCH   6   7
ATOM      7  C   UNL     1      -0.053   0.751  23.957  0.00  0.00    +0.089 C 
BRANCH   7   8
ATOM      8  C   UNL     1       0.236   0.234  23.383  0.00  0.00    +0.226 C 
ATOM      9  O   UNL     1      -0.266  -0.325  23.042  0.00  0.00    -0.275 OA
ATOM     10  N   UNL     1       1.026   0.276  23.151  0.00  0.00    -0.274 N 
ATOM     11  C   UNL     1       1.528   0.835  23.492  0.00  0.00    +0.125 C 
ATOM     12  C   UNL     1       2.318   0.876  23.260  0.00  0.00    +0.164 C 
ATOM     13  O   UNL     1       2.608   0.358  22.685  0.00  0.00    -0.350 OA
ATOM     14  C   UNL     1       2.106  -0.200  22.344  0.00  0.00    +0.164 C 
ATOM     15  C   UNL     1       1.316  -0.242  22.576  0.00  0.00    +0.125 C 
ENDBRANCH   7   8
ENDBRANCH   6   7
BRANCH  19  20
ATOM     20  C   UNL     1      -3.244   0.674  24.793  0.00  0.00    +0.120 C 
BRANCH  20  21
ATOM     21  N   UNL     1      -3.631   1.369  25.012  0.00  0.00    -0.201 NA
ATOM     22  C   UNL     1      -4.454   1.412  24.974  0.00  0.00    +0.268 C 
ATOM     23  O   UNL     1      -4.890   0.760  24.717  0.00  0.00    -0.268 OA
BRANCH  22  24
ATOM     24  C   UNL     1      -4.841   2.107  25.193  0.00  0.00    +0.093 A 
ATOM     25  C   UNL     1      -5.388   2.097  25.812  0.00  0.00    +0.107 A 
ATOM     26  N   UNL     1      -5.775   2.792  26.031  0.00  0.00    -0.222 NA
ATOM     27  C   UNL     1      -5.616   3.497  25.632  0.00  0.00    +0.199 A 
ATOM     28  N   UNL     1      -5.069   3.506  25.014  0.00  0.00    -0.222 NA
ATOM     29  C   UNL     1      -4.682   2.811  24.794  0.00  0.00    +0.107 A 
ENDBRANCH  22  24
ENDBRANCH  20  21
ENDBRANCH  19  20
TORSDOF 6
ENDMDL
