MODEL 1
REMARK VINA RESULT:     -11.3      0.000      0.000
REMARK  Name = 
REMARK  6 active torsions:
REMARK  status: ('A' for Active; 'I' for Inactive)
REMARK    1  A    between atoms: C_3  and  N_18
REMARK    2  A    between atoms: C_6  and  C_7
REMARK    3  A    between atoms: C_7  and  N_8
REMARK    4  A    between atoms: C_9  and  C_11
REMARK    5  A    between atoms: N_18  and  C_19
REMARK    6  A    between atoms: C_19  and  C_20
REMARK                            x       y       z     vdW  Elec       q    Type
REMARK                         _______ _______ _______ _____ _____    ______ ____
ROOT
ATOM      1  O   UNL     1      -4.142   1.147  25.573  0.00  0.00    -0.219 OA
ATOM      2  C   UNL     1      -3.883   1.268  24.798  0.00  0.00    +0.199 C 
ATOM      3  C   UNL     1      -3.838   0.695  24.207  0.00  0.00    +0.135 C 
ATOM      4  C   UNL     1      -3.552   1.056  23.524  0.00  0.00    +0.162 C 
ATOM      5  O   UNL     1      -3.419   1.853  23.692  0.00  0.00    -0.350 OA
ATOM      6  C   UNL     1      -3.624   1.984  24.480  0.00  0.00    +0.169 C 
ENDROOT
BRANCH   6   7
ATOM      7  C   UNL     1      -3.578   2.704  24.880  0.00  0.00    +0.148 C 
BRANCH   7   8
ATOM      8  N   UNL     1      -2.921   3.191  24.776  0.00  0.00    -0.199 NA
ATOM      9  C   UNL     1      -2.791   3.822  25.292  0.00  0.00    +0.265 C 
ATOM     10  O   UNL     1      -3.318   3.965  25.910  0.00  0.00    -0.268 OA
BRANCH   9  11
ATOM     11  C   UNL     1      -2.133   4.310  25.189  0.00  0.00    +0.055 A 
ATOM     12  C   UNL     1      -1.378   3.980  25.143  0.00  0.00    +0.007 A 
ATOM     13  C   UNL     1      -0.721   4.468  25.040  0.00  0.00    +0.030 A 
ATOM     14  C   UNL     1      -0.819   5.285  24.982  0.00  0.00    +0.140 A 
ATOM     15  F   UNL     1      -0.161   5.773  24.879  0.00  0.00    -0.204 F 
ATOM     16  C   UNL     1      -1.574   5.615  25.028  0.00  0.00    +0.030 A 
ATOM     17  C   UNL     1      -2.231   5.128  25.131  0.00  0.00    +0.007 A 
ENDBRANCH   9  11
ENDBRANCH   7   8
ENDBRANCH   6   7
BRANCH   3  18
ATOM     18  N   UNL     1      -4.044  -0.101  24.286  0.00  0.00    -0.209 NA
BRANCH  18  19
ATOM     19  C   UNL     1      -3.670  -0.672  23.823  0.00  0.00    +0.115 C 
BRANCH  19  20
ATOM     20  C   UNL     1      -3.687  -1.464  24.051  0.00  0.00    -0.005 A 
ATOM     21  C   UNL     1      -3.114  -1.759  24.566  0.00  0.00    -0.001 A 
ATOM     22  C   UNL     1      -3.131  -2.551  24.793  0.00  0.00    +0.029 A 
ATOM     23  C   UNL     1      -3.722  -3.049  24.506  0.00  0.00    +0.140 A 
ATOM     24  F   UNL     1      -3.740  -3.842  24.734  0.00  0.00    -0.204 F 
ATOM     25  C   UNL     1      -4.296  -2.756  23.991  0.00  0.00    +0.029 A 
ATOM     26  C   UNL     1      -4.278  -1.963  23.763  0.00  0.00    -0.001 A 
ENDBRANCH  19  20
ENDBRANCH  18  19
ENDBRANCH   3  18
TORSDOF 6
ENDMDL
MODEL 2
REMARK VINA RESULT:     -11.2      1.863      2.217
REMARK  Name = 
REMARK  6 active torsions:
REMARK  status: ('A' for Active; 'I' for Inactive)
REMARK    1  A    between atoms: C_3  and  N_18
REMARK    2  A    between atoms: C_6  and  C_7
REMARK    3  A    between atoms: C_7  and  N_8
REMARK    4  A    between atoms: C_9  and  C_11
REMARK    5  A    between atoms: N_18  and  C_19
REMARK    6  A    between atoms: C_19  and  C_20
REMARK                            x       y       z     vdW  Elec       q    Type
REMARK                         _______ _______ _______ _____ _____    ______ ____
ROOT
ATOM      1  O   UNL     1      -1.225   0.493  23.920  0.00  0.00    -0.219 OA
ATOM      2  C   UNL     1      -1.230   0.349  24.732  0.00  0.00    +0.199 C 
ATOM      3  C   UNL     1      -1.605  -0.280  25.111  0.00  0.00    +0.135 C 
ATOM      4  C   UNL     1      -1.467  -0.209  25.921  0.00  0.00    +0.162 C 
ATOM      5  O   UNL     1      -1.007   0.465  26.043  0.00  0.00    -0.350 OA
ATOM      6  C   UNL     1      -0.861   0.810  25.309  0.00  0.00    +0.169 C 
ENDROOT
BRANCH   6   7
ATOM      7  C   UNL     1      -0.422   1.495  25.173  0.00  0.00    +0.148 C 
BRANCH   7   8
ATOM      8  N   UNL     1      -0.800   2.228  25.147  0.00  0.00    -0.199 NA
ATOM      9  C   UNL     1      -0.363   2.921  25.244  0.00  0.00    +0.265 C 
ATOM     10  O   UNL     1       0.452   2.881  25.368  0.00  0.00    -0.268 OA
BRANCH   9  11
ATOM     11  C   UNL     1      -0.741   3.654  25.218  0.00  0.00    +0.055 A 
ATOM     12  C   UNL     1      -0.410   4.273  24.784  0.00  0.00    +0.007 A 
ATOM     13  C   UNL     1      -0.788   5.006  24.758  0.00  0.00    +0.030 A 
ATOM     14  C   UNL     1      -1.496   5.120  25.166  0.00  0.00    +0.140 A 
ATOM     15  F   UNL     1      -1.874   5.853  25.140  0.00  0.00    -0.204 F 
ATOM     16  C   UNL     1      -1.827   4.501  25.600  0.00  0.00    +0.030 A 
ATOM     17  C   UNL     1      -1.449   3.768  25.626  0.00  0.00    +0.007 A 
ENDBRANCH   9  11
ENDBRANCH   7   8
ENDBRANCH   6   7
BRANCH   3  18
ATOM     18  N   UNL     1      -2.041  -0.877  24.744  0.00  0.00    -0.209 NA
BRANCH  18  19
ATOM     19  C   UNL     1      -2.710  -1.187  25.115  0.00  0.00    +0.115 C 
BRANCH  19  20
ATOM     20  C   UNL     1      -3.229  -1.670  24.693  0.00  0.00    -0.005 A 
ATOM     21  C   UNL     1      -3.116  -2.487  24.683  0.00  0.00    -0.001 A 
ATOM     22  C   UNL     1      -3.635  -2.970  24.262  0.00  0.00    +0.029 A 
ATOM     23  C   UNL     1      -4.267  -2.636  23.850  0.00  0.00    +0.140 A 
ATOM     24  F   UNL     1      -4.787  -3.119  23.428  0.00  0.00    -0.204 F 
ATOM     25  C   UNL     1      -4.380  -1.818  23.860  0.00  0.00    +0.029 A 
ATOM     26  C   UNL     1      -3.860  -1.335  24.282  0.00  0.00    -0.001 A 
ENDBRANCH  19  20
ENDBRANCH  18  19
ENDBRANCH   3  18
TORSDOF 6
ENDMDL
MODEL 3
REMARK VINA RESULT:     -11.0      1.896      6.429
REMARK  Name = 
REMARK  6 active torsions:
REMARK  status: ('A' for Active; 'I' for Inactive)
REMARK    1  A    between atoms: C_3  and  N_18
REMARK    2  A    between atoms: C_6  and  C_7
REMARK    3  A    between atoms: C_7  and  N_8
REMARK    4  A    between atoms: C_9  and  C_11
REMARK    5  A    between atoms: N_18  and  C_19
REMARK    6  A    between atoms: C_19  and  C_20
REMARK                            x       y       z     vdW  Elec       q    Type
REMARK                         _______ _______ _______ _____ _____    ______ ____
ROOT
ATOM      1  O   UNL     1      -1.006   1.085  23.809  0.00  0.00    -0.219 OA
ATOM      2  C   UNL     1      -0.980   0.985  24.627  0.00  0.00    +0.199 C 
ATOM      3  C   UNL     1      -0.891   1.585  25.186  0.00  0.00    +0.135 C 
ATOM      4  C   UNL     1      -0.894   1.238  25.934  0.00  0.00    +0.162 C 
ATOM      5  O   UNL     1      -0.984   0.424  25.838  0.00  0.00    -0.350 OA
ATOM      6  C   UNL     1      -1.037   0.267  25.030  0.00  0.00    +0.169 C 
ENDROOT
BRANCH   6   7
ATOM      7  C   UNL     1      -1.131  -0.476  24.686  0.00  0.00    +0.148 C 
BRANCH   7   8
ATOM      8  N   UNL     1      -1.888  -0.780  24.562  0.00  0.00    -0.199 NA
ATOM      9  C   UNL     1      -1.991  -1.588  24.428  0.00  0.00    +0.265 C 
ATOM     10  O   UNL     1      -1.337  -2.091  24.417  0.00  0.00    -0.268 OA
BRANCH   9  11
ATOM     11  C   UNL     1      -2.747  -1.893  24.305  0.00  0.00    +0.055 A 
ATOM     12  C   UNL     1      -2.904  -2.686  24.468  0.00  0.00    +0.007 A 
ATOM     13  C   UNL     1      -3.660  -2.991  24.344  0.00  0.00    +0.030 A 
ATOM     14  C   UNL     1      -4.261  -2.502  24.058  0.00  0.00    +0.140 A 
ATOM     15  F   UNL     1      -5.017  -2.806  23.935  0.00  0.00    -0.204 F 
ATOM     16  C   UNL     1      -4.104  -1.708  23.895  0.00  0.00    +0.030 A 
ATOM     17  C   UNL     1      -3.347  -1.404  24.019  0.00  0.00    +0.007 A 
ENDBRANCH   9  11
ENDBRANCH   7   8
ENDBRANCH   6   7
BRANCH   3  18
ATOM     18  N   UNL     1      -0.813   2.391  25.025  0.00  0.00    -0.209 NA
BRANCH  18  19
ATOM     19  C   UNL     1      -0.948   2.946  25.621  0.00  0.00    +0.115 C 
BRANCH  19  20
ATOM     20  C   UNL     1      -1.102   3.732  25.425  0.00  0.00    -0.005 A 
ATOM     21  C   UNL     1      -0.523   4.185  25.050  0.00  0.00    -0.001 A 
ATOM     22  C   UNL     1      -0.676   4.971  24.854  0.00  0.00    +0.029 A 
ATOM     23  C   UNL     1      -1.409   5.305  25.034  0.00  0.00    +0.140 A 
ATOM     24  F   UNL     1      -1.563   6.092  24.838  0.00  0.00    -0.204 F 
ATOM     25  C   UNL     1      -1.988   4.853  25.409  0.00  0.00    +0.029 A 
ATOM     26  C   UNL     1      -1.834   4.066  25.605  0.00  0.00    -0.001 A 
ENDBRANCH  19  20
ENDBRANCH  18  19
ENDBRANCH   3  18
TORSDOF 6
ENDMDL
MODEL 4
REMARK VINA RESULT:     -11.0      0.716      6.153
REMARK  Name = 
REMARK  6 active torsions:
REMARK  status: ('A' for Active; 'I' for Inactive)
REMARK    1  A    between atoms: C_3  and  N_18
REMARK    2  A    between atoms: C_6  and  C_7
REMARK    3  A    between atoms: C_7  and  N_8
REMARK    4  A    between atoms: C_9  and  C_11
REMARK    5  A    between atoms: N_18  and  C_19
REMARK    6  A    between atoms: C_19  and  C_20
REMARK                            x       y       z     vdW  Elec       q    Type
REMARK                         _______ _______ _______ _____ _____    ______ ____
ROOT
ATOM      1  O   UNL     1      -3.223   1.891  23.613  0.00  0.00    -0.219 OA
ATOM      2  C   UNL     1      -3.605   1.978  24.339  0.00  0.00    +0.199 C 
ATOM      3  C   UNL     1      -3.519   2.611  24.860  0.00  0.00    +0.135 C 
ATOM      4  C   UNL     1      -4.001   2.471  25.514  0.00  0.00    +0.162 C 
ATOM      5  O   UNL     1      -4.386   1.751  25.397  0.00  0.00    -0.350 OA
ATOM      6  C   UNL     1      -4.142   1.445  24.671  0.00  0.00    +0.169 C 
ENDROOT
BRANCH   6   7
ATOM      7  C   UNL     1      -4.389   0.734  24.336  0.00  0.00    +0.148 C 
BRANCH   7   8
ATOM      8  N   UNL     1      -4.030   0.026  24.560  0.00  0.00    -0.199 NA
ATOM      9  C   UNL     1      -4.369  -0.695  24.344  0.00  0.00    +0.265 C 
ATOM     10  O   UNL     1      -5.067  -0.707  23.905  0.00  0.00    -0.268 OA
BRANCH   9  11
ATOM     11  C   UNL     1      -4.010  -1.403  24.568  0.00  0.00    +0.055 A 
ATOM     12  C   UNL     1      -3.653  -1.468  25.309  0.00  0.00    +0.007 A 
ATOM     13  C   UNL     1      -3.294  -2.176  25.533  0.00  0.00    +0.030 A 
ATOM     14  C   UNL     1      -3.291  -2.819  25.016  0.00  0.00    +0.140 A 
ATOM     15  F   UNL     1      -2.932  -3.527  25.240  0.00  0.00    -0.204 F 
ATOM     16  C   UNL     1      -3.648  -2.754  24.275  0.00  0.00    +0.030 A 
ATOM     17  C   UNL     1      -4.007  -2.046  24.051  0.00  0.00    +0.007 A 
ENDBRANCH   9  11
ENDBRANCH   7   8
ENDBRANCH   6   7
BRANCH   3  18
ATOM     18  N   UNL     1      -3.035   3.270  24.746  0.00  0.00    -0.209 NA
BRANCH  18  19
ATOM     19  C   UNL     1      -2.599   3.575  25.377  0.00  0.00    +0.115 C 
BRANCH  19  20
ATOM     20  C   UNL     1      -1.997   4.121  25.236  0.00  0.00    -0.005 A 
ATOM     21  C   UNL     1      -2.169   4.928  25.212  0.00  0.00    -0.001 A 
ATOM     22  C   UNL     1      -1.568   5.474  25.072  0.00  0.00    +0.029 A 
ATOM     23  C   UNL     1      -0.794   5.214  24.956  0.00  0.00    +0.140 A 
ATOM     24  F   UNL     1      -0.191   5.761  24.815  0.00  0.00    -0.204 F 
ATOM     25  C   UNL     1      -0.621   4.408  24.980  0.00  0.00    +0.029 A 
ATOM     26  C   UNL     1      -1.223   3.861  25.120  0.00  0.00    -0.001 A 
ENDBRANCH  19  20
ENDBRANCH  18  19
ENDBRANCH   3  18
TORSDOF 6
ENDMDL
MODEL 5
REMARK VINA RESULT:      -9.1      3.837      5.125
REMARK  Name = 
REMARK  6 active torsions:
REMARK  status: ('A' for Active; 'I' for Inactive)
REMARK    1  A    between atoms: C_3  and  N_18
REMARK    2  A    between atoms: C_6  and  C_7
REMARK    3  A    between atoms: C_7  and  N_8
REMARK    4  A    between atoms: C_9  and  C_11
REMARK    5  A    between atoms: N_18  and  C_19
REMARK    6  A    between atoms: C_19  and  C_20
REMARK                            x       y       z     vdW  Elec       q    Type
REMARK                         _______ _______ _______ _____ _____    ______ ____
ROOT
ATOM      1  O   UNL     1      -2.076   0.295  24.903  0.00  0.00    -0.219 OA
ATOM      2  C   UNL     1      -1.901   0.862  24.330  0.00  0.00    +0.199 C 
ATOM      3  C   UNL     1      -2.361   1.520  24.143  0.00  0.00    +0.135 C 
ATOM      4  C   UNL     1      -1.980   1.935  23.541  0.00  0.00    +0.162 C 
ATOM      5  O   UNL     1      -1.284   1.533  23.356  0.00  0.00    -0.350 OA
ATOM      6  C   UNL     1      -1.235   0.870  23.843  0.00  0.00    +0.169 C 
ENDROOT
BRANCH   6   7
ATOM      7  C   UNL     1      -0.627   0.313  23.844  0.00  0.00    +0.148 C 
BRANCH   7   8
ATOM      8  N   UNL     1       0.090   0.484  23.473  0.00  0.00    -0.199 NA
ATOM      9  C   UNL     1       0.675  -0.095  23.417  0.00  0.00    +0.265 C 
ATOM     10  O   UNL     1       0.542  -0.846  23.732  0.00  0.00    -0.268 OA
BRANCH   9  11
ATOM     11  C   UNL     1       1.391   0.076  23.047  0.00  0.00    +0.055 A 
ATOM     12  C   UNL     1       1.570  -0.264  22.317  0.00  0.00    +0.007 A 
ATOM     13  C   UNL     1       2.287  -0.093  21.946  0.00  0.00    +0.030 A 
ATOM     14  C   UNL     1       2.825   0.419  22.306  0.00  0.00    +0.140 A 
ATOM     15  F   UNL     1       3.542   0.590  21.935  0.00  0.00    -0.204 F 
ATOM     16  C   UNL     1       2.647   0.759  23.036  0.00  0.00    +0.030 A 
ATOM     17  C   UNL     1       1.930   0.588  23.407  0.00  0.00    +0.007 A 
ENDBRANCH   9  11
ENDBRANCH   7   8
ENDBRANCH   6   7
BRANCH   3  18
ATOM     18  N   UNL     1      -3.078   1.727  24.497  0.00  0.00    -0.209 NA
BRANCH  18  19
ATOM     19  C   UNL     1      -3.490   2.393  24.236  0.00  0.00    +0.115 C 
BRANCH  19  20
ATOM     20  C   UNL     1      -4.145   2.663  24.657  0.00  0.00    -0.005 A 
ATOM     21  C   UNL     1      -4.848   2.231  24.649  0.00  0.00    -0.001 A 
ATOM     22  C   UNL     1      -5.504   2.502  25.070  0.00  0.00    +0.029 A 
ATOM     23  C   UNL     1      -5.457   3.205  25.498  0.00  0.00    +0.140 A 
ATOM     24  F   UNL     1      -6.113   3.476  25.920  0.00  0.00    -0.204 F 
ATOM     25  C   UNL     1      -4.754   3.638  25.506  0.00  0.00    +0.029 A 
ATOM     26  C   UNL     1      -4.098   3.367  25.085  0.00  0.00    -0.001 A 
ENDBRANCH  19  20
ENDBRANCH  18  19
ENDBRANCH   3  18
TORSDOF 6
ENDMDL
MODEL 6
REMARK VINA RESULT:      -8.0     14.574     16.742
REMARK  Name = 
REMARK  6 active torsions:
REMARK  status: ('A' for Active; 'I' for Inactive)
REMARK    1  A    between atoms: C_3  and  N_18
REMARK    2  A    between atoms: C_6  and  C_7
REMARK    3  A    between atoms: C_7  and  N_8
REMARK    4  A    between atoms: C_9  and  C_11
REMARK    5  A    between atoms: N_18  and  C_19
REMARK    6  A    between atoms: C_19  and  C_20
REMARK                            x       y       z     vdW  Elec       q    Type
REMARK                         _______ _______ _______ _____ _____    ______ ____
ROOT
ATOM      1  O   UNL     1      -3.079 -10.781  14.523  0.00  0.00    -0.219 OA
ATOM      2  C   UNL     1      -3.836 -10.613  14.241  0.00  0.00    +0.199 C 
ATOM      3  C   UNL     1      -4.518 -10.538  14.699  0.00  0.00    +0.135 C 
ATOM      4  C   UNL     1      -5.147 -10.368  14.194  0.00  0.00    +0.162 C 
ATOM      5  O   UNL     1      -4.854 -10.338  13.423  0.00  0.00    -0.350 OA
ATOM      6  C   UNL     1      -4.044 -10.489  13.452  0.00  0.00    +0.169 C 
ENDROOT
BRANCH   6   7
ATOM      7  C   UNL     1      -3.532 -10.512  12.807  0.00  0.00    +0.148 C 
BRANCH   7   8
ATOM      8  N   UNL     1      -3.791 -10.261  12.065  0.00  0.00    -0.199 NA
ATOM      9  C   UNL     1      -3.275 -10.275  11.421  0.00  0.00    +0.265 C 
ATOM     10  O   UNL     1      -2.500 -10.540  11.519  0.00  0.00    -0.268 OA
BRANCH   9  11
ATOM     11  C   UNL     1      -3.535 -10.024  10.679  0.00  0.00    +0.055 A 
ATOM     12  C   UNL     1      -3.335  -9.272  10.405  0.00  0.00    +0.007 A 
ATOM     13  C   UNL     1      -3.594  -9.021   9.664  0.00  0.00    +0.030 A 
ATOM     14  C   UNL     1      -4.054  -9.522   9.196  0.00  0.00    +0.140 A 
ATOM     15  F   UNL     1      -4.313  -9.271   8.454  0.00  0.00    -0.204 F 
ATOM     16  C   UNL     1      -4.254 -10.274   9.470  0.00  0.00    +0.030 A 
ATOM     17  C   UNL     1      -3.994 -10.525  10.211  0.00  0.00    +0.007 A 
ENDBRANCH   9  11
ENDBRANCH   7   8
ENDBRANCH   6   7
BRANCH   3  18
ATOM     18  N   UNL     1      -4.563 -10.619  15.519  0.00  0.00    -0.209 NA
BRANCH  18  19
ATOM     19  C   UNL     1      -5.094 -10.158  15.951  0.00  0.00    +0.115 C 
BRANCH  19  20
ATOM     20  C   UNL     1      -5.220 -10.314  16.751  0.00  0.00    -0.005 A 
ATOM     21  C   UNL     1      -4.579 -10.456  17.250  0.00  0.00    -0.001 A 
ATOM     22  C   UNL     1      -4.705 -10.612  18.050  0.00  0.00    +0.029 A 
ATOM     23  C   UNL     1      -5.473 -10.625  18.351  0.00  0.00    +0.140 A 
ATOM     24  F   UNL     1      -5.600 -10.781  19.152  0.00  0.00    -0.204 F 
ATOM     25  C   UNL     1      -6.115 -10.483  17.852  0.00  0.00    +0.029 A 
ATOM     26  C   UNL     1      -5.988 -10.327  17.052  0.00  0.00    -0.001 A 
ENDBRANCH  19  20
ENDBRANCH  18  19
ENDBRANCH   3  18
TORSDOF 6
ENDMDL
MODEL 7
REMARK VINA RESULT:      -7.4     14.410     16.578
REMARK  Name = 
REMARK  6 active torsions:
REMARK  status: ('A' for Active; 'I' for Inactive)
REMARK    1  A    between atoms: C_3  and  N_18
REMARK    2  A    between atoms: C_6  and  C_7
REMARK    3  A    between atoms: C_7  and  N_8
REMARK    4  A    between atoms: C_9  and  C_11
REMARK    5  A    between atoms: N_18  and  C_19
REMARK    6  A    between atoms: C_19  and  C_20
REMARK                            x       y       z     vdW  Elec       q    Type
REMARK                         _______ _______ _______ _____ _____    ______ ____
ROOT
ATOM      1  O   UNL     1      -3.126 -10.414  13.572  0.00  0.00    -0.219 OA
ATOM      2  C   UNL     1      -3.950 -10.428  13.615  0.00  0.00    +0.199 C 
ATOM      3  C   UNL     1      -4.470 -10.368  12.978  0.00  0.00    +0.135 C 
ATOM      4  C   UNL     1      -5.239 -10.407  13.272  0.00  0.00    +0.162 C 
ATOM      5  O   UNL     1      -5.195 -10.490  14.091  0.00  0.00    -0.350 OA
ATOM      6  C   UNL     1      -4.398 -10.503  14.304  0.00  0.00    +0.169 C 
ENDROOT
BRANCH   6   7
ATOM      7  C   UNL     1      -4.102 -10.578  15.069  0.00  0.00    +0.148 C 
BRANCH   7   8
ATOM      8  N   UNL     1      -4.617 -10.578  15.713  0.00  0.00    -0.199 NA
ATOM      9  C   UNL     1      -4.319 -10.626  16.481  0.00  0.00    +0.265 C 
ATOM     10  O   UNL     1      -3.504 -10.673  16.604  0.00  0.00    -0.268 OA
BRANCH   9  11
ATOM     11  C   UNL     1      -4.834 -10.625  17.125  0.00  0.00    +0.055 A 
ATOM     12  C   UNL     1      -4.547 -10.781  17.883  0.00  0.00    +0.007 A 
ATOM     13  C   UNL     1      -5.063 -10.781  18.527  0.00  0.00    +0.030 A 
ATOM     14  C   UNL     1      -5.866 -10.625  18.413  0.00  0.00    +0.140 A 
ATOM     15  F   UNL     1      -6.381 -10.625  19.056  0.00  0.00    -0.204 F 
ATOM     16  C   UNL     1      -6.152 -10.469  17.655  0.00  0.00    +0.030 A 
ATOM     17  C   UNL     1      -5.637 -10.470  17.011  0.00  0.00    +0.007 A 
ENDBRANCH   9  11
ENDBRANCH   7   8
ENDBRANCH   6   7
BRANCH   3  18
ATOM     18  N   UNL     1      -4.258 -10.285  12.184  0.00  0.00    -0.209 NA
BRANCH  18  19
ATOM     19  C   UNL     1      -4.808 -10.004  11.637  0.00  0.00    +0.115 C 
BRANCH  19  20
ATOM     20  C   UNL     1      -4.554  -9.718  10.907  0.00  0.00    -0.005 A 
ATOM     21  C   UNL     1      -4.221 -10.232  10.354  0.00  0.00    -0.001 A 
ATOM     22  C   UNL     1      -3.967  -9.946   9.624  0.00  0.00    +0.029 A 
ATOM     23  C   UNL     1      -4.047  -9.145   9.445  0.00  0.00    +0.140 A 
ATOM     24  F   UNL     1      -3.793  -8.858   8.714  0.00  0.00    -0.204 F 
ATOM     25  C   UNL     1      -4.380  -8.630   9.997  0.00  0.00    +0.029 A 
ATOM     26  C   UNL     1      -4.634  -8.917  10.728  0.00  0.00    -0.001 A 
ENDBRANCH  19  20
ENDBRANCH  18  19
ENDBRANCH   3  18
TORSDOF 6
ENDMDL
MODEL 8
REMARK VINA RESULT:      -7.3     20.213     21.809
REMARK  Name = 
REMARK  6 active torsions:
REMARK  status: ('A' for Active; 'I' for Inactive)
REMARK    1  A    between atoms: C_3  and  N_18
REMARK    2  A    between atoms: C_6  and  C_7
REMARK    3  A    between atoms: C_7  and  N_8
REMARK    4  A    between atoms: C_9  and  C_11
REMARK    5  A    between atoms: N_18  and  C_19
REMARK    6  A    between atoms: C_19  and  C_20
REMARK                            x       y       z     vdW  Elec       q    Type
REMARK                         _______ _______ _______ _____ _____    ______ ____
ROOT
ATOM      1  O   UNL     1      17.286  -5.772  23.377  0.00  0.00    -0.219 OA
ATOM      2  C   UNL     1      17.193  -5.526  24.159  0.00  0.00    +0.199 C 
ATOM      3  C   UNL     1      17.110  -4.747  24.416  0.00  0.00    +0.135 C 
ATOM      4  C   UNL     1      17.033  -4.756  25.236  0.00  0.00    +0.162 C 
ATOM      5  O   UNL     1      17.068  -5.541  25.487  0.00  0.00    -0.350 OA
ATOM      6  C   UNL     1      17.167  -6.017  24.821  0.00  0.00    +0.169 C 
ENDROOT
BRANCH   6   7
ATOM      7  C   UNL     1      17.229  -6.840  24.818  0.00  0.00    +0.148 C 
BRANCH   7   8
ATOM      8  N   UNL     1      16.784  -7.289  25.348  0.00  0.00    -0.199 NA
ATOM      9  C   UNL     1      16.872  -8.109  25.369  0.00  0.00    +0.265 C 
ATOM     10  O   UNL     1      17.405  -8.479  24.860  0.00  0.00    -0.268 OA
BRANCH   9  11
ATOM     11  C   UNL     1      16.428  -8.558  25.900  0.00  0.00    +0.055 A 
ATOM     12  C   UNL     1      15.686  -8.843  25.678  0.00  0.00    +0.007 A 
ATOM     13  C   UNL     1      15.241  -9.292  26.208  0.00  0.00    +0.030 A 
ATOM     14  C   UNL     1      15.538  -9.456  26.960  0.00  0.00    +0.140 A 
ATOM     15  F   UNL     1      15.094  -9.905  27.490  0.00  0.00    -0.204 F 
ATOM     16  C   UNL     1      16.280  -9.171  27.182  0.00  0.00    +0.030 A 
ATOM     17  C   UNL     1      16.725  -8.722  26.652  0.00  0.00    +0.007 A 
ENDBRANCH   9  11
ENDBRANCH   7   8
ENDBRANCH   6   7
BRANCH   3  18
ATOM     18  N   UNL     1      17.105  -4.076  23.935  0.00  0.00    -0.209 NA
BRANCH  18  19
ATOM     19  C   UNL     1      16.788  -3.368  24.217  0.00  0.00    +0.115 C 
BRANCH  19  20
ATOM     20  C   UNL     1      16.747  -2.709  23.724  0.00  0.00    -0.005 A 
ATOM     21  C   UNL     1      16.074  -2.577  23.266  0.00  0.00    -0.001 A 
ATOM     22  C   UNL     1      16.033  -1.917  22.773  0.00  0.00    +0.029 A 
ATOM     23  C   UNL     1      16.665  -1.389  22.738  0.00  0.00    +0.140 A 
ATOM     24  F   UNL     1      16.624  -0.728  22.245  0.00  0.00    -0.204 F 
ATOM     25  C   UNL     1      17.339  -1.520  23.196  0.00  0.00    +0.029 A 
ATOM     26  C   UNL     1      17.380  -2.180  23.689  0.00  0.00    -0.001 A 
ENDBRANCH  19  20
ENDBRANCH  18  19
ENDBRANCH   3  18
TORSDOF 6
ENDMDL
