REMARK  Name = 
REMARK  8 active torsions:
REMARK  status: ('A' for Active; 'I' for Inactive)
REMARK    1  A    between atoms: C_2  and  C_3
REMARK    2  A    between atoms: C_3  and  S_4
REMARK    3  A    between atoms: S_4  and  N_7
REMARK    4  A    between atoms: C_10  and  C_11
REMARK    5  A    between atoms: C_11  and  C_12
REMARK    6  A    between atoms: C_15  and  C_16
REMARK    7  A    between atoms: C_16  and  C_17
REMARK    8  A    between atoms: C_25  and  O_26
REMARK                            x       y       z     vdW  Elec       q    Type
REMARK                         _______ _______ _______ _____ _____    ______ ____
ROOT
ATOM      7  N   UNL     1      -2.143   1.238   0.000  0.00  0.00    -0.159 NA
ATOM      8  C   UNL     1      -2.143   2.062   0.000  0.00  0.00    +0.095 C 
ATOM      9  C   UNL     1      -1.429   2.475   0.000  0.00  0.00    +0.020 C 
ATOM     10  C   UNL     1      -0.715   2.062   0.000  0.00  0.00    +0.014 C 
ATOM     15  C   UNL     1      -0.715   1.238   0.000  0.00  0.00    +0.024 C 
ATOM     29  C   UNL     1      -1.429   0.825   0.000  0.00  0.00    +0.096 C 
ENDROOT
BRANCH   7   4
ATOM      4  S   UNL     1      -2.858   0.825   0.000  0.00  0.00    +0.044 S 
ATOM      5  O   UNL     1      -2.445   0.111   0.000  0.00  0.00    -0.157 OA
ATOM      6  O   UNL     1      -3.270   1.540   0.000  0.00  0.00    -0.157 OA
BRANCH   4   3
ATOM      3  C   UNL     1      -3.572   0.412   0.000  0.00  0.00    +0.169 C 
BRANCH   3   2
ATOM      1  C   UNL     1      -5.001   0.412   0.000  0.00  0.00    +0.002 C 
ATOM      2  C   UNL     1      -4.287   0.825   0.000  0.00  0.00    +0.027 C 
ENDBRANCH   3   2
ENDBRANCH   4   3
ENDBRANCH   7   4
BRANCH  10  11
ATOM     11  C   UNL     1       0.000   2.475   0.000  0.00  0.00    +0.114 C 
BRANCH  11  12
ATOM     12  C   UNL     1       0.000   3.300   0.000  0.00  0.00    +0.365 C 
ATOM     13  O   UNL     1      -0.715   3.712   0.000  0.00  0.00    -0.246 OA
ATOM     14  O   UNL     1       0.715   3.712   0.000  0.00  0.00    -0.246 OA
ENDBRANCH  11  12
ENDBRANCH  10  11
BRANCH  15  16
ATOM     16  C   UNL     1       0.000   0.825   0.000  0.00  0.00    +0.047 C 
BRANCH  16  17
ATOM     17  C   UNL     1       0.000   0.000   0.000  0.00  0.00    +0.053 C 
ATOM     18  N   UNL     1      -0.715  -0.412   0.000  0.00  0.00    -0.274 NA
ATOM     19  C   UNL     1      -0.715  -1.238   0.000  0.00  0.00    +0.130 C 
ATOM     20  C   UNL     1       0.000  -1.650   0.000  0.00  0.00    +0.053 C 
ATOM     21  C   UNL     1       0.715  -1.238   0.000  0.00  0.00    -0.016 A 
ATOM     22  C   UNL     1       0.715  -0.412   0.000  0.00  0.00    +0.009 A 
ATOM     23  C   UNL     1       1.429   0.000   0.000  0.00  0.00    +0.004 A 
ATOM     24  C   UNL     1       2.143  -0.412   0.000  0.00  0.00    +0.037 A 
ATOM     25  C   UNL     1       2.143  -1.238   0.000  0.00  0.00    +0.138 A 
ATOM     28  C   UNL     1       1.429  -1.650   0.000  0.00  0.00    +0.033 A 
BRANCH  25  26
ATOM     26  O   UNL     1       2.858  -1.650   0.000  0.00  0.00    -0.471 OA
ATOM     27  C   UNL     1       3.572  -1.238   0.000  0.00  0.00    +0.252 C 
ENDBRANCH  25  26
ENDBRANCH  16  17
ENDBRANCH  15  16
TORSDOF 8
