REMARK  Name = 
REMARK  9 active torsions:
REMARK  status: ('A' for Active; 'I' for Inactive)
REMARK    1  A    between atoms: O_2  and  C_3
REMARK    2  A    between atoms: C_5  and  S_6
REMARK    3  A    between atoms: C_10  and  C_11
REMARK    4  A    between atoms: N_13  and  C_14
REMARK    5  A    between atoms: C_16  and  C_23
REMARK    6  A    between atoms: N_25  and  C_26
REMARK    7  A    between atoms: C_26  and  C_27
REMARK    8  A    between atoms: C_26  and  C_37
REMARK    9  A    between atoms: C_27  and  C_28
REMARK                            x       y       z     vdW  Elec       q    Type
REMARK                         _______ _______ _______ _____ _____    ______ ____
ROOT
ATOM     14  C   UNL     1      -3.193   3.928   0.000  0.00  0.00    +0.131 C 
ATOM     15  C   UNL     1      -2.494   3.491   0.000  0.00  0.00    +0.064 C 
ATOM     16  C   UNL     1      -2.522   2.666   0.000  0.00  0.00    +0.200 C 
ATOM     17  O   UNL     1      -1.705   2.781   0.000  0.00  0.00    -0.216 OA
ATOM     18  C   UNL     1      -3.251   2.279   0.000  0.00  0.00    +0.075 C 
ATOM     19  C   UNL     1      -3.950   2.716   0.000  0.00  0.00    +0.187 C 
ATOM     20  O   UNL     1      -4.679   2.329   0.000  0.00  0.00    -0.220 OA
ATOM     21  C   UNL     1      -3.921   3.541   0.000  0.00  0.00    +0.202 C 
ATOM     22  O   UNL     1      -4.621   3.978   0.000  0.00  0.00    -0.219 OA
ENDROOT
BRANCH  14  13
ATOM     11  C   UNL     1      -3.864   5.190   0.000  0.00  0.00    +0.268 C 
ATOM     12  O   UNL     1      -4.592   4.803   0.000  0.00  0.00    -0.268 OA
ATOM     13  N   UNL     1      -3.164   4.753   0.000  0.00  0.00    -0.201 NA
BRANCH  11  10
ATOM      3  C   UNL     1      -4.535   6.452   0.000  0.00  0.00    +0.144 A 
ATOM      4  C   UNL     1      -4.506   7.276   0.000  0.00  0.00    +0.043 A 
ATOM      5  C   UNL     1      -3.778   7.663   0.000  0.00  0.00    +0.028 A 
ATOM      8  C   UNL     1      -3.078   7.226   0.000  0.00  0.00    +0.006 A 
ATOM      9  C   UNL     1      -3.107   6.402   0.000  0.00  0.00    +0.008 A 
ATOM     10  C   UNL     1      -3.835   6.014   0.000  0.00  0.00    +0.089 A 
BRANCH   3   2
ATOM      1  C   UNL     1      -5.292   5.240   0.000  0.00  0.00    +0.252 C 
ATOM      2  O   UNL     1      -5.263   6.064   0.000  0.00  0.00    -0.471 OA
ENDBRANCH   3   2
BRANCH   5   6
ATOM      6  S   UNL     1      -3.749   8.488   0.000  0.00  0.00    -0.113 S 
ATOM      7  C   UNL     1      -3.020   8.875   0.000  0.00  0.00    +0.074 C 
ENDBRANCH   5   6
ENDBRANCH  11  10
ENDBRANCH  14  13
BRANCH  16  23
ATOM     23  C   UNL     1      -2.267   1.882   0.000  0.00  0.00    +0.269 C 
ATOM     24  O   UNL     1      -2.819   1.269   0.000  0.00  0.00    -0.271 OA
ATOM     25  N   UNL     1      -1.460   1.710   0.000  0.00  0.00    -0.195 NA
BRANCH  25  26
ATOM     26  C   UNL     1      -1.205   0.926   0.000  0.00  0.00    +0.179 C 
BRANCH  26  37
ATOM     37  C   UNL     1      -1.758   0.313   0.000  0.00  0.00    +0.281 C 
ATOM     38  N   UNL     1      -1.502  -0.472   0.000  0.00  0.00    -0.086 NA
ATOM     39  O   UNL     1      -2.564   0.484   0.000  0.00  0.00    -0.270 OA
ENDBRANCH  26  37
BRANCH  26  27
ATOM     27  C   UNL     1      -0.398   0.754   0.000  0.00  0.00    +0.059 C 
BRANCH  27  28
ATOM     28  C   UNL     1      -0.143  -0.030   0.000  0.00  0.00    +0.001 A 
ATOM     29  C   UNL     1      -0.628  -0.698   0.000  0.00  0.00    +0.095 A 
ATOM     30  N   UNL     1      -0.143  -1.365   0.000  0.00  0.00    -0.244 NA
ATOM     31  C   UNL     1       0.641  -1.110   0.000  0.00  0.00    +0.081 A 
ATOM     32  C   UNL     1       0.641  -0.285   0.000  0.00  0.00    +0.015 A 
ATOM     33  C   UNL     1       1.356   0.127   0.000  0.00  0.00    +0.001 A 
ATOM     34  C   UNL     1       2.070  -0.285   0.000  0.00  0.00    +0.000 A 
ATOM     35  C   UNL     1       2.070  -1.110   0.000  0.00  0.00    +0.002 A 
ATOM     36  C   UNL     1       1.356  -1.523   0.000  0.00  0.00    +0.019 A 
ENDBRANCH  27  28
ENDBRANCH  26  27
ENDBRANCH  25  26
ENDBRANCH  16  23
TORSDOF 9
