MODEL 1
REMARK VINA RESULT:     -10.6      0.000      0.000
REMARK  Name = 
REMARK  5 active torsions:
REMARK  status: ('A' for Active; 'I' for Inactive)
REMARK    1  A    between atoms: N_5  and  C_8
REMARK    2  A    between atoms: C_11  and  C_12
REMARK    3  A    between atoms: C_15  and  C_16
REMARK    4  A    between atoms: C_16  and  N_17
REMARK    5  A    between atoms: N_20  and  C_21
REMARK                            x       y       z     vdW  Elec       q    Type
REMARK                         _______ _______ _______ _____ _____    ______ ____
ROOT
ATOM      8  C   UNL     1      -3.050   2.807  25.054  0.00  0.00    +0.120 C 
ATOM      9  C   UNL     1      -3.495   3.475  25.248  0.00  0.00    +0.198 C 
ATOM     10  O   UNL     1      -3.199   4.237  25.361  0.00  0.00    -0.219 OA
ATOM     11  C   UNL     1      -4.285   3.247  25.309  0.00  0.00    +0.180 C 
ATOM     14  O   UNL     1      -4.329   2.438  25.153  0.00  0.00    -0.350 OA
ATOM     15  C   UNL     1      -3.567   2.166  24.995  0.00  0.00    +0.154 C 
ENDROOT
BRANCH   8   5
ATOM      1  C   UNL     1       0.216   2.713  24.595  0.00  0.00    +0.090 C 
ATOM      2  N   UNL     1      -0.601   2.736  24.710  0.00  0.00    -0.269 NA
ATOM      3  C   UNL     1      -0.913   2.663  25.470  0.00  0.00    +0.090 C 
ATOM      4  C   UNL     1      -1.729   2.687  25.585  0.00  0.00    +0.090 C 
ATOM      5  N   UNL     1      -2.234   2.784  24.939  0.00  0.00    -0.267 NA
ATOM      6  C   UNL     1      -1.921   2.857  24.179  0.00  0.00    +0.090 C 
ATOM      7  C   UNL     1      -1.106   2.833  24.065  0.00  0.00    +0.090 C 
ENDBRANCH   8   5
BRANCH  11  12
ATOM     12  C   UNL     1      -4.919   3.741  25.494  0.00  0.00    +0.214 C 
ATOM     13  O   UNL     1      -5.583   3.434  25.875  0.00  0.00    -0.218 OA
ENDBRANCH  11  12
BRANCH  15  16
ATOM     16  C   UNL     1      -3.357   1.389  24.811  0.00  0.00    +0.148 C 
BRANCH  16  17
ATOM     17  N   UNL     1      -3.898   0.778  24.928  0.00  0.00    -0.184 NA
ATOM     18  C   UNL     1      -3.689   0.002  24.740  0.00  0.00    +0.344 C 
ATOM     19  O   UNL     1      -2.941  -0.161  24.435  0.00  0.00    -0.249 OA
ATOM     20  N   UNL     1      -4.230  -0.610  24.857  0.00  0.00    -0.161 NA
BRANCH  20  21
ATOM     21  C   UNL     1      -4.021  -1.386  24.669  0.00  0.00    +0.075 A 
ATOM     22  C   UNL     1      -4.247  -1.709  23.943  0.00  0.00    +0.017 A 
ATOM     23  C   UNL     1      -4.038  -2.484  23.755  0.00  0.00    +0.001 A 
ATOM     24  C   UNL     1      -3.605  -2.936  24.291  0.00  0.00    +0.000 A 
ATOM     25  C   UNL     1      -3.379  -2.614  25.016  0.00  0.00    +0.001 A 
ATOM     26  C   UNL     1      -3.588  -1.838  25.204  0.00  0.00    +0.017 A 
ENDBRANCH  20  21
ENDBRANCH  16  17
ENDBRANCH  15  16
TORSDOF 5
ENDMDL
MODEL 2
REMARK VINA RESULT:      -9.8      1.398      2.637
REMARK  Name = 
REMARK  5 active torsions:
REMARK  status: ('A' for Active; 'I' for Inactive)
REMARK    1  A    between atoms: N_5  and  C_8
REMARK    2  A    between atoms: C_11  and  C_12
REMARK    3  A    between atoms: C_15  and  C_16
REMARK    4  A    between atoms: C_16  and  N_17
REMARK    5  A    between atoms: N_20  and  C_21
REMARK                            x       y       z     vdW  Elec       q    Type
REMARK                         _______ _______ _______ _____ _____    ______ ____
ROOT
ATOM      8  C   UNL     1      -2.225   2.829  25.260  0.00  0.00    +0.120 C 
ATOM      9  C   UNL     1      -1.526   3.252  25.380  0.00  0.00    +0.198 C 
ATOM     10  O   UNL     1      -1.468   4.064  25.507  0.00  0.00    -0.219 OA
ATOM     11  C   UNL     1      -0.897   2.718  25.350  0.00  0.00    +0.180 C 
ATOM     14  O   UNL     1      -1.207   1.966  25.212  0.00  0.00    -0.350 OA
ATOM     15  C   UNL     1      -2.027   2.034  25.156  0.00  0.00    +0.154 C 
ENDROOT
BRANCH   8   5
ATOM      1  C   UNL     1      -5.273   4.090  25.209  0.00  0.00    +0.090 C 
ATOM      2  N   UNL     1      -4.511   3.774  25.222  0.00  0.00    -0.269 NA
ATOM      3  C   UNL     1      -4.173   3.540  25.937  0.00  0.00    +0.090 C 
ATOM      4  C   UNL     1      -3.412   3.226  25.950  0.00  0.00    +0.090 C 
ATOM      5  N   UNL     1      -2.987   3.144  25.247  0.00  0.00    -0.267 NA
ATOM      6  C   UNL     1      -3.324   3.378  24.532  0.00  0.00    +0.090 C 
ATOM      7  C   UNL     1      -4.086   3.693  24.520  0.00  0.00    +0.090 C 
ENDBRANCH   8   5
BRANCH  11  12
ATOM     12  C   UNL     1      -0.098   2.905  25.442  0.00  0.00    +0.214 C 
ATOM     13  O   UNL     1       0.430   2.333  25.713  0.00  0.00    -0.218 OA
ENDBRANCH  11  12
BRANCH  15  16
ATOM     16  C   UNL     1      -2.557   1.416  25.021  0.00  0.00    +0.148 C 
BRANCH  16  17
ATOM     17  N   UNL     1      -2.284   0.698  24.721  0.00  0.00    -0.184 NA
ATOM     18  C   UNL     1      -2.781   0.039  24.716  0.00  0.00    +0.344 C 
ATOM     19  O   UNL     1      -3.548   0.099  25.008  0.00  0.00    -0.249 OA
ATOM     20  N   UNL     1      -2.508  -0.680  24.416  0.00  0.00    -0.161 NA
BRANCH  20  21
ATOM     21  C   UNL     1      -3.004  -1.339  24.410  0.00  0.00    +0.075 A 
ATOM     22  C   UNL     1      -3.628  -1.380  23.870  0.00  0.00    +0.017 A 
ATOM     23  C   UNL     1      -4.125  -2.038  23.865  0.00  0.00    +0.001 A 
ATOM     24  C   UNL     1      -3.999  -2.655  24.396  0.00  0.00    +0.000 A 
ATOM     25  C   UNL     1      -3.376  -2.614  24.936  0.00  0.00    +0.001 A 
ATOM     26  C   UNL     1      -2.878  -1.955  24.942  0.00  0.00    +0.017 A 
ENDBRANCH  20  21
ENDBRANCH  16  17
ENDBRANCH  15  16
TORSDOF 5
ENDMDL
MODEL 3
REMARK VINA RESULT:      -8.5      2.373      5.595
REMARK  Name = 
REMARK  5 active torsions:
REMARK  status: ('A' for Active; 'I' for Inactive)
REMARK    1  A    between atoms: N_5  and  C_8
REMARK    2  A    between atoms: C_11  and  C_12
REMARK    3  A    between atoms: C_15  and  C_16
REMARK    4  A    between atoms: C_16  and  N_17
REMARK    5  A    between atoms: N_20  and  C_21
REMARK                            x       y       z     vdW  Elec       q    Type
REMARK                         _______ _______ _______ _____ _____    ______ ____
ROOT
ATOM      8  C   UNL     1      -0.846  -0.181  24.335  0.00  0.00    +0.120 C 
ATOM      9  C   UNL     1      -0.262  -0.640  23.974  0.00  0.00    +0.198 C 
ATOM     10  O   UNL     1      -0.246  -1.464  23.941  0.00  0.00    -0.219 OA
ATOM     11  C   UNL     1       0.301  -0.130  23.653  0.00  0.00    +0.180 C 
ATOM     14  O   UNL     1       0.066   0.644  23.815  0.00  0.00    -0.350 OA
ATOM     15  C   UNL     1      -0.642   0.612  24.236  0.00  0.00    +0.154 C 
ENDROOT
BRANCH   8   5
ATOM      1  C   UNL     1      -3.522  -1.317  25.895  0.00  0.00    +0.090 C 
ATOM      2  N   UNL     1      -2.852  -1.033  25.505  0.00  0.00    -0.269 NA
ATOM      3  C   UNL     1      -2.893  -0.837  24.705  0.00  0.00    +0.090 C 
ATOM      4  C   UNL     1      -2.225  -0.554  24.315  0.00  0.00    +0.090 C 
ATOM      5  N   UNL     1      -1.514  -0.465  24.725  0.00  0.00    -0.267 NA
ATOM      6  C   UNL     1      -1.473  -0.661  25.526  0.00  0.00    +0.090 C 
ATOM      7  C   UNL     1      -2.142  -0.945  25.915  0.00  0.00    +0.090 C 
ENDBRANCH   8   5
BRANCH  11  12
ATOM     12  C   UNL     1       0.981  -0.356  23.242  0.00  0.00    +0.214 C 
ATOM     13  O   UNL     1       1.454   0.217  22.883  0.00  0.00    -0.218 OA
ENDBRANCH  11  12
BRANCH  15  16
ATOM     16  C   UNL     1      -1.073   1.261  24.511  0.00  0.00    +0.148 C 
BRANCH  16  17
ATOM     17  N   UNL     1      -0.677   1.920  24.811  0.00  0.00    -0.184 NA
ATOM     18  C   UNL     1      -1.059   2.651  24.838  0.00  0.00    +0.344 C 
ATOM     19  O   UNL     1      -1.834   2.723  24.567  0.00  0.00    -0.249 OA
ATOM     20  N   UNL     1      -0.664   3.311  25.138  0.00  0.00    -0.161 NA
BRANCH  20  21
ATOM     21  C   UNL     1      -1.045   4.042  25.166  0.00  0.00    +0.075 A 
ATOM     22  C   UNL     1      -0.734   4.685  24.752  0.00  0.00    +0.017 A 
ATOM     23  C   UNL     1      -1.116   5.416  24.780  0.00  0.00    +0.001 A 
ATOM     24  C   UNL     1      -1.807   5.504  25.220  0.00  0.00    +0.000 A 
ATOM     25  C   UNL     1      -2.118   4.862  25.634  0.00  0.00    +0.001 A 
ATOM     26  C   UNL     1      -1.736   4.130  25.606  0.00  0.00    +0.017 A 
ENDBRANCH  20  21
ENDBRANCH  16  17
ENDBRANCH  15  16
TORSDOF 5
ENDMDL
MODEL 4
REMARK VINA RESULT:      -8.4      2.223      3.648
REMARK  Name = 
REMARK  5 active torsions:
REMARK  status: ('A' for Active; 'I' for Inactive)
REMARK    1  A    between atoms: N_5  and  C_8
REMARK    2  A    between atoms: C_11  and  C_12
REMARK    3  A    between atoms: C_15  and  C_16
REMARK    4  A    between atoms: C_16  and  N_17
REMARK    5  A    between atoms: N_20  and  C_21
REMARK                            x       y       z     vdW  Elec       q    Type
REMARK                         _______ _______ _______ _____ _____    ______ ____
ROOT
ATOM      8  C   UNL     1      -0.864   2.113  24.643  0.00  0.00    +0.120 C 
ATOM      9  C   UNL     1      -0.264   2.680  24.621  0.00  0.00    +0.198 C 
ATOM     10  O   UNL     1       0.544   2.526  24.575  0.00  0.00    -0.219 OA
ATOM     11  C   UNL     1      -0.616   3.425  24.655  0.00  0.00    +0.180 C 
ATOM     14  O   UNL     1      -1.434   3.319  24.697  0.00  0.00    -0.350 OA
ATOM     15  C   UNL     1      -1.587   2.509  24.690  0.00  0.00    +0.154 C 
ENDROOT
BRANCH   8   5
ATOM      1  C   UNL     1      -0.450  -1.159  24.558  0.00  0.00    +0.090 C 
ATOM      2  N   UNL     1      -0.553  -0.341  24.579  0.00  0.00    -0.269 NA
ATOM      3  C   UNL     1      -0.633   0.046  25.303  0.00  0.00    +0.090 C 
ATOM      4  C   UNL     1      -0.737   0.864  25.324  0.00  0.00    +0.090 C 
ATOM      5  N   UNL     1      -0.761   1.295  24.621  0.00  0.00    -0.267 NA
ATOM      6  C   UNL     1      -0.681   0.908  23.897  0.00  0.00    +0.090 C 
ATOM      7  C   UNL     1      -0.577   0.090  23.876  0.00  0.00    +0.090 C 
ENDBRANCH   8   5
BRANCH  11  12
ATOM     12  C   UNL     1      -0.220   4.149  24.648  0.00  0.00    +0.214 C 
ATOM     13  O   UNL     1      -0.614   4.836  24.876  0.00  0.00    -0.218 OA
ENDBRANCH  11  12
BRANCH  15  16
ATOM     16  C   UNL     1      -2.332   2.156  24.723  0.00  0.00    +0.148 C 
BRANCH  16  17
ATOM     17  N   UNL     1      -3.011   2.624  24.696  0.00  0.00    -0.184 NA
ATOM     18  C   UNL     1      -3.737   2.309  24.930  0.00  0.00    +0.344 C 
ATOM     19  O   UNL     1      -3.784   1.529  25.192  0.00  0.00    -0.249 OA
ATOM     20  N   UNL     1      -4.417   2.777  24.903  0.00  0.00    -0.161 NA
BRANCH  20  21
ATOM     21  C   UNL     1      -5.142   2.463  25.138  0.00  0.00    +0.075 A 
ATOM     22  C   UNL     1      -5.439   2.629  25.890  0.00  0.00    +0.017 A 
ATOM     23  C   UNL     1      -6.165   2.314  26.125  0.00  0.00    +0.001 A 
ATOM     24  C   UNL     1      -6.593   1.836  25.609  0.00  0.00    +0.000 A 
ATOM     25  C   UNL     1      -6.298   1.670  24.857  0.00  0.00    +0.001 A 
ATOM     26  C   UNL     1      -5.571   1.985  24.622  0.00  0.00    +0.017 A 
ENDBRANCH  20  21
ENDBRANCH  16  17
ENDBRANCH  15  16
TORSDOF 5
ENDMDL
MODEL 5
REMARK VINA RESULT:      -8.3     16.272     18.686
REMARK  Name = 
REMARK  5 active torsions:
REMARK  status: ('A' for Active; 'I' for Inactive)
REMARK    1  A    between atoms: N_5  and  C_8
REMARK    2  A    between atoms: C_11  and  C_12
REMARK    3  A    between atoms: C_15  and  C_16
REMARK    4  A    between atoms: C_16  and  N_17
REMARK    5  A    between atoms: N_20  and  C_21
REMARK                            x       y       z     vdW  Elec       q    Type
REMARK                         _______ _______ _______ _____ _____    ______ ____
ROOT
ATOM      8  C   UNL     1      11.670   8.289  19.389  0.00  0.00    +0.120 C 
ATOM      9  C   UNL     1      11.156   8.450  18.763  0.00  0.00    +0.198 C 
ATOM     10  O   UNL     1      10.369   8.685  18.832  0.00  0.00    -0.219 OA
ATOM     11  C   UNL     1      11.569   8.334  18.058  0.00  0.00    +0.180 C 
ATOM     14  O   UNL     1      12.337   8.101  18.248  0.00  0.00    -0.350 OA
ATOM     15  C   UNL     1      12.400   8.074  19.070  0.00  0.00    +0.154 C 
ENDROOT
BRANCH   8   5
ATOM      1  C   UNL     1      10.935   8.471  22.600  0.00  0.00    +0.090 C 
ATOM      2  N   UNL     1      11.119   8.426  21.797  0.00  0.00    -0.269 NA
ATOM      3  C   UNL     1      11.027   7.713  21.393  0.00  0.00    +0.090 C 
ATOM      4  C   UNL     1      11.210   7.667  20.591  0.00  0.00    +0.090 C 
ATOM      5  N   UNL     1      11.486   8.335  20.192  0.00  0.00    -0.267 NA
ATOM      6  C   UNL     1      11.578   9.048  20.596  0.00  0.00    +0.090 C 
ATOM      7  C   UNL     1      11.395   9.093  21.399  0.00  0.00    +0.090 C 
ENDBRANCH   8   5
BRANCH  11  12
ATOM     12  C   UNL     1      11.266   8.433  17.297  0.00  0.00    +0.214 C 
ATOM     13  O   UNL     1      11.388   7.852  16.726  0.00  0.00    -0.218 OA
ENDBRANCH  11  12
BRANCH  15  16
ATOM     16  C   UNL     1      13.074   7.867  19.499  0.00  0.00    +0.148 C 
BRANCH  16  17
ATOM     17  N   UNL     1      13.819   7.925  19.149  0.00  0.00    -0.184 NA
ATOM     18  C   UNL     1      14.468   7.555  19.498  0.00  0.00    +0.344 C 
ATOM     19  O   UNL     1      14.373   7.127  20.195  0.00  0.00    -0.249 OA
ATOM     20  N   UNL     1      15.213   7.613  19.148  0.00  0.00    -0.161 NA
BRANCH  20  21
ATOM     21  C   UNL     1      15.862   7.243  19.497  0.00  0.00    +0.075 A 
ATOM     22  C   UNL     1      16.289   7.631  20.088  0.00  0.00    +0.017 A 
ATOM     23  C   UNL     1      16.938   7.260  20.437  0.00  0.00    +0.001 A 
ATOM     24  C   UNL     1      17.161   6.504  20.197  0.00  0.00    +0.000 A 
ATOM     25  C   UNL     1      16.735   6.117  19.606  0.00  0.00    +0.001 A 
ATOM     26  C   UNL     1      16.085   6.487  19.256  0.00  0.00    +0.017 A 
ENDBRANCH  20  21
ENDBRANCH  16  17
ENDBRANCH  15  16
TORSDOF 5
ENDMDL
