MODEL 1
REMARK VINA RESULT:     -10.5      0.000      0.000
REMARK  Name = 
REMARK  9 active torsions:
REMARK  status: ('A' for Active; 'I' for Inactive)
REMARK    1  A    between atoms: C_2  and  C_4
REMARK    2  A    between atoms: C_6  and  C_7
REMARK    3  A    between atoms: C_7  and  C_8
REMARK    4  A    between atoms: N_10  and  C_11
REMARK    5  A    between atoms: C_11  and  C_12
REMARK    6  A    between atoms: C_15  and  C_18
REMARK    7  A    between atoms: C_23  and  C_24
REMARK    8  A    between atoms: C_24  and  N_25
REMARK    9  A    between atoms: N_25  and  S_26
REMARK                            x       y       z     vdW  Elec       q    Type
REMARK                         _______ _______ _______ _____ _____    ______ ____
ROOT
ATOM      4  C   UNL     1      -2.912   2.613  24.221  0.00  0.00    +0.006 C 
ATOM      5  C   UNL     1      -3.618   2.186  24.224  0.00  0.00    +0.005 C 
ATOM      6  C   UNL     1      -4.272   2.475  24.636  0.00  0.00    +0.027 C 
ATOM     20  C   UNL     1      -4.220   3.189  25.045  0.00  0.00    -0.048 C 
ATOM     21  C   UNL     1      -4.873   3.477  25.457  0.00  0.00    +0.026 C 
ATOM     22  C   UNL     1      -3.514   3.615  25.043  0.00  0.00    -0.033 C 
ATOM     23  C   UNL     1      -2.859   3.327  24.631  0.00  0.00    +0.041 C 
ENDROOT
BRANCH   4   2
ATOM      1  C   UNL     1      -2.193   2.454  22.996  0.00  0.00    +0.000 C 
ATOM      2  C   UNL     1      -2.258   2.325  23.809  0.00  0.00    +0.000 C 
ATOM      3  C   UNL     1      -1.670   1.907  24.207  0.00  0.00    +0.000 C 
ENDBRANCH   4   2
BRANCH   6   7
ATOM      7  C   UNL     1      -4.978   2.048  24.638  0.00  0.00    +0.091 C 
BRANCH   7   8
ATOM      8  C   UNL     1      -5.027   1.334  25.050  0.00  0.00    +0.242 C 
ATOM      9  O   UNL     1      -5.369   1.313  25.800  0.00  0.00    -0.273 OA
ATOM     10  N   UNL     1      -4.732   0.641  24.711  0.00  0.00    -0.201 NA
BRANCH  10  11
ATOM     11  C   UNL     1      -4.781  -0.072  25.122  0.00  0.00    +0.141 C 
BRANCH  11  12
ATOM     12  C   UNL     1      -4.254  -0.683  24.951  0.00  0.00    -0.001 A 
ATOM     13  C   UNL     1      -4.285  -1.062  24.221  0.00  0.00    -0.002 A 
ATOM     14  C   UNL     1      -3.757  -1.674  24.050  0.00  0.00    +0.010 A 
ATOM     15  C   UNL     1      -3.198  -1.904  24.611  0.00  0.00    +0.068 A 
ATOM     16  C   UNL     1      -3.167  -1.524  25.342  0.00  0.00    +0.010 A 
ATOM     17  C   UNL     1      -3.694  -0.913  25.513  0.00  0.00    -0.002 A 
BRANCH  15  18
ATOM     18  C   UNL     1      -2.670  -2.515  24.440  0.00  0.00    +0.100 C 
ATOM     19  N   UNL     1      -2.142  -3.125  24.269  0.00  0.00    -0.191 NA
ENDBRANCH  15  18
ENDBRANCH  11  12
ENDBRANCH  10  11
ENDBRANCH   7   8
ENDBRANCH   6   7
BRANCH  23  24
ATOM     24  C   UNL     1      -2.153   3.753  24.628  0.00  0.00    +0.119 C 
BRANCH  24  25
ATOM     25  N   UNL     1      -2.072   4.422  25.104  0.00  0.00    -0.082 NA
BRANCH  25  26
ATOM     26  S   UNL     1      -1.400   4.895  25.040  0.00  0.00    +0.059 S 
ATOM     27  C   UNL     1      -0.727   5.369  24.977  0.00  0.00    +0.197 C 
ATOM     28  O   UNL     1      -0.983   4.368  25.519  0.00  0.00    -0.156 OA
ATOM     29  O   UNL     1      -1.816   5.423  24.561  0.00  0.00    -0.156 OA
ENDBRANCH  25  26
ENDBRANCH  24  25
ENDBRANCH  23  24
TORSDOF 9
ENDMDL
MODEL 2
REMARK VINA RESULT:     -10.0      2.181      5.079
REMARK  Name = 
REMARK  9 active torsions:
REMARK  status: ('A' for Active; 'I' for Inactive)
REMARK    1  A    between atoms: C_2  and  C_4
REMARK    2  A    between atoms: C_6  and  C_7
REMARK    3  A    between atoms: C_7  and  C_8
REMARK    4  A    between atoms: N_10  and  C_11
REMARK    5  A    between atoms: C_11  and  C_12
REMARK    6  A    between atoms: C_15  and  C_18
REMARK    7  A    between atoms: C_23  and  C_24
REMARK    8  A    between atoms: C_24  and  N_25
REMARK    9  A    between atoms: N_25  and  S_26
REMARK                            x       y       z     vdW  Elec       q    Type
REMARK                         _______ _______ _______ _____ _____    ______ ____
ROOT
ATOM      4  C   UNL     1      -3.719   0.792  24.264  0.00  0.00    +0.006 C 
ATOM      5  C   UNL     1      -4.027   1.542  24.418  0.00  0.00    +0.005 C 
ATOM      6  C   UNL     1      -4.767   1.619  24.773  0.00  0.00    +0.027 C 
ATOM     20  C   UNL     1      -5.200   0.946  24.974  0.00  0.00    -0.048 C 
ATOM     21  C   UNL     1      -5.940   1.023  25.329  0.00  0.00    +0.026 C 
ATOM     22  C   UNL     1      -4.893   0.197  24.821  0.00  0.00    -0.033 C 
ATOM     23  C   UNL     1      -4.152   0.119  24.465  0.00  0.00    +0.041 C 
ENDROOT
BRANCH   4   2
ATOM      1  C   UNL     1      -2.907   0.769  23.088  0.00  0.00    +0.000 C 
ATOM      2  C   UNL     1      -2.978   0.715  23.909  0.00  0.00    +0.000 C 
ATOM      3  C   UNL     1      -2.310   0.586  24.373  0.00  0.00    +0.000 C 
ENDBRANCH   4   2
BRANCH   6   7
ATOM      7  C   UNL     1      -5.075   2.369  24.926  0.00  0.00    +0.091 C 
BRANCH   7   8
ATOM      8  C   UNL     1      -4.687   2.873  25.453  0.00  0.00    +0.242 C 
ATOM      9  O   UNL     1      -4.900   2.881  26.250  0.00  0.00    -0.273 OA
ATOM     10  N   UNL     1      -4.085   3.370  25.181  0.00  0.00    -0.201 NA
BRANCH  10  11
ATOM     11  C   UNL     1      -3.698   3.873  25.707  0.00  0.00    +0.141 C 
BRANCH  11  12
ATOM     12  C   UNL     1      -2.962   4.188  25.509  0.00  0.00    -0.001 A 
ATOM     13  C   UNL     1      -2.912   4.820  24.983  0.00  0.00    -0.002 A 
ATOM     14  C   UNL     1      -2.174   5.134  24.785  0.00  0.00    +0.010 A 
ATOM     15  C   UNL     1      -1.489   4.816  25.114  0.00  0.00    +0.068 A 
ATOM     16  C   UNL     1      -1.539   4.184  25.641  0.00  0.00    +0.010 A 
ATOM     17  C   UNL     1      -2.275   3.870  25.839  0.00  0.00    -0.002 A 
BRANCH  15  18
ATOM     18  C   UNL     1      -0.752   5.131  24.916  0.00  0.00    +0.100 C 
ATOM     19  N   UNL     1      -0.015   5.445  24.719  0.00  0.00    -0.191 NA
ENDBRANCH  15  18
ENDBRANCH  11  12
ENDBRANCH  10  11
ENDBRANCH   7   8
ENDBRANCH   6   7
BRANCH  23  24
ATOM     24  C   UNL     1      -3.844  -0.630  24.312  0.00  0.00    +0.119 C 
BRANCH  24  25
ATOM     25  N   UNL     1      -4.281  -1.304  24.504  0.00  0.00    -0.082 NA
BRANCH  25  26
ATOM     26  S   UNL     1      -3.966  -2.053  24.367  0.00  0.00    +0.059 S 
ATOM     27  C   UNL     1      -3.650  -2.803  24.229  0.00  0.00    +0.197 C 
ATOM     28  O   UNL     1      -3.626  -2.048  25.118  0.00  0.00    -0.156 OA
ATOM     29  O   UNL     1      -4.305  -2.059  23.615  0.00  0.00    -0.156 OA
ENDBRANCH  25  26
ENDBRANCH  24  25
ENDBRANCH  23  24
TORSDOF 9
ENDMDL
MODEL 3
REMARK VINA RESULT:      -9.8      2.735      4.553
REMARK  Name = 
REMARK  9 active torsions:
REMARK  status: ('A' for Active; 'I' for Inactive)
REMARK    1  A    between atoms: C_2  and  C_4
REMARK    2  A    between atoms: C_6  and  C_7
REMARK    3  A    between atoms: C_7  and  C_8
REMARK    4  A    between atoms: N_10  and  C_11
REMARK    5  A    between atoms: C_11  and  C_12
REMARK    6  A    between atoms: C_15  and  C_18
REMARK    7  A    between atoms: C_23  and  C_24
REMARK    8  A    between atoms: C_24  and  N_25
REMARK    9  A    between atoms: N_25  and  S_26
REMARK                            x       y       z     vdW  Elec       q    Type
REMARK                         _______ _______ _______ _____ _____    ______ ____
ROOT
ATOM      4  C   UNL     1      -0.959   0.644  24.169  0.00  0.00    +0.006 C 
ATOM      5  C   UNL     1      -1.667   0.449  24.547  0.00  0.00    +0.005 C 
ATOM      6  C   UNL     1      -1.842  -0.340  24.711  0.00  0.00    +0.027 C 
ATOM     20  C   UNL     1      -1.311  -0.934  24.497  0.00  0.00    -0.048 C 
ATOM     21  C   UNL     1      -1.487  -1.723  24.660  0.00  0.00    +0.026 C 
ATOM     22  C   UNL     1      -0.605  -0.739  24.119  0.00  0.00    -0.033 C 
ATOM     23  C   UNL     1      -0.428   0.050  23.955  0.00  0.00    +0.041 C 
ENDROOT
BRANCH   4   2
ATOM      1  C   UNL     1      -1.048   1.777  23.303  0.00  0.00    +0.000 C 
ATOM      2  C   UNL     1      -0.784   1.434  24.006  0.00  0.00    +0.000 C 
ATOM      3  C   UNL     1      -0.346   1.879  24.543  0.00  0.00    +0.000 C 
ENDBRANCH   4   2
BRANCH   6   7
ATOM      7  C   UNL     1      -2.549  -0.535  25.088  0.00  0.00    +0.091 C 
BRANCH   7   8
ATOM      8  C   UNL     1      -3.270  -0.302  24.759  0.00  0.00    +0.242 C 
ATOM      9  O   UNL     1      -3.572  -0.701  24.103  0.00  0.00    -0.273 OA
ATOM     10  N   UNL     1      -3.688   0.330  25.086  0.00  0.00    -0.201 NA
BRANCH  10  11
ATOM     11  C   UNL     1      -4.408   0.561  24.757  0.00  0.00    +0.141 C 
BRANCH  11  12
ATOM     12  C   UNL     1      -4.733   1.294  24.953  0.00  0.00    -0.001 A 
ATOM     13  C   UNL     1      -5.298   1.348  25.551  0.00  0.00    -0.002 A 
ATOM     14  C   UNL     1      -5.623   2.081  25.747  0.00  0.00    +0.010 A 
ATOM     15  C   UNL     1      -5.382   2.759  25.343  0.00  0.00    +0.068 A 
ATOM     16  C   UNL     1      -4.818   2.705  24.745  0.00  0.00    +0.010 A 
ATOM     17  C   UNL     1      -4.493   1.973  24.549  0.00  0.00    -0.002 A 
BRANCH  15  18
ATOM     18  C   UNL     1      -5.707   3.492  25.539  0.00  0.00    +0.100 C 
ATOM     19  N   UNL     1      -6.033   4.225  25.735  0.00  0.00    -0.191 NA
ENDBRANCH  15  18
ENDBRANCH  11  12
ENDBRANCH  10  11
ENDBRANCH   7   8
ENDBRANCH   6   7
BRANCH  23  24
ATOM     24  C   UNL     1       0.278   0.246  23.578  0.00  0.00    +0.119 C 
BRANCH  24  25
ATOM     25  N   UNL     1       0.741  -0.345  23.235  0.00  0.00    -0.082 NA
BRANCH  25  26
ATOM     26  S   UNL     1       1.430  -0.146  22.828  0.00  0.00    +0.059 S 
ATOM     27  C   UNL     1       2.120   0.053  22.421  0.00  0.00    +0.197 C 
ATOM     28  O   UNL     1       1.027  -0.216  22.111  0.00  0.00    -0.156 OA
ATOM     29  O   UNL     1       1.833  -0.077  23.545  0.00  0.00    -0.156 OA
ENDBRANCH  25  26
ENDBRANCH  24  25
ENDBRANCH  23  24
TORSDOF 9
ENDMDL
MODEL 4
REMARK VINA RESULT:      -9.7      2.691      5.925
REMARK  Name = 
REMARK  9 active torsions:
REMARK  status: ('A' for Active; 'I' for Inactive)
REMARK    1  A    between atoms: C_2  and  C_4
REMARK    2  A    between atoms: C_6  and  C_7
REMARK    3  A    between atoms: C_7  and  C_8
REMARK    4  A    between atoms: N_10  and  C_11
REMARK    5  A    between atoms: C_11  and  C_12
REMARK    6  A    between atoms: C_15  and  C_18
REMARK    7  A    between atoms: C_23  and  C_24
REMARK    8  A    between atoms: C_24  and  N_25
REMARK    9  A    between atoms: N_25  and  S_26
REMARK                            x       y       z     vdW  Elec       q    Type
REMARK                         _______ _______ _______ _____ _____    ______ ____
ROOT
ATOM      4  C   UNL     1      -2.680  -0.224  24.677  0.00  0.00    +0.006 C 
ATOM      5  C   UNL     1      -2.052   0.308  24.742  0.00  0.00    +0.005 C 
ATOM      6  C   UNL     1      -1.275   0.030  24.739  0.00  0.00    +0.027 C 
ATOM     20  C   UNL     1      -1.125  -0.778  24.670  0.00  0.00    -0.048 C 
ATOM     21  C   UNL     1      -0.349  -1.055  24.666  0.00  0.00    +0.026 C 
ATOM     22  C   UNL     1      -1.753  -1.309  24.605  0.00  0.00    -0.033 C 
ATOM     23  C   UNL     1      -2.530  -1.033  24.608  0.00  0.00    +0.041 C 
ENDROOT
BRANCH   4   2
ATOM      1  C   UNL     1      -3.803   0.317  23.980  0.00  0.00    +0.000 C 
ATOM      2  C   UNL     1      -3.456   0.053  24.681  0.00  0.00    +0.000 C 
ATOM      3  C   UNL     1      -3.886   0.068  25.384  0.00  0.00    +0.000 C 
ENDBRANCH   4   2
BRANCH   6   7
ATOM      7  C   UNL     1      -0.648   0.562  24.804  0.00  0.00    +0.091 C 
BRANCH   7   8
ATOM      8  C   UNL     1      -0.657   1.141  25.393  0.00  0.00    +0.242 C 
ATOM      9  O   UNL     1      -0.560   0.926  26.184  0.00  0.00    -0.273 OA
ATOM     10  N   UNL     1      -0.765   1.934  25.191  0.00  0.00    -0.201 NA
BRANCH  10  11
ATOM     11  C   UNL     1      -0.774   2.511  25.780  0.00  0.00    +0.141 C 
BRANCH  11  12
ATOM     12  C   UNL     1      -1.015   3.279  25.599  0.00  0.00    -0.001 A 
ATOM     13  C   UNL     1      -0.508   3.785  25.190  0.00  0.00    -0.002 A 
ATOM     14  C   UNL     1      -0.750   4.553  25.010  0.00  0.00    +0.010 A 
ATOM     15  C   UNL     1      -1.498   4.815  25.239  0.00  0.00    +0.068 A 
ATOM     16  C   UNL     1      -2.004   4.309  25.647  0.00  0.00    +0.010 A 
ATOM     17  C   UNL     1      -1.763   3.541  25.828  0.00  0.00    -0.002 A 
BRANCH  15  18
ATOM     18  C   UNL     1      -1.739   5.583  25.058  0.00  0.00    +0.100 C 
ATOM     19  N   UNL     1      -1.980   6.351  24.878  0.00  0.00    -0.191 NA
ENDBRANCH  15  18
ENDBRANCH  11  12
ENDBRANCH  10  11
ENDBRANCH   7   8
ENDBRANCH   6   7
BRANCH  23  24
ATOM     24  C   UNL     1      -3.157  -1.563  24.543  0.00  0.00    +0.119 C 
BRANCH  24  25
ATOM     25  N   UNL     1      -3.009  -2.366  24.423  0.00  0.00    -0.082 NA
BRANCH  25  26
ATOM     26  S   UNL     1      -3.636  -2.897  24.355  0.00  0.00    +0.059 S 
ATOM     27  C   UNL     1      -4.264  -3.428  24.287  0.00  0.00    +0.197 C 
ATOM     28  O   UNL     1      -3.618  -3.024  25.170  0.00  0.00    -0.156 OA
ATOM     29  O   UNL     1      -3.656  -2.770  23.540  0.00  0.00    -0.156 OA
ENDBRANCH  25  26
ENDBRANCH  24  25
ENDBRANCH  23  24
TORSDOF 9
ENDMDL
MODEL 5
REMARK VINA RESULT:      -9.4      1.564      2.557
REMARK  Name = 
REMARK  9 active torsions:
REMARK  status: ('A' for Active; 'I' for Inactive)
REMARK    1  A    between atoms: C_2  and  C_4
REMARK    2  A    between atoms: C_6  and  C_7
REMARK    3  A    between atoms: C_7  and  C_8
REMARK    4  A    between atoms: N_10  and  C_11
REMARK    5  A    between atoms: C_11  and  C_12
REMARK    6  A    between atoms: C_15  and  C_18
REMARK    7  A    between atoms: C_23  and  C_24
REMARK    8  A    between atoms: C_24  and  N_25
REMARK    9  A    between atoms: N_25  and  S_26
REMARK                            x       y       z     vdW  Elec       q    Type
REMARK                         _______ _______ _______ _____ _____    ______ ____
ROOT
ATOM      4  C   UNL     1      -1.935   2.362  24.746  0.00  0.00    +0.006 C 
ATOM      5  C   UNL     1      -1.668   1.583  24.794  0.00  0.00    +0.005 C 
ATOM      6  C   UNL     1      -0.916   1.422  25.093  0.00  0.00    +0.027 C 
ATOM     20  C   UNL     1      -0.431   2.041  25.343  0.00  0.00    -0.048 C 
ATOM     21  C   UNL     1       0.321   1.880  25.641  0.00  0.00    +0.026 C 
ATOM     22  C   UNL     1      -0.697   2.819  25.294  0.00  0.00    -0.033 C 
ATOM     23  C   UNL     1      -1.450   2.981  24.996  0.00  0.00    +0.041 C 
ENDROOT
BRANCH   4   2
ATOM      1  C   UNL     1      -3.327   2.601  24.963  0.00  0.00    +0.000 C 
ATOM      2  C   UNL     1      -2.687   2.523  24.447  0.00  0.00    +0.000 C 
ATOM      3  C   UNL     1      -2.800   2.604  23.635  0.00  0.00    +0.000 C 
ENDBRANCH   4   2
BRANCH   6   7
ATOM      7  C   UNL     1      -0.650   0.643  25.141  0.00  0.00    +0.091 C 
BRANCH   7   8
ATOM      8  C   UNL     1      -1.105   0.076  25.533  0.00  0.00    +0.242 C 
ATOM      9  O   UNL     1      -1.125   0.061  26.357  0.00  0.00    -0.273 OA
ATOM     10  N   UNL     1      -1.540  -0.476  25.099  0.00  0.00    -0.201 NA
BRANCH  10  11
ATOM     11  C   UNL     1      -1.994  -1.042  25.490  0.00  0.00    +0.141 C 
BRANCH  11  12
ATOM     12  C   UNL     1      -2.572  -1.463  25.079  0.00  0.00    -0.001 A 
ATOM     13  C   UNL     1      -2.373  -2.160  24.686  0.00  0.00    -0.002 A 
ATOM     14  C   UNL     1      -2.952  -2.580  24.274  0.00  0.00    +0.010 A 
ATOM     15  C   UNL     1      -3.729  -2.302  24.255  0.00  0.00    +0.068 A 
ATOM     16  C   UNL     1      -3.927  -1.606  24.648  0.00  0.00    +0.010 A 
ATOM     17  C   UNL     1      -3.349  -1.185  25.060  0.00  0.00    -0.002 A 
BRANCH  15  18
ATOM     18  C   UNL     1      -4.307  -2.723  23.843  0.00  0.00    +0.100 C 
ATOM     19  N   UNL     1      -4.886  -3.143  23.431  0.00  0.00    -0.191 NA
ENDBRANCH  15  18
ENDBRANCH  11  12
ENDBRANCH  10  11
ENDBRANCH   7   8
ENDBRANCH   6   7
BRANCH  23  24
ATOM     24  C   UNL     1      -1.716   3.759  24.947  0.00  0.00    +0.119 C 
BRANCH  24  25
ATOM     25  N   UNL     1      -1.272   4.370  25.281  0.00  0.00    -0.082 NA
BRANCH  25  26
ATOM     26  S   UNL     1      -1.466   5.155  25.122  0.00  0.00    +0.059 S 
ATOM     27  C   UNL     1      -1.659   5.942  24.963  0.00  0.00    +0.197 C 
ATOM     28  O   UNL     1      -0.865   5.190  24.558  0.00  0.00    -0.156 OA
ATOM     29  O   UNL     1      -2.067   5.122  25.686  0.00  0.00    -0.156 OA
ENDBRANCH  25  26
ENDBRANCH  24  25
ENDBRANCH  23  24
TORSDOF 9
ENDMDL
MODEL 6
REMARK VINA RESULT:      -9.2      1.839      3.057
REMARK  Name = 
REMARK  9 active torsions:
REMARK  status: ('A' for Active; 'I' for Inactive)
REMARK    1  A    between atoms: C_2  and  C_4
REMARK    2  A    between atoms: C_6  and  C_7
REMARK    3  A    between atoms: C_7  and  C_8
REMARK    4  A    between atoms: N_10  and  C_11
REMARK    5  A    between atoms: C_11  and  C_12
REMARK    6  A    between atoms: C_15  and  C_18
REMARK    7  A    between atoms: C_23  and  C_24
REMARK    8  A    between atoms: C_24  and  N_25
REMARK    9  A    between atoms: N_25  and  S_26
REMARK                            x       y       z     vdW  Elec       q    Type
REMARK                         _______ _______ _______ _____ _____    ______ ____
ROOT
ATOM      4  C   UNL     1      -2.514   2.230  24.119  0.00  0.00    +0.006 C 
ATOM      5  C   UNL     1      -1.751   1.913  24.127  0.00  0.00    +0.005 C 
ATOM      6  C   UNL     1      -1.245   2.074  24.758  0.00  0.00    +0.027 C 
ATOM     20  C   UNL     1      -1.500   2.552  25.381  0.00  0.00    -0.048 C 
ATOM     21  C   UNL     1      -0.994   2.712  26.011  0.00  0.00    +0.026 C 
ATOM     22  C   UNL     1      -2.261   2.868  25.372  0.00  0.00    -0.033 C 
ATOM     23  C   UNL     1      -2.769   2.708  24.741  0.00  0.00    +0.041 C 
ENDROOT
BRANCH   4   2
ATOM      1  C   UNL     1      -3.529   1.421  23.523  0.00  0.00    +0.000 C 
ATOM      2  C   UNL     1      -3.020   2.069  23.488  0.00  0.00    +0.000 C 
ATOM      3  C   UNL     1      -3.017   2.556  22.822  0.00  0.00    +0.000 C 
ENDBRANCH   4   2
BRANCH   6   7
ATOM      7  C   UNL     1      -0.484   1.757  24.766  0.00  0.00    +0.091 C 
BRANCH   7   8
ATOM      8  C   UNL     1      -0.355   0.989  24.493  0.00  0.00    +0.242 C 
ATOM      9  O   UNL     1       0.043   0.866  23.780  0.00  0.00    -0.273 OA
ATOM     10  N   UNL     1      -0.623   0.344  24.933  0.00  0.00    -0.201 NA
BRANCH  10  11
ATOM     11  C   UNL     1      -0.494  -0.424  24.659  0.00  0.00    +0.141 C 
BRANCH  11  12
ATOM     12  C   UNL     1      -1.088  -0.991  24.730  0.00  0.00    -0.001 A 
ATOM     13  C   UNL     1      -1.529  -1.043  25.424  0.00  0.00    -0.002 A 
ATOM     14  C   UNL     1      -2.124  -1.611  25.495  0.00  0.00    +0.010 A 
ATOM     15  C   UNL     1      -2.276  -2.127  24.869  0.00  0.00    +0.068 A 
ATOM     16  C   UNL     1      -1.835  -2.075  24.175  0.00  0.00    +0.010 A 
ATOM     17  C   UNL     1      -1.241  -1.508  24.104  0.00  0.00    -0.002 A 
BRANCH  15  18
ATOM     18  C   UNL     1      -2.871  -2.695  24.939  0.00  0.00    +0.100 C 
ATOM     19  N   UNL     1      -3.465  -3.263  25.009  0.00  0.00    -0.191 NA
ENDBRANCH  15  18
ENDBRANCH  11  12
ENDBRANCH  10  11
ENDBRANCH   7   8
ENDBRANCH   6   7
BRANCH  23  24
ATOM     24  C   UNL     1      -3.530   3.024  24.733  0.00  0.00    +0.119 C 
BRANCH  24  25
ATOM     25  N   UNL     1      -3.829   3.399  25.404  0.00  0.00    -0.082 NA
BRANCH  25  26
ATOM     26  S   UNL     1      -4.618   3.638  25.427  0.00  0.00    +0.059 S 
ATOM     27  C   UNL     1      -5.408   3.877  25.449  0.00  0.00    +0.197 C 
ATOM     28  O   UNL     1      -4.427   4.310  24.989  0.00  0.00    -0.156 OA
ATOM     29  O   UNL     1      -4.810   2.965  25.865  0.00  0.00    -0.156 OA
ENDBRANCH  25  26
ENDBRANCH  24  25
ENDBRANCH  23  24
TORSDOF 9
ENDMDL
