REMARK  Name = 
REMARK  6 active torsions:
REMARK  status: ('A' for Active; 'I' for Inactive)
REMARK    1  A    between atoms: C_6  and  C_7
REMARK    2  A    between atoms: C_7  and  N_8
REMARK    3  A    between atoms: N_8  and  C_9
REMARK    4  A    between atoms: C_12  and  C_13
REMARK    5  A    between atoms: C_13  and  N_14
REMARK    6  A    between atoms: C_15  and  C_17
REMARK                            x       y       z     vdW  Elec       q    Type
REMARK                         _______ _______ _______ _____ _____    ______ ____
ROOT
ATOM      9  C   UNL     1      -6.507  -3.343   0.000  0.00  0.00    +0.136 C 
ATOM     10  C   UNL     1      -7.175  -3.828   0.000  0.00  0.00    +0.162 C 
ATOM     11  O   UNL     1      -7.842  -3.343   0.000  0.00  0.00    -0.350 OA
ATOM     12  C   UNL     1      -7.587  -2.558   0.000  0.00  0.00    +0.169 C 
ATOM     24  C   UNL     1      -6.762  -2.558   0.000  0.00  0.00    +0.199 C 
ATOM     25  O   UNL     1      -6.277  -1.891   0.000  0.00  0.00    -0.219 OA
ENDROOT
BRANCH   9   8
ATOM      8  N   UNL     1      -5.723  -3.598   0.000  0.00  0.00    -0.206 NA
BRANCH   8   7
ATOM      7  C   UNL     1      -5.551  -4.405   0.000  0.00  0.00    +0.152 C 
BRANCH   7   6
ATOM      1  C   UNL     1      -4.099  -3.350   0.000  0.00  0.00    +0.132 C 
ATOM      2  N   UNL     1      -4.099  -4.175   0.000  0.00  0.00    -0.311 N 
ATOM      3  C   UNL     1      -3.432  -4.660   0.000  0.00  0.00    +0.098 A 
ATOM      4  C   UNL     1      -3.687  -5.444   0.000  0.00  0.00    +0.119 A 
ATOM      5  N   UNL     1      -4.512  -5.444   0.000  0.00  0.00    -0.228 NA
ATOM      6  C   UNL     1      -4.767  -4.660   0.000  0.00  0.00    +0.138 A 
ENDBRANCH   7   6
ENDBRANCH   8   7
ENDBRANCH   9   8
BRANCH  12  13
ATOM     13  C   UNL     1      -8.072  -1.891   0.000  0.00  0.00    +0.148 C 
BRANCH  13  14
ATOM     14  N   UNL     1      -7.737  -1.137   0.000  0.00  0.00    -0.199 NA
ATOM     15  C   UNL     1      -8.222  -0.470   0.000  0.00  0.00    +0.265 C 
ATOM     16  O   UNL     1      -7.886   0.284   0.000  0.00  0.00    -0.268 OA
BRANCH  15  17
ATOM     17  C   UNL     1      -9.042  -0.556   0.000  0.00  0.00    +0.055 A 
ATOM     18  C   UNL     1      -9.378  -1.310   0.000  0.00  0.00    +0.007 A 
ATOM     19  C   UNL     1     -10.198  -1.396   0.000  0.00  0.00    +0.030 A 
ATOM     20  C   UNL     1     -10.683  -0.729   0.000  0.00  0.00    +0.140 A 
ATOM     21  F   UNL     1     -11.504  -0.815   0.000  0.00  0.00    -0.204 F 
ATOM     22  C   UNL     1     -10.348   0.025   0.000  0.00  0.00    +0.030 A 
ATOM     23  C   UNL     1      -9.527   0.111   0.000  0.00  0.00    +0.007 A 
ENDBRANCH  15  17
ENDBRANCH  13  14
ENDBRANCH  12  13
TORSDOF 6
