MODEL 1
REMARK VINA RESULT:      -9.5      0.000      0.000
REMARK  Name = 
REMARK  5 active torsions:
REMARK  status: ('A' for Active; 'I' for Inactive)
REMARK    1  A    between atoms: O_2  and  C_3
REMARK    2  A    between atoms: C_6  and  C_11
REMARK    3  A    between atoms: C_7  and  O_8
REMARK    4  A    between atoms: C_19  and  N_27
REMARK    5  A    between atoms: C_28  and  C_30
REMARK                            x       y       z     vdW  Elec       q    Type
REMARK                         _______ _______ _______ _____ _____    ______ ____
ROOT
ATOM     11  C   UNL     1      -0.411   1.482  24.342  0.00  0.00    +0.003 A 
ATOM     12  C   UNL     1      -0.190   1.882  25.028  0.00  0.00    +0.001 A 
ATOM     13  C   UNL     1      -0.731   2.373  25.412  0.00  0.00    +0.017 A 
ATOM     14  C   UNL     1      -1.492   2.464  25.109  0.00  0.00    +0.078 A 
ATOM     15  N   UNL     1      -1.942   2.976  25.573  0.00  0.00    -0.178 NA
ATOM     16  C   UNL     1      -2.724   3.216  25.466  0.00  0.00    +0.265 C 
ATOM     17  O   UNL     1      -3.020   3.738  26.032  0.00  0.00    -0.271 OA
ATOM     18  C   UNL     1      -3.250   3.002  24.867  0.00  0.00    +0.174 C 
ATOM     19  C   UNL     1      -4.024   3.282  24.821  0.00  0.00    +0.124 C 
ATOM     20  C   UNL     1      -4.376   2.949  24.153  0.00  0.00    +0.045 C 
ATOM     21  C   UNL     1      -3.819   2.463  23.787  0.00  0.00    +0.096 C 
ATOM     22  N   UNL     1      -3.122   2.496  24.228  0.00  0.00    -0.268 N 
ATOM     23  C   UNL     1      -2.439   2.079  24.030  0.00  0.00    +0.251 C 
ATOM     24  O   UNL     1      -2.488   1.615  23.350  0.00  0.00    -0.270 OA
ATOM     25  C   UNL     1      -1.713   2.065  24.422  0.00  0.00    +0.069 A 
ATOM     26  C   UNL     1      -1.173   1.574  24.038  0.00  0.00    +0.006 A 
ENDROOT
BRANCH  11   6
ATOM      3  C   UNL     1       1.210   0.008  23.189  0.00  0.00    +0.142 A 
ATOM      4  C   UNL     1       1.233   0.823  23.066  0.00  0.00    +0.037 A 
ATOM      5  C   UNL     1       0.693   1.315  23.449  0.00  0.00    +0.006 A 
ATOM      6  C   UNL     1       0.129   0.991  23.957  0.00  0.00    +0.034 A 
ATOM      7  C   UNL     1       0.106   0.176  24.081  0.00  0.00    +0.142 A 
ATOM     10  C   UNL     1       0.645  -0.315  23.697  0.00  0.00    +0.074 A 
BRANCH   3   2
ATOM      1  C   UNL     1       2.375  -0.156  22.380  0.00  0.00    +0.252 C 
ATOM      2  O   UNL     1       1.749  -0.484  22.805  0.00  0.00    -0.471 OA
ENDBRANCH   3   2
BRANCH   7   8
ATOM      8  O   UNL     1      -0.458  -0.148  24.589  0.00  0.00    -0.471 OA
ATOM      9  C   UNL     1      -0.464  -0.960  24.735  0.00  0.00    +0.252 C 
ENDBRANCH   7   8
ENDBRANCH  11   6
BRANCH  19  27
ATOM     27  N   UNL     1      -4.383   3.803  25.350  0.00  0.00    -0.200 NA
ATOM     28  C   UNL     1      -5.114   3.613  25.685  0.00  0.00    +0.284 C 
ATOM     29  O   UNL     1      -5.473   4.134  26.214  0.00  0.00    -0.267 OA
BRANCH  28  30
ATOM     30  C   UNL     1      -5.484   2.902  25.490  0.00  0.00    +0.155 A 
ATOM     31  C   UNL     1      -5.972   2.859  24.827  0.00  0.00    +0.123 A 
ATOM     32  N   UNL     1      -6.342   2.148  24.632  0.00  0.00    -0.239 NA
ATOM     33  C   UNL     1      -6.225   1.480  25.102  0.00  0.00    +0.120 A 
ATOM     34  C   UNL     1      -5.737   1.523  25.766  0.00  0.00    +0.120 A 
ATOM     35  N   UNL     1      -5.367   2.234  25.960  0.00  0.00    -0.236 NA
ENDBRANCH  28  30
ENDBRANCH  19  27
TORSDOF 5
ENDMDL
MODEL 2
REMARK VINA RESULT:      -9.2      2.450      4.130
REMARK  Name = 
REMARK  5 active torsions:
REMARK  status: ('A' for Active; 'I' for Inactive)
REMARK    1  A    between atoms: O_2  and  C_3
REMARK    2  A    between atoms: C_6  and  C_11
REMARK    3  A    between atoms: C_7  and  O_8
REMARK    4  A    between atoms: C_19  and  N_27
REMARK    5  A    between atoms: C_28  and  C_30
REMARK                            x       y       z     vdW  Elec       q    Type
REMARK                         _______ _______ _______ _____ _____    ______ ____
ROOT
ATOM     11  C   UNL     1      -4.019  -0.398  24.665  0.00  0.00    +0.003 A 
ATOM     12  C   UNL     1      -4.645  -0.081  25.098  0.00  0.00    +0.001 A 
ATOM     13  C   UNL     1      -4.675   0.730  25.247  0.00  0.00    +0.017 A 
ATOM     14  C   UNL     1      -4.079   1.223  24.963  0.00  0.00    +0.078 A 
ATOM     15  N   UNL     1      -4.214   2.010  25.171  0.00  0.00    -0.178 NA
ATOM     16  C   UNL     1      -3.755   2.674  24.999  0.00  0.00    +0.265 C 
ATOM     17  O   UNL     1      -4.041   3.391  25.289  0.00  0.00    -0.271 OA
ATOM     18  C   UNL     1      -3.049   2.715  24.575  0.00  0.00    +0.174 C 
ATOM     19  C   UNL     1      -2.641   3.419  24.440  0.00  0.00    +0.124 C 
ATOM     20  C   UNL     1      -1.966   3.242  24.000  0.00  0.00    +0.045 C 
ATOM     21  C   UNL     1      -1.957   2.428  23.863  0.00  0.00    +0.096 C 
ATOM     22  N   UNL     1      -2.626   2.103  24.219  0.00  0.00    -0.268 N 
ATOM     23  C   UNL     1      -2.806   1.298  24.199  0.00  0.00    +0.251 C 
ATOM     24  O   UNL     1      -2.268   0.822  23.794  0.00  0.00    -0.270 OA
ATOM     25  C   UNL     1      -3.452   0.907  24.530  0.00  0.00    +0.069 A 
ATOM     26  C   UNL     1      -3.422   0.096  24.381  0.00  0.00    +0.006 A 
ENDROOT
BRANCH  11   6
ATOM      3  C   UNL     1      -3.927  -2.831  24.218  0.00  0.00    +0.142 A 
ATOM      4  C   UNL     1      -4.261  -2.321  23.662  0.00  0.00    +0.037 A 
ATOM      5  C   UNL     1      -4.291  -1.511  23.810  0.00  0.00    +0.006 A 
ATOM      6  C   UNL     1      -3.989  -1.210  24.516  0.00  0.00    +0.034 A 
ATOM      7  C   UNL     1      -3.655  -1.718  25.073  0.00  0.00    +0.142 A 
ATOM     10  C   UNL     1      -3.625  -2.529  24.924  0.00  0.00    +0.074 A 
BRANCH   3   2
ATOM      1  C   UNL     1      -3.381  -3.937  23.498  0.00  0.00    +0.252 C 
ATOM      2  O   UNL     1      -3.897  -3.642  24.070  0.00  0.00    -0.471 OA
ENDBRANCH   3   2
BRANCH   7   8
ATOM      8  O   UNL     1      -3.353  -1.417  25.778  0.00  0.00    -0.471 OA
ATOM      9  C   UNL     1      -2.993  -1.923  26.322  0.00  0.00    +0.252 C 
ENDBRANCH   7   8
ENDBRANCH  11   6
BRANCH  19  27
ATOM     27  N   UNL     1      -2.868   4.169  24.699  0.00  0.00    -0.200 NA
ATOM     28  C   UNL     1      -2.318   4.662  25.067  0.00  0.00    +0.284 C 
ATOM     29  O   UNL     1      -2.545   5.412  25.326  0.00  0.00    -0.267 OA
BRANCH  28  30
ATOM     30  C   UNL     1      -1.541   4.406  25.175  0.00  0.00    +0.155 A 
ATOM     31  C   UNL     1      -0.959   4.611  24.629  0.00  0.00    +0.123 A 
ATOM     32  N   UNL     1      -0.183   4.355  24.737  0.00  0.00    -0.239 NA
ATOM     33  C   UNL     1       0.012   3.893  25.393  0.00  0.00    +0.120 A 
ATOM     34  C   UNL     1      -0.571   3.688  25.940  0.00  0.00    +0.120 A 
ATOM     35  N   UNL     1      -1.348   3.944  25.831  0.00  0.00    -0.236 NA
ENDBRANCH  28  30
ENDBRANCH  19  27
TORSDOF 5
ENDMDL
MODEL 3
REMARK VINA RESULT:      -8.9      2.651      4.692
REMARK  Name = 
REMARK  5 active torsions:
REMARK  status: ('A' for Active; 'I' for Inactive)
REMARK    1  A    between atoms: O_2  and  C_3
REMARK    2  A    between atoms: C_6  and  C_11
REMARK    3  A    between atoms: C_7  and  O_8
REMARK    4  A    between atoms: C_19  and  N_27
REMARK    5  A    between atoms: C_28  and  C_30
REMARK                            x       y       z     vdW  Elec       q    Type
REMARK                         _______ _______ _______ _____ _____    ______ ____
ROOT
ATOM     11  C   UNL     1      -1.103   2.862  25.396  0.00  0.00    +0.003 A 
ATOM     12  C   UNL     1      -0.585   2.580  25.972  0.00  0.00    +0.001 A 
ATOM     13  C   UNL     1      -0.469   1.768  26.061  0.00  0.00    +0.017 A 
ATOM     14  C   UNL     1      -0.872   1.239  25.574  0.00  0.00    +0.078 A 
ATOM     15  N   UNL     1      -0.678   0.457  25.753  0.00  0.00    -0.178 NA
ATOM     16  C   UNL     1      -0.955  -0.236  25.400  0.00  0.00    +0.265 C 
ATOM     17  O   UNL     1      -0.653  -0.939  25.708  0.00  0.00    -0.271 OA
ATOM     18  C   UNL     1      -1.494  -0.318  24.781  0.00  0.00    +0.174 C 
ATOM     19  C   UNL     1      -1.728  -1.047  24.476  0.00  0.00    +0.124 C 
ATOM     20  C   UNL     1      -2.268  -0.909  23.868  0.00  0.00    +0.045 C 
ATOM     21  C   UNL     1      -2.368  -0.093  23.797  0.00  0.00    +0.096 C 
ATOM     22  N   UNL     1      -1.889   0.273  24.362  0.00  0.00    -0.268 N 
ATOM     23  C   UNL     1      -1.843   1.090  24.458  0.00  0.00    +0.251 C 
ATOM     24  O   UNL     1      -2.312   1.537  23.948  0.00  0.00    -0.270 OA
ATOM     25  C   UNL     1      -1.390   1.520  24.997  0.00  0.00    +0.069 A 
ATOM     26  C   UNL     1      -1.506   2.332  24.909  0.00  0.00    +0.006 A 
ENDROOT
BRANCH  11   6
ATOM      3  C   UNL     1      -1.452   5.298  25.128  0.00  0.00    +0.142 A 
ATOM      4  C   UNL     1      -0.808   4.931  24.765  0.00  0.00    +0.037 A 
ATOM      5  C   UNL     1      -0.692   4.119  24.854  0.00  0.00    +0.006 A 
ATOM      6  C   UNL     1      -1.219   3.674  25.307  0.00  0.00    +0.034 A 
ATOM      7  C   UNL     1      -1.862   4.041  25.670  0.00  0.00    +0.142 A 
ATOM     10  C   UNL     1      -1.979   4.852  25.581  0.00  0.00    +0.074 A 
BRANCH   3   2
ATOM      1  C   UNL     1      -1.901   6.405  24.345  0.00  0.00    +0.252 C 
ATOM      2  O   UNL     1      -1.568   6.110  25.040  0.00  0.00    -0.471 OA
ENDBRANCH   3   2
BRANCH   7   8
ATOM      8  O   UNL     1      -2.389   3.596  26.123  0.00  0.00    -0.471 OA
ATOM      9  C   UNL     1      -3.058   3.954  26.448  0.00  0.00    +0.252 C 
ENDBRANCH   7   8
ENDBRANCH  11   6
BRANCH  19  27
ATOM     27  N   UNL     1      -1.467  -1.787  24.734  0.00  0.00    -0.200 NA
ATOM     28  C   UNL     1      -2.005  -2.408  24.816  0.00  0.00    +0.284 C 
ATOM     29  O   UNL     1      -1.744  -3.147  25.074  0.00  0.00    -0.267 OA
BRANCH  28  30
ATOM     30  C   UNL     1      -2.802  -2.290  24.640  0.00  0.00    +0.155 A 
ATOM     31  C   UNL     1      -3.316  -2.012  25.222  0.00  0.00    +0.123 A 
ATOM     32  N   UNL     1      -4.113  -1.894  25.046  0.00  0.00    -0.239 NA
ATOM     33  C   UNL     1      -4.397  -2.054  24.287  0.00  0.00    +0.120 A 
ATOM     34  C   UNL     1      -3.882  -2.332  23.705  0.00  0.00    +0.120 A 
ATOM     35  N   UNL     1      -3.085  -2.449  23.882  0.00  0.00    -0.236 NA
ENDBRANCH  28  30
ENDBRANCH  19  27
TORSDOF 5
ENDMDL
MODEL 4
REMARK VINA RESULT:      -8.7      2.659      4.945
REMARK  Name = 
REMARK  5 active torsions:
REMARK  status: ('A' for Active; 'I' for Inactive)
REMARK    1  A    between atoms: O_2  and  C_3
REMARK    2  A    between atoms: C_6  and  C_11
REMARK    3  A    between atoms: C_7  and  O_8
REMARK    4  A    between atoms: C_19  and  N_27
REMARK    5  A    between atoms: C_28  and  C_30
REMARK                            x       y       z     vdW  Elec       q    Type
REMARK                         _______ _______ _______ _____ _____    ______ ____
ROOT
ATOM     11  C   UNL     1      -2.680   2.814  24.583  0.00  0.00    +0.003 A 
ATOM     12  C   UNL     1      -3.291   2.823  24.028  0.00  0.00    +0.001 A 
ATOM     13  C   UNL     1      -3.703   2.130  23.857  0.00  0.00    +0.017 A 
ATOM     14  C   UNL     1      -3.506   1.427  24.240  0.00  0.00    +0.078 A 
ATOM     15  N   UNL     1      -3.983   0.802  23.990  0.00  0.00    -0.178 NA
ATOM     16  C   UNL     1      -3.968   0.014  24.233  0.00  0.00    +0.265 C 
ATOM     17  O   UNL     1      -4.523  -0.481  23.876  0.00  0.00    -0.271 OA
ATOM     18  C   UNL     1      -3.472  -0.345  24.786  0.00  0.00    +0.174 C 
ATOM     19  C   UNL     1      -3.513  -1.145  24.981  0.00  0.00    +0.124 C 
ATOM     20  C   UNL     1      -2.935  -1.299  25.549  0.00  0.00    +0.045 C 
ATOM     21  C   UNL     1      -2.536  -0.594  25.704  0.00  0.00    +0.096 C 
ATOM     22  N   UNL     1      -2.868  -0.003  25.232  0.00  0.00    -0.268 N 
ATOM     23  C   UNL     1      -2.612   0.780  25.236  0.00  0.00    +0.251 C 
ATOM     24  O   UNL     1      -1.989   0.950  25.750  0.00  0.00    -0.270 OA
ATOM     25  C   UNL     1      -2.895   1.417  24.795  0.00  0.00    +0.069 A 
ATOM     26  C   UNL     1      -2.483   2.110  24.966  0.00  0.00    +0.006 A 
ENDROOT
BRANCH  11   6
ATOM      3  C   UNL     1      -1.441   4.894  25.098  0.00  0.00    +0.142 A 
ATOM      4  C   UNL     1      -1.139   4.358  24.549  0.00  0.00    +0.037 A 
ATOM      5  C   UNL     1      -1.551   3.665  24.376  0.00  0.00    +0.006 A 
ATOM      6  C   UNL     1      -2.267   3.507  24.755  0.00  0.00    +0.034 A 
ATOM      7  C   UNL     1      -2.570   4.042  25.304  0.00  0.00    +0.142 A 
ATOM     10  C   UNL     1      -2.158   4.735  25.476  0.00  0.00    +0.074 A 
BRANCH   3   2
ATOM      1  C   UNL     1      -0.614   5.979  24.675  0.00  0.00    +0.252 C 
ATOM      2  O   UNL     1      -1.029   5.587  25.271  0.00  0.00    -0.471 OA
ENDBRANCH   3   2
BRANCH   7   8
ATOM      8  O   UNL     1      -3.286   3.884  25.682  0.00  0.00    -0.471 OA
ATOM      9  C   UNL     1      -3.522   4.341  26.327  0.00  0.00    +0.252 C 
ENDBRANCH   7   8
ENDBRANCH  11   6
BRANCH  19  27
ATOM     27  N   UNL     1      -4.041  -1.695  24.665  0.00  0.00    -0.200 NA
ATOM     28  C   UNL     1      -3.763  -2.424  24.394  0.00  0.00    +0.284 C 
ATOM     29  O   UNL     1      -4.291  -2.974  24.077  0.00  0.00    -0.267 OA
BRANCH  28  30
ATOM     30  C   UNL     1      -2.959  -2.602  24.439  0.00  0.00    +0.155 A 
ATOM     31  C   UNL     1      -2.652  -2.952  25.120  0.00  0.00    +0.123 A 
ATOM     32  N   UNL     1      -1.848  -3.131  25.165  0.00  0.00    -0.239 NA
ATOM     33  C   UNL     1      -1.350  -2.958  24.530  0.00  0.00    +0.120 A 
ATOM     34  C   UNL     1      -1.658  -2.608  23.849  0.00  0.00    +0.120 A 
ATOM     35  N   UNL     1      -2.462  -2.430  23.804  0.00  0.00    -0.236 NA
ENDBRANCH  28  30
ENDBRANCH  19  27
TORSDOF 5
ENDMDL
MODEL 5
REMARK VINA RESULT:      -8.7      1.315      1.931
REMARK  Name = 
REMARK  5 active torsions:
REMARK  status: ('A' for Active; 'I' for Inactive)
REMARK    1  A    between atoms: O_2  and  C_3
REMARK    2  A    between atoms: C_6  and  C_11
REMARK    3  A    between atoms: C_7  and  O_8
REMARK    4  A    between atoms: C_19  and  N_27
REMARK    5  A    between atoms: C_28  and  C_30
REMARK                            x       y       z     vdW  Elec       q    Type
REMARK                         _______ _______ _______ _____ _____    ______ ____
ROOT
ATOM     11  C   UNL     1      -0.804   0.255  24.080  0.00  0.00    +0.003 A 
ATOM     12  C   UNL     1      -0.970  -0.354  24.609  0.00  0.00    +0.001 A 
ATOM     13  C   UNL     1      -1.720  -0.414  24.948  0.00  0.00    +0.017 A 
ATOM     14  C   UNL     1      -2.304   0.137  24.757  0.00  0.00    +0.078 A 
ATOM     15  N   UNL     1      -3.009  -0.022  25.154  0.00  0.00    -0.178 NA
ATOM     16  C   UNL     1      -3.723   0.390  25.120  0.00  0.00    +0.265 C 
ATOM     17  O   UNL     1      -4.333   0.090  25.587  0.00  0.00    -0.271 OA
ATOM     18  C   UNL     1      -3.908   1.063  24.679  0.00  0.00    +0.174 C 
ATOM     19  C   UNL     1      -4.648   1.426  24.693  0.00  0.00    +0.124 C 
ATOM     20  C   UNL     1      -4.623   2.076  24.186  0.00  0.00    +0.045 C 
ATOM     21  C   UNL     1      -3.866   2.116  23.860  0.00  0.00    +0.096 C 
ATOM     22  N   UNL     1      -3.424   1.489  24.164  0.00  0.00    -0.268 N 
ATOM     23  C   UNL     1      -2.637   1.348  23.964  0.00  0.00    +0.251 C 
ATOM     24  O   UNL     1      -2.304   1.880  23.428  0.00  0.00    -0.270 OA
ATOM     25  C   UNL     1      -2.138   0.747  24.227  0.00  0.00    +0.069 A 
ATOM     26  C   UNL     1      -1.389   0.806  23.888  0.00  0.00    +0.006 A 
ENDROOT
BRANCH  11   6
ATOM      3  C   UNL     1       1.445   0.435  23.062  0.00  0.00    +0.142 A 
ATOM      4  C   UNL     1       0.917  -0.141  22.798  0.00  0.00    +0.037 A 
ATOM      5  C   UNL     1       0.168  -0.201  23.137  0.00  0.00    +0.006 A 
ATOM      6  C   UNL     1      -0.054   0.315  23.740  0.00  0.00    +0.034 A 
ATOM      7  C   UNL     1       0.473   0.891  24.005  0.00  0.00    +0.142 A 
ATOM     10  C   UNL     1       1.222   0.952  23.666  0.00  0.00    +0.074 A 
BRANCH   3   2
ATOM      1  C   UNL     1       2.534  -0.158  22.352  0.00  0.00    +0.252 C 
ATOM      2  O   UNL     1       2.195   0.496  22.723  0.00  0.00    -0.471 OA
ENDBRANCH   3   2
BRANCH   7   8
ATOM      8  O   UNL     1       0.251   1.408  24.609  0.00  0.00    -0.471 OA
ATOM      9  C   UNL     1       0.745   2.034  24.819  0.00  0.00    +0.252 C 
ENDBRANCH   7   8
ENDBRANCH  11   6
BRANCH  19  27
ATOM     27  N   UNL     1      -5.300   1.180  25.135  0.00  0.00    -0.200 NA
ATOM     28  C   UNL     1      -5.718   1.727  25.591  0.00  0.00    +0.284 C 
ATOM     29  O   UNL     1      -6.371   1.481  26.033  0.00  0.00    -0.267 OA
BRANCH  28  30
ATOM     30  C   UNL     1      -5.485   2.518  25.604  0.00  0.00    +0.155 A 
ATOM     31  C   UNL     1      -5.806   3.052  25.065  0.00  0.00    +0.123 A 
ATOM     32  N   UNL     1      -5.573   3.843  25.078  0.00  0.00    -0.239 NA
ATOM     33  C   UNL     1      -5.017   4.100  25.632  0.00  0.00    +0.120 A 
ATOM     34  C   UNL     1      -4.696   3.565  26.171  0.00  0.00    +0.120 A 
ATOM     35  N   UNL     1      -4.930   2.774  26.157  0.00  0.00    -0.236 NA
ENDBRANCH  28  30
ENDBRANCH  19  27
TORSDOF 5
ENDMDL
MODEL 6
REMARK VINA RESULT:      -8.0      1.738      5.725
REMARK  Name = 
REMARK  5 active torsions:
REMARK  status: ('A' for Active; 'I' for Inactive)
REMARK    1  A    between atoms: O_2  and  C_3
REMARK    2  A    between atoms: C_6  and  C_11
REMARK    3  A    between atoms: C_7  and  O_8
REMARK    4  A    between atoms: C_19  and  N_27
REMARK    5  A    between atoms: C_28  and  C_30
REMARK                            x       y       z     vdW  Elec       q    Type
REMARK                         _______ _______ _______ _____ _____    ______ ____
ROOT
ATOM     11  C   UNL     1      -3.796   2.881  24.418  0.00  0.00    +0.003 A 
ATOM     12  C   UNL     1      -3.704   2.938  23.600  0.00  0.00    +0.001 A 
ATOM     13  C   UNL     1      -3.085   2.540  23.226  0.00  0.00    +0.017 A 
ATOM     14  C   UNL     1      -2.558   2.087  23.670  0.00  0.00    +0.078 A 
ATOM     15  N   UNL     1      -1.984   1.738  23.191  0.00  0.00    -0.178 NA
ATOM     16  C   UNL     1      -1.359   1.247  23.412  0.00  0.00    +0.265 C 
ATOM     17  O   UNL     1      -0.875   0.985  22.798  0.00  0.00    -0.271 OA
ATOM     18  C   UNL     1      -1.154   0.983  24.167  0.00  0.00    +0.174 C 
ATOM     19  C   UNL     1      -0.511   0.489  24.316  0.00  0.00    +0.124 C 
ATOM     20  C   UNL     1      -0.482   0.346  25.128  0.00  0.00    +0.045 C 
ATOM     21  C   UNL     1      -1.108   0.752  25.481  0.00  0.00    +0.096 C 
ATOM     22  N   UNL     1      -1.524   1.146  24.886  0.00  0.00    -0.268 N 
ATOM     23  C   UNL     1      -2.189   1.612  25.029  0.00  0.00    +0.251 C 
ATOM     24  O   UNL     1      -2.425   1.666  25.817  0.00  0.00    -0.270 OA
ATOM     25  C   UNL     1      -2.649   2.031  24.488  0.00  0.00    +0.069 A 
ATOM     26  C   UNL     1      -3.268   2.428  24.862  0.00  0.00    +0.006 A 
ENDROOT
BRANCH  11   6
ATOM      3  C   UNL     1      -5.652   4.072  25.542  0.00  0.00    +0.142 A 
ATOM      4  C   UNL     1      -4.935   4.457  25.409  0.00  0.00    +0.037 A 
ATOM      5  C   UNL     1      -4.316   4.061  25.034  0.00  0.00    +0.006 A 
ATOM      6  C   UNL     1      -4.414   3.279  24.793  0.00  0.00    +0.034 A 
ATOM      7  C   UNL     1      -5.131   2.892  24.926  0.00  0.00    +0.142 A 
ATOM     10  C   UNL     1      -5.749   3.289  25.300  0.00  0.00    +0.074 A 
BRANCH   3   2
ATOM      1  C   UNL     1      -6.448   5.246  25.710  0.00  0.00    +0.252 C 
ATOM      2  O   UNL     1      -6.271   4.468  25.917  0.00  0.00    -0.471 OA
ENDBRANCH   3   2
BRANCH   7   8
ATOM      8  O   UNL     1      -5.229   2.110  24.685  0.00  0.00    -0.471 OA
ATOM      9  C   UNL     1      -5.925   1.706  24.867  0.00  0.00    +0.252 C 
ENDBRANCH   7   8
ENDBRANCH  11   6
BRANCH  19  27
ATOM     27  N   UNL     1       0.013   0.191  23.752  0.00  0.00    -0.200 NA
ATOM     28  C   UNL     1       0.141  -0.623  23.699  0.00  0.00    +0.284 C 
ATOM     29  O   UNL     1       0.665  -0.921  23.135  0.00  0.00    -0.267 OA
BRANCH  28  30
ATOM     30  C   UNL     1      -0.253  -1.137  24.210  0.00  0.00    +0.155 A 
ATOM     31  C   UNL     1       0.070  -1.314  24.947  0.00  0.00    +0.123 A 
ATOM     32  N   UNL     1      -0.324  -1.828  25.458  0.00  0.00    -0.239 NA
ATOM     33  C   UNL     1      -1.042  -2.167  25.230  0.00  0.00    +0.120 A 
ATOM     34  C   UNL     1      -1.364  -1.990  24.491  0.00  0.00    +0.120 A 
ATOM     35  N   UNL     1      -0.970  -1.475  23.981  0.00  0.00    -0.236 NA
ENDBRANCH  28  30
ENDBRANCH  19  27
TORSDOF 5
ENDMDL
MODEL 7
REMARK VINA RESULT:      -7.8      2.525      3.853
REMARK  Name = 
REMARK  5 active torsions:
REMARK  status: ('A' for Active; 'I' for Inactive)
REMARK    1  A    between atoms: O_2  and  C_3
REMARK    2  A    between atoms: C_6  and  C_11
REMARK    3  A    between atoms: C_7  and  O_8
REMARK    4  A    between atoms: C_19  and  N_27
REMARK    5  A    between atoms: C_28  and  C_30
REMARK                            x       y       z     vdW  Elec       q    Type
REMARK                         _______ _______ _______ _____ _____    ______ ____
ROOT
ATOM     11  C   UNL     1      -1.910  -0.920  24.864  0.00  0.00    +0.003 A 
ATOM     12  C   UNL     1      -1.197  -0.946  25.277  0.00  0.00    +0.001 A 
ATOM     13  C   UNL     1      -0.752  -0.259  25.376  0.00  0.00    +0.017 A 
ATOM     14  C   UNL     1      -1.020   0.455  25.061  0.00  0.00    +0.078 A 
ATOM     15  N   UNL     1      -0.495   1.071  25.222  0.00  0.00    -0.178 NA
ATOM     16  C   UNL     1      -0.553   1.866  25.008  0.00  0.00    +0.265 C 
ATOM     17  O   UNL     1       0.068   2.349  25.254  0.00  0.00    -0.271 OA
ATOM     18  C   UNL     1      -1.152   2.241  24.581  0.00  0.00    +0.174 C 
ATOM     19  C   UNL     1      -1.145   3.046  24.403  0.00  0.00    +0.124 C 
ATOM     20  C   UNL     1      -1.829   3.217  23.973  0.00  0.00    +0.045 C 
ATOM     21  C   UNL     1      -2.257   2.517  23.887  0.00  0.00    +0.096 C 
ATOM     22  N   UNL     1      -1.839   1.914  24.263  0.00  0.00    -0.268 N 
ATOM     23  C   UNL     1      -2.097   1.131  24.292  0.00  0.00    +0.251 C 
ATOM     24  O   UNL     1      -2.815   0.978  23.917  0.00  0.00    -0.270 OA
ATOM     25  C   UNL     1      -1.733   0.482  24.648  0.00  0.00    +0.069 A 
ATOM     26  C   UNL     1      -2.178  -0.205  24.549  0.00  0.00    +0.006 A 
ENDROOT
BRANCH  11   6
ATOM      3  C   UNL     1      -3.249  -2.981  24.566  0.00  0.00    +0.142 A 
ATOM      4  C   UNL     1      -2.625  -2.816  24.053  0.00  0.00    +0.037 A 
ATOM      5  C   UNL     1      -2.179  -2.129  24.151  0.00  0.00    +0.006 A 
ATOM      6  C   UNL     1      -2.357  -1.607  24.764  0.00  0.00    +0.034 A 
ATOM      7  C   UNL     1      -2.980  -1.771  25.278  0.00  0.00    +0.142 A 
ATOM     10  C   UNL     1      -3.426  -2.457  25.180  0.00  0.00    +0.074 A 
BRANCH   3   2
ATOM      1  C   UNL     1      -4.186  -3.750  23.810  0.00  0.00    +0.252 C 
ATOM      2  O   UNL     1      -3.695  -3.667  24.468  0.00  0.00    -0.471 OA
ENDBRANCH   3   2
BRANCH   7   8
ATOM      8  O   UNL     1      -3.158  -1.249  25.891  0.00  0.00    -0.471 OA
ATOM      9  C   UNL     1      -3.761  -1.429  26.425  0.00  0.00    +0.252 C 
ENDBRANCH   7   8
ENDBRANCH  11   6
BRANCH  19  27
ATOM     27  N   UNL     1      -0.558   3.585  24.616  0.00  0.00    -0.200 NA
ATOM     28  C   UNL     1      -0.759   4.271  25.030  0.00  0.00    +0.284 C 
ATOM     29  O   UNL     1      -0.172   4.810  25.243  0.00  0.00    -0.267 OA
BRANCH  28  30
ATOM     30  C   UNL     1      -1.546   4.416  25.230  0.00  0.00    +0.155 A 
ATOM     31  C   UNL     1      -2.032   4.837  24.714  0.00  0.00    +0.123 A 
ATOM     32  N   UNL     1      -2.819   4.982  24.914  0.00  0.00    -0.239 NA
ATOM     33  C   UNL     1      -3.120   4.707  25.632  0.00  0.00    +0.120 A 
ATOM     34  C   UNL     1      -2.633   4.286  26.149  0.00  0.00    +0.120 A 
ATOM     35  N   UNL     1      -1.846   4.141  25.947  0.00  0.00    -0.236 NA
ENDBRANCH  28  30
ENDBRANCH  19  27
TORSDOF 5
ENDMDL
MODEL 8
REMARK VINA RESULT:      -7.3      2.451      3.460
REMARK  Name = 
REMARK  5 active torsions:
REMARK  status: ('A' for Active; 'I' for Inactive)
REMARK    1  A    between atoms: O_2  and  C_3
REMARK    2  A    between atoms: C_6  and  C_11
REMARK    3  A    between atoms: C_7  and  O_8
REMARK    4  A    between atoms: C_19  and  N_27
REMARK    5  A    between atoms: C_28  and  C_30
REMARK                            x       y       z     vdW  Elec       q    Type
REMARK                         _______ _______ _______ _____ _____    ______ ____
ROOT
ATOM     11  C   UNL     1       1.002   0.745  23.430  0.00  0.00    +0.003 A 
ATOM     12  C   UNL     1       0.630   1.471  23.311  0.00  0.00    +0.001 A 
ATOM     13  C   UNL     1      -0.140   1.590  23.583  0.00  0.00    +0.017 A 
ATOM     14  C   UNL     1      -0.537   0.982  23.974  0.00  0.00    +0.078 A 
ATOM     15  N   UNL     1      -1.296   1.215  24.199  0.00  0.00    -0.178 NA
ATOM     16  C   UNL     1      -1.871   0.778  24.599  0.00  0.00    +0.265 C 
ATOM     17  O   UNL     1      -2.582   1.170  24.744  0.00  0.00    -0.271 OA
ATOM     18  C   UNL     1      -1.828   0.000  24.872  0.00  0.00    +0.174 C 
ATOM     19  C   UNL     1      -2.446  -0.376  25.267  0.00  0.00    +0.124 C 
ATOM     20  C   UNL     1      -2.201  -1.142  25.453  0.00  0.00    +0.045 C 
ATOM     21  C   UNL     1      -1.431  -1.238  25.172  0.00  0.00    +0.096 C 
ATOM     22  N   UNL     1      -1.200  -0.531  24.813  0.00  0.00    -0.268 N 
ATOM     23  C   UNL     1      -0.461  -0.418  24.467  0.00  0.00    +0.251 C 
ATOM     24  O   UNL     1       0.052  -1.063  24.498  0.00  0.00    -0.270 OA
ATOM     25  C   UNL     1      -0.166   0.256  24.093  0.00  0.00    +0.069 A 
ATOM     26  C   UNL     1       0.604   0.137  23.821  0.00  0.00    +0.006 A 
ENDROOT
BRANCH  11   6
ATOM      3  C   UNL     1       3.312   0.387  22.614  0.00  0.00    +0.142 A 
ATOM      4  C   UNL     1       3.179   0.825  23.301  0.00  0.00    +0.037 A 
ATOM      5  C   UNL     1       2.410   0.944  23.573  0.00  0.00    +0.006 A 
ATOM      6  C   UNL     1       1.772   0.626  23.158  0.00  0.00    +0.034 A 
ATOM      7  C   UNL     1       1.903   0.188  22.472  0.00  0.00    +0.142 A 
ATOM     10  C   UNL     1       2.673   0.068  22.200  0.00  0.00    +0.074 A 
BRANCH   3   2
ATOM      1  C   UNL     1       4.722   0.411  22.840  0.00  0.00    +0.252 C 
ATOM      2  O   UNL     1       4.081   0.267  22.342  0.00  0.00    -0.471 OA
ENDBRANCH   3   2
BRANCH   7   8
ATOM      8  O   UNL     1       1.266  -0.131  22.057  0.00  0.00    -0.471 OA
ATOM      9  C   UNL     1       1.395  -0.544  21.354  0.00  0.00    +0.252 C 
ENDBRANCH   7   8
ENDBRANCH  11   6
BRANCH  19  27
ATOM     27  N   UNL     1      -3.181  -0.046  25.445  0.00  0.00    -0.200 NA
ATOM     28  C   UNL     1      -3.871  -0.480  25.314  0.00  0.00    +0.284 C 
ATOM     29  O   UNL     1      -4.606  -0.149  25.492  0.00  0.00    -0.267 OA
BRANCH  28  30
ATOM     30  C   UNL     1      -3.826  -1.243  25.005  0.00  0.00    +0.155 A 
ATOM     31  C   UNL     1      -3.675  -1.882  25.504  0.00  0.00    +0.123 A 
ATOM     32  N   UNL     1      -3.630  -2.645  25.195  0.00  0.00    -0.239 NA
ATOM     33  C   UNL     1      -3.736  -2.770  24.386  0.00  0.00    +0.120 A 
ATOM     34  C   UNL     1      -3.887  -2.130  23.887  0.00  0.00    +0.120 A 
ATOM     35  N   UNL     1      -3.932  -1.367  24.197  0.00  0.00    -0.236 NA
ENDBRANCH  28  30
ENDBRANCH  19  27
TORSDOF 5
ENDMDL
