MODEL 1
REMARK VINA RESULT:     -12.3      0.000      0.000
REMARK  Name = 
REMARK  7 active torsions:
REMARK  status: ('A' for Active; 'I' for Inactive)
REMARK    1  A    between atoms: O_2  and  C_3
REMARK    2  A    between atoms: C_3  and  C_4
REMARK    3  A    between atoms: C_4  and  C_5
REMARK    4  A    between atoms: N_7  and  C_8
REMARK    5  A    between atoms: C_18  and  C_20
REMARK    6  A    between atoms: C_20  and  O_21
REMARK    7  A    between atoms: O_21  and  C_22
REMARK                            x       y       z     vdW  Elec       q    Type
REMARK                         _______ _______ _______ _____ _____    ______ ____
ROOT
ATOM      8  C   UNL     1      -2.460   1.174  24.450  0.00  0.00    +0.129 A 
ATOM      9  C   UNL     1      -2.240   1.966  24.519  0.00  0.00    +0.023 A 
ATOM     10  C   UNL     1      -2.808   2.540  24.689  0.00  0.00    +0.014 A 
ATOM     11  C   UNL     1      -3.597   2.320  24.791  0.00  0.00    +0.041 A 
ATOM     12  C   UNL     1      -4.420   2.684  24.976  0.00  0.00    +0.058 C 
ATOM     13  C   UNL     1      -4.733   3.298  25.110  0.00  0.00    +0.011 C 
ATOM     14  C   UNL     1      -4.947   2.515  25.042  0.00  0.00    +0.043 C 
ATOM     15  C   UNL     1      -5.396   1.636  24.999  0.00  0.00    +0.095 C 
ATOM     16  N   UNL     1      -4.739   1.151  24.826  0.00  0.00    -0.276 N 
ATOM     17  C   UNL     1      -4.868   1.842  24.939  0.00  0.00    +0.099 C 
ATOM     18  C   UNL     1      -4.310   0.464  24.663  0.00  0.00    +0.270 C 
ATOM     19  O   UNL     1      -4.695  -0.264  24.630  0.00  0.00    -0.271 OA
ATOM     28  C   UNL     1      -4.091   2.126  24.848  0.00  0.00    +0.110 C 
ATOM     29  N   UNL     1      -3.817   1.528  24.723  0.00  0.00    -0.298 N 
ATOM     30  C   UNL     1      -3.249   0.955  24.552  0.00  0.00    +0.276 A 
ATOM     31  O   UNL     1      -2.966   0.195  24.404  0.00  0.00    -0.266 OA
ENDROOT
BRANCH   8   7
ATOM      5  C   UNL     1      -1.105   0.824  24.162  0.00  0.00    +0.248 C 
ATOM      6  O   UNL     1      -0.889   1.618  24.216  0.00  0.00    -0.273 OA
ATOM      7  N   UNL     1      -1.891   0.602  24.280  0.00  0.00    -0.174 NA
BRANCH   5   4
ATOM      4  C   UNL     1      -0.536   0.252  23.992  0.00  0.00    +0.119 C 
BRANCH   4   3
ATOM      3  C   UNL     1       0.129   0.452  23.546  0.00  0.00    +0.152 C 
BRANCH   3   2
ATOM      1  C   UNL     1       1.282   0.055  22.801  0.00  0.00    +0.174 C 
ATOM      2  O   UNL     1       0.648  -0.137  23.292  0.00  0.00    -0.351 OA
ENDBRANCH   3   2
ENDBRANCH   4   3
ENDBRANCH   5   4
ENDBRANCH   8   7
BRANCH  18  20
ATOM     20  C   UNL     1      -3.496   0.507  24.534  0.00  0.00    +0.290 C 
BRANCH  20  21
ATOM     21  O   UNL     1      -3.091  -0.146  24.235  0.00  0.00    -0.466 OA
BRANCH  21  22
ATOM     22  C   UNL     1      -3.303  -0.907  24.472  0.00  0.00    +0.139 A 
ATOM     23  C   UNL     1      -3.670  -1.418  23.937  0.00  0.00    +0.037 A 
ATOM     24  C   UNL     1      -3.882  -2.180  24.174  0.00  0.00    +0.003 A 
ATOM     25  C   UNL     1      -3.727  -2.430  24.944  0.00  0.00    +0.000 A 
ATOM     26  C   UNL     1      -3.360  -1.919  25.479  0.00  0.00    +0.003 A 
ATOM     27  C   UNL     1      -3.148  -1.158  25.242  0.00  0.00    +0.037 A 
ENDBRANCH  21  22
ENDBRANCH  20  21
ENDBRANCH  18  20
TORSDOF 7
ENDMDL
MODEL 2
REMARK VINA RESULT:     -12.1      1.335      4.266
REMARK  Name = 
REMARK  7 active torsions:
REMARK  status: ('A' for Active; 'I' for Inactive)
REMARK    1  A    between atoms: O_2  and  C_3
REMARK    2  A    between atoms: C_3  and  C_4
REMARK    3  A    between atoms: C_4  and  C_5
REMARK    4  A    between atoms: N_7  and  C_8
REMARK    5  A    between atoms: C_18  and  C_20
REMARK    6  A    between atoms: C_20  and  O_21
REMARK    7  A    between atoms: O_21  and  C_22
REMARK                            x       y       z     vdW  Elec       q    Type
REMARK                         _______ _______ _______ _____ _____    ______ ____
ROOT
ATOM      8  C   UNL     1      -3.602   0.262  24.705  0.00  0.00    +0.129 A 
ATOM      9  C   UNL     1      -4.315  -0.118  24.536  0.00  0.00    +0.023 A 
ATOM     10  C   UNL     1      -4.334  -0.936  24.437  0.00  0.00    +0.014 A 
ATOM     11  C   UNL     1      -3.640  -1.376  24.507  0.00  0.00    +0.041 A 
ATOM     12  C   UNL     1      -3.335  -2.242  24.459  0.00  0.00    +0.058 C 
ATOM     13  C   UNL     1      -3.557  -2.897  24.344  0.00  0.00    +0.011 C 
ATOM     14  C   UNL     1      -2.854  -2.520  24.511  0.00  0.00    +0.043 C 
ATOM     15  C   UNL     1      -1.924  -2.252  24.706  0.00  0.00    +0.095 C 
ATOM     16  N   UNL     1      -2.029  -1.427  24.784  0.00  0.00    -0.276 N 
ATOM     17  C   UNL     1      -2.431  -1.998  24.646  0.00  0.00    +0.099 C 
ATOM     18  C   UNL     1      -1.835  -0.634  24.910  0.00  0.00    +0.270 C 
ATOM     19  O   UNL     1      -1.054  -0.422  25.072  0.00  0.00    -0.271 OA
ATOM     28  C   UNL     1      -3.163  -1.612  24.563  0.00  0.00    +0.110 C 
ATOM     29  N   UNL     1      -2.927  -0.996  24.676  0.00  0.00    -0.298 N 
ATOM     30  C   UNL     1      -2.908  -0.178  24.775  0.00  0.00    +0.276 A 
ATOM     31  O   UNL     1      -2.561   0.556  24.922  0.00  0.00    -0.266 OA
ENDROOT
BRANCH   8   7
ATOM      5  C   UNL     1      -4.288   1.512  24.793  0.00  0.00    +0.248 C 
ATOM      6  O   UNL     1      -5.008   1.124  24.684  0.00  0.00    -0.273 OA
ATOM      7  N   UNL     1      -3.585   1.080  24.804  0.00  0.00    -0.174 NA
BRANCH   5   4
ATOM      4  C   UNL     1      -4.271   2.331  24.892  0.00  0.00    +0.119 C 
BRANCH   4   3
ATOM      3  C   UNL     1      -4.947   2.729  25.148  0.00  0.00    +0.152 C 
BRANCH   3   2
ATOM      1  C   UNL     1      -5.581   3.931  25.589  0.00  0.00    +0.174 C 
ATOM      2  O   UNL     1      -4.910   3.535  25.321  0.00  0.00    -0.351 OA
ENDBRANCH   3   2
ENDBRANCH   4   3
ENDBRANCH   5   4
ENDBRANCH   8   7
BRANCH  18  20
ATOM     20  C   UNL     1      -2.421  -0.055  24.875  0.00  0.00    +0.290 C 
BRANCH  20  21
ATOM     21  O   UNL     1      -2.250   0.719  25.102  0.00  0.00    -0.466 OA
BRANCH  21  22
ATOM     22  C   UNL     1      -1.516   1.049  24.923  0.00  0.00    +0.139 A 
ATOM     23  C   UNL     1      -0.985   1.225  25.530  0.00  0.00    +0.037 A 
ATOM     24  C   UNL     1      -0.249   1.556  25.352  0.00  0.00    +0.003 A 
ATOM     25  C   UNL     1      -0.047   1.711  24.568  0.00  0.00    +0.000 A 
ATOM     26  C   UNL     1      -0.578   1.535  23.961  0.00  0.00    +0.003 A 
ATOM     27  C   UNL     1      -1.312   1.204  24.140  0.00  0.00    +0.037 A 
ENDBRANCH  21  22
ENDBRANCH  20  21
ENDBRANCH  18  20
TORSDOF 7
ENDMDL
MODEL 3
REMARK VINA RESULT:     -11.6      1.429      3.018
REMARK  Name = 
REMARK  7 active torsions:
REMARK  status: ('A' for Active; 'I' for Inactive)
REMARK    1  A    between atoms: O_2  and  C_3
REMARK    2  A    between atoms: C_3  and  C_4
REMARK    3  A    between atoms: C_4  and  C_5
REMARK    4  A    between atoms: N_7  and  C_8
REMARK    5  A    between atoms: C_18  and  C_20
REMARK    6  A    between atoms: C_20  and  O_21
REMARK    7  A    between atoms: O_21  and  C_22
REMARK                            x       y       z     vdW  Elec       q    Type
REMARK                         _______ _______ _______ _____ _____    ______ ____
ROOT
ATOM      8  C   UNL     1      -3.257   0.862  24.785  0.00  0.00    +0.129 A 
ATOM      9  C   UNL     1      -3.859   0.300  24.832  0.00  0.00    +0.023 A 
ATOM     10  C   UNL     1      -4.641   0.541  24.938  0.00  0.00    +0.014 A 
ATOM     11  C   UNL     1      -4.821   1.344  24.998  0.00  0.00    +0.041 A 
ATOM     12  C   UNL     1      -5.537   1.908  25.112  0.00  0.00    +0.058 C 
ATOM     13  C   UNL     1      -6.233   1.903  25.197  0.00  0.00    +0.011 C 
ATOM     14  C   UNL     1      -5.636   2.455  25.150  0.00  0.00    +0.043 C 
ATOM     15  C   UNL     1      -5.065   3.261  25.119  0.00  0.00    +0.095 C 
ATOM     16  N   UNL     1      -4.320   2.900  25.011  0.00  0.00    -0.276 N 
ATOM     17  C   UNL     1      -4.998   2.696  25.084  0.00  0.00    +0.099 C 
ATOM     18  C   UNL     1      -3.503   2.836  24.908  0.00  0.00    +0.270 C 
ATOM     19  O   UNL     1      -3.036   3.515  24.884  0.00  0.00    -0.271 OA
ATOM     28  C   UNL     1      -4.882   1.874  25.031  0.00  0.00    +0.110 C 
ATOM     29  N   UNL     1      -4.218   1.906  24.952  0.00  0.00    -0.298 N 
ATOM     30  C   UNL     1      -3.437   1.665  24.845  0.00  0.00    +0.276 A 
ATOM     31  O   UNL     1      -2.624   1.765  24.750  0.00  0.00    -0.266 OA
ENDROOT
BRANCH   8   7
ATOM      5  C   UNL     1      -2.296  -0.183  24.625  0.00  0.00    +0.248 C 
ATOM      6  O   UNL     1      -2.898  -0.744  24.678  0.00  0.00    -0.273 OA
ATOM      7  N   UNL     1      -2.476   0.621  24.678  0.00  0.00    -0.174 NA
BRANCH   5   4
ATOM      4  C   UNL     1      -1.515  -0.425  24.518  0.00  0.00    +0.119 C 
BRANCH   4   3
ATOM      3  C   UNL     1      -1.251  -1.129  24.858  0.00  0.00    +0.152 C 
BRANCH   3   2
ATOM      1  C   UNL     1      -0.179  -1.984  25.258  0.00  0.00    +0.174 C 
ATOM      2  O   UNL     1      -0.443  -1.282  24.915  0.00  0.00    -0.351 OA
ENDBRANCH   3   2
ENDBRANCH   4   3
ENDBRANCH   5   4
ENDBRANCH   8   7
BRANCH  18  20
ATOM     20  C   UNL     1      -3.154   2.092  24.831  0.00  0.00    +0.290 C 
BRANCH  20  21
ATOM     21  O   UNL     1      -2.362   2.029  24.610  0.00  0.00    -0.466 OA
BRANCH  21  22
ATOM     22  C   UNL     1      -1.815   2.588  24.871  0.00  0.00    +0.139 A 
ATOM     23  C   UNL     1      -1.491   3.128  24.337  0.00  0.00    +0.037 A 
ATOM     24  C   UNL     1      -0.943   3.688  24.597  0.00  0.00    +0.003 A 
ATOM     25  C   UNL     1      -0.720   3.707  25.391  0.00  0.00    +0.000 A 
ATOM     26  C   UNL     1      -1.044   3.168  25.925  0.00  0.00    +0.003 A 
ATOM     27  C   UNL     1      -1.591   2.609  25.664  0.00  0.00    +0.037 A 
ENDBRANCH  21  22
ENDBRANCH  20  21
ENDBRANCH  18  20
TORSDOF 7
ENDMDL
MODEL 4
REMARK VINA RESULT:     -11.6      1.372      3.330
REMARK  Name = 
REMARK  7 active torsions:
REMARK  status: ('A' for Active; 'I' for Inactive)
REMARK    1  A    between atoms: O_2  and  C_3
REMARK    2  A    between atoms: C_3  and  C_4
REMARK    3  A    between atoms: C_4  and  C_5
REMARK    4  A    between atoms: N_7  and  C_8
REMARK    5  A    between atoms: C_18  and  C_20
REMARK    6  A    between atoms: C_20  and  O_21
REMARK    7  A    between atoms: O_21  and  C_22
REMARK                            x       y       z     vdW  Elec       q    Type
REMARK                         _______ _______ _______ _____ _____    ______ ____
ROOT
ATOM      8  C   UNL     1      -2.186  -0.097  25.084  0.00  0.00    +0.129 A 
ATOM      9  C   UNL     1      -1.677  -0.745  25.135  0.00  0.00    +0.023 A 
ATOM     10  C   UNL     1      -1.942  -1.496  24.921  0.00  0.00    +0.014 A 
ATOM     11  C   UNL     1      -2.716  -1.599  24.654  0.00  0.00    +0.041 A 
ATOM     12  C   UNL     1      -3.287  -2.256  24.357  0.00  0.00    +0.058 C 
ATOM     13  C   UNL     1      -3.314  -2.945  24.230  0.00  0.00    +0.011 C 
ATOM     14  C   UNL     1      -3.814  -2.303  24.180  0.00  0.00    +0.043 C 
ATOM     15  C   UNL     1      -4.556  -1.664  24.052  0.00  0.00    +0.095 C 
ATOM     16  N   UNL     1      -4.177  -0.960  24.295  0.00  0.00    -0.276 N 
ATOM     17  C   UNL     1      -4.014  -1.650  24.228  0.00  0.00    +0.099 C 
ATOM     18  C   UNL     1      -4.079  -0.158  24.465  0.00  0.00    +0.270 C 
ATOM     19  O   UNL     1      -4.705   0.367  24.354  0.00  0.00    -0.271 OA
ATOM     28  C   UNL     1      -3.224  -1.611  24.489  0.00  0.00    +0.110 C 
ATOM     29  N   UNL     1      -3.224  -0.952  24.602  0.00  0.00    -0.298 N 
ATOM     30  C   UNL     1      -2.959  -0.201  24.817  0.00  0.00    +0.276 A 
ATOM     31  O   UNL     1      -3.018   0.613  24.939  0.00  0.00    -0.266 OA
ENDROOT
BRANCH   8   7
ATOM      5  C   UNL     1      -1.128   0.767  25.502  0.00  0.00    +0.248 C 
ATOM      6  O   UNL     1      -0.603   0.131  25.490  0.00  0.00    -0.273 OA
ATOM      7  N   UNL     1      -1.920   0.653  25.299  0.00  0.00    -0.174 NA
BRANCH   5   4
ATOM      4  C   UNL     1      -0.861   1.517  25.717  0.00  0.00    +0.119 C 
BRANCH   4   3
ATOM      3  C   UNL     1      -0.151   1.806  25.412  0.00  0.00    +0.152 C 
BRANCH   3   2
ATOM      1  C   UNL     1      -0.009   3.226  25.344  0.00  0.00    +0.174 C 
ATOM      2  O   UNL     1       0.170   2.507  25.705  0.00  0.00    -0.351 OA
ENDBRANCH   3   2
ENDBRANCH   4   3
ENDBRANCH   5   4
ENDBRANCH   8   7
BRANCH  18  20
ATOM     20  C   UNL     1      -3.353   0.118  24.745  0.00  0.00    +0.290 C 
BRANCH  20  21
ATOM     21  O   UNL     1      -3.300   0.871  25.077  0.00  0.00    -0.466 OA
BRANCH  21  22
ATOM     22  C   UNL     1      -3.746   1.492  24.768  0.00  0.00    +0.139 A 
ATOM     23  C   UNL     1      -4.389   1.789  25.192  0.00  0.00    +0.037 A 
ATOM     24  C   UNL     1      -4.836   2.410  24.883  0.00  0.00    +0.003 A 
ATOM     25  C   UNL     1      -4.640   2.734  24.150  0.00  0.00    +0.000 A 
ATOM     26  C   UNL     1      -3.997   2.437  23.726  0.00  0.00    +0.003 A 
ATOM     27  C   UNL     1      -3.551   1.816  24.035  0.00  0.00    +0.037 A 
ENDBRANCH  21  22
ENDBRANCH  20  21
ENDBRANCH  18  20
TORSDOF 7
ENDMDL
MODEL 5
REMARK VINA RESULT:     -11.4      1.873      3.331
REMARK  Name = 
REMARK  7 active torsions:
REMARK  status: ('A' for Active; 'I' for Inactive)
REMARK    1  A    between atoms: O_2  and  C_3
REMARK    2  A    between atoms: C_3  and  C_4
REMARK    3  A    between atoms: C_4  and  C_5
REMARK    4  A    between atoms: N_7  and  C_8
REMARK    5  A    between atoms: C_18  and  C_20
REMARK    6  A    between atoms: C_20  and  O_21
REMARK    7  A    between atoms: O_21  and  C_22
REMARK                            x       y       z     vdW  Elec       q    Type
REMARK                         _______ _______ _______ _____ _____    ______ ____
ROOT
ATOM      8  C   UNL     1      -1.854   2.027  24.832  0.00  0.00    +0.129 A 
ATOM      9  C   UNL     1      -1.053   2.085  24.643  0.00  0.00    +0.023 A 
ATOM     10  C   UNL     1      -0.678   2.820  24.659  0.00  0.00    +0.014 A 
ATOM     11  C   UNL     1      -1.104   3.496  24.864  0.00  0.00    +0.041 A 
ATOM     12  C   UNL     1      -0.996   4.402  24.971  0.00  0.00    +0.058 C 
ATOM     13  C   UNL     1      -0.512   4.908  24.926  0.00  0.00    +0.011 C 
ATOM     14  C   UNL     1      -1.303   4.846  25.112  0.00  0.00    +0.043 C 
ATOM     15  C   UNL     1      -2.249   4.976  25.364  0.00  0.00    +0.095 C 
ATOM     16  N   UNL     1      -2.517   4.186  25.314  0.00  0.00    -0.276 N 
ATOM     17  C   UNL     1      -1.908   4.543  25.216  0.00  0.00    +0.099 C 
ATOM     18  C   UNL     1      -3.036   3.546  25.347  0.00  0.00    +0.270 C 
ATOM     19  O   UNL     1      -3.824   3.665  25.559  0.00  0.00    -0.271 OA
ATOM     28  C   UNL     1      -1.425   3.900  25.002  0.00  0.00    +0.110 C 
ATOM     29  N   UNL     1      -1.905   3.437  25.052  0.00  0.00    -0.298 N 
ATOM     30  C   UNL     1      -2.280   2.702  25.037  0.00  0.00    +0.276 A 
ATOM     31  O   UNL     1      -2.910   2.176  25.114  0.00  0.00    -0.266 OA
ENDROOT
BRANCH   8   7
ATOM      5  C   UNL     1      -1.792   0.611  24.653  0.00  0.00    +0.248 C 
ATOM      6  O   UNL     1      -0.982   0.665  24.506  0.00  0.00    -0.273 OA
ATOM      7  N   UNL     1      -2.228   1.292  24.816  0.00  0.00    -0.174 NA
BRANCH   5   4
ATOM      4  C   UNL     1      -2.165  -0.125  24.636  0.00  0.00    +0.119 C 
BRANCH   4   3
ATOM      3  C   UNL     1      -1.716  -0.816  24.644  0.00  0.00    +0.152 C 
BRANCH   3   2
ATOM      1  C   UNL     1      -1.653  -2.243  24.609  0.00  0.00    +0.174 C 
ATOM      2  O   UNL     1      -2.088  -1.550  24.708  0.00  0.00    -0.351 OA
ENDBRANCH   3   2
ENDBRANCH   4   3
ENDBRANCH   5   4
ENDBRANCH   8   7
BRANCH  18  20
ATOM     20  C   UNL     1      -2.767   2.786  25.169  0.00  0.00    +0.290 C 
BRANCH  20  21
ATOM     21  O   UNL     1      -3.261   2.136  25.288  0.00  0.00    -0.466 OA
BRANCH  21  22
ATOM     22  C   UNL     1      -4.070   2.199  25.141  0.00  0.00    +0.139 A 
ATOM     23  C   UNL     1      -4.603   2.218  25.772  0.00  0.00    +0.037 A 
ATOM     24  C   UNL     1      -5.413   2.281  25.626  0.00  0.00    +0.003 A 
ATOM     25  C   UNL     1      -5.689   2.324  24.850  0.00  0.00    +0.000 A 
ATOM     26  C   UNL     1      -5.156   2.305  24.219  0.00  0.00    +0.003 A 
ATOM     27  C   UNL     1      -4.347   2.242  24.366  0.00  0.00    +0.037 A 
ENDBRANCH  21  22
ENDBRANCH  20  21
ENDBRANCH  18  20
TORSDOF 7
ENDMDL
MODEL 6
REMARK VINA RESULT:     -11.2      1.071      3.701
REMARK  Name = 
REMARK  7 active torsions:
REMARK  status: ('A' for Active; 'I' for Inactive)
REMARK    1  A    between atoms: O_2  and  C_3
REMARK    2  A    between atoms: C_3  and  C_4
REMARK    3  A    between atoms: C_4  and  C_5
REMARK    4  A    between atoms: N_7  and  C_8
REMARK    5  A    between atoms: C_18  and  C_20
REMARK    6  A    between atoms: C_20  and  O_21
REMARK    7  A    between atoms: O_21  and  C_22
REMARK                            x       y       z     vdW  Elec       q    Type
REMARK                         _______ _______ _______ _____ _____    ______ ____
ROOT
ATOM      8  C   UNL     1      -2.727   0.946  24.502  0.00  0.00    +0.129 A 
ATOM      9  C   UNL     1      -2.427   1.687  24.297  0.00  0.00    +0.023 A 
ATOM     10  C   UNL     1      -1.630   1.769  24.099  0.00  0.00    +0.014 A 
ATOM     11  C   UNL     1      -1.134   1.111  24.104  0.00  0.00    +0.041 A 
ATOM     12  C   UNL     1      -0.260   0.874  23.946  0.00  0.00    +0.058 C 
ATOM     13  C   UNL     1       0.357   1.146  23.754  0.00  0.00    +0.011 C 
ATOM     14  C   UNL     1       0.058   0.416  23.956  0.00  0.00    +0.043 C 
ATOM     15  C   UNL     1      -0.113  -0.534  24.168  0.00  0.00    +0.095 C 
ATOM     16  N   UNL     1      -0.928  -0.493  24.349  0.00  0.00    -0.276 N 
ATOM     17  C   UNL     1      -0.409  -0.047  24.148  0.00  0.00    +0.099 C 
ATOM     18  C   UNL     1      -1.681  -0.748  24.569  0.00  0.00    +0.270 C 
ATOM     19  O   UNL     1      -1.812  -1.543  24.744  0.00  0.00    -0.271 OA
ATOM     28  C   UNL     1      -0.857   0.654  24.123  0.00  0.00    +0.110 C 
ATOM     29  N   UNL     1      -1.434   0.370  24.308  0.00  0.00    -0.298 N 
ATOM     30  C   UNL     1      -2.231   0.288  24.507  0.00  0.00    +0.276 A 
ATOM     31  O   UNL     1      -2.912  -0.116  24.738  0.00  0.00    -0.266 OA
ENDROOT
BRANCH   8   7
ATOM      5  C   UNL     1      -4.012   1.530  24.722  0.00  0.00    +0.248 C 
ATOM      6  O   UNL     1      -3.705   2.274  24.545  0.00  0.00    -0.273 OA
ATOM      7  N   UNL     1      -3.523   0.865  24.700  0.00  0.00    -0.174 NA
BRANCH   5   4
ATOM      4  C   UNL     1      -4.809   1.449  24.921  0.00  0.00    +0.119 C 
BRANCH   4   3
ATOM      3  C   UNL     1      -5.226   2.094  25.224  0.00  0.00    +0.152 C 
BRANCH   3   2
ATOM      1  C   UNL     1      -6.340   2.205  26.110  0.00  0.00    +0.174 C 
ATOM      2  O   UNL     1      -6.036   2.032  25.364  0.00  0.00    -0.351 OA
ENDBRANCH   3   2
ENDBRANCH   4   3
ENDBRANCH   5   4
ENDBRANCH   8   7
BRANCH  18  20
ATOM     20  C   UNL     1      -2.303  -0.208  24.614  0.00  0.00    +0.290 C 
BRANCH  20  21
ATOM     21  O   UNL     1      -3.036  -0.447  24.905  0.00  0.00    -0.466 OA
BRANCH  21  22
ATOM     22  C   UNL     1      -3.315  -1.207  24.748  0.00  0.00    +0.139 A 
ATOM     23  C   UNL     1      -3.271  -1.791  25.330  0.00  0.00    +0.037 A 
ATOM     24  C   UNL     1      -3.551  -2.552  25.174  0.00  0.00    +0.003 A 
ATOM     25  C   UNL     1      -3.874  -2.728  24.436  0.00  0.00    +0.000 A 
ATOM     26  C   UNL     1      -3.918  -2.144  23.854  0.00  0.00    +0.003 A 
ATOM     27  C   UNL     1      -3.639  -1.385  24.011  0.00  0.00    +0.037 A 
ENDBRANCH  21  22
ENDBRANCH  20  21
ENDBRANCH  18  20
TORSDOF 7
ENDMDL
