MODEL 1
REMARK VINA RESULT:      -9.4      0.000      0.000
REMARK  Name = 
REMARK  8 active torsions:
REMARK  status: ('A' for Active; 'I' for Inactive)
REMARK    1  A    between atoms: O_2  and  C_3
REMARK    2  A    between atoms: C_6  and  N_7
REMARK    3  A    between atoms: C_8  and  O_10
REMARK    4  A    between atoms: O_10  and  C_11
REMARK    5  A    between atoms: C_11  and  C_12
REMARK    6  A    between atoms: C_19  and  C_20
REMARK    7  A    between atoms: C_22  and  C_26
REMARK    8  A    between atoms: C_27  and  O_28
REMARK                            x       y       z     vdW  Elec       q    Type
REMARK                         _______ _______ _______ _____ _____    ______ ____
ROOT
ATOM     12  C   UNL     1      -0.339   1.100  23.934  0.00  0.00    +0.102 C 
ATOM     13  C   UNL     1      -0.970   0.670  24.085  0.00  0.00    +0.020 C 
ATOM     14  C   UNL     1      -1.733   0.939  24.090  0.00  0.00    +0.010 C 
ATOM     15  C   UNL     1      -2.316   0.286  24.287  0.00  0.00    +0.018 C 
ATOM     16  C   UNL     1      -1.726   0.544  24.178  0.00  0.00    +0.072 C 
ATOM     17  N   UNL     1      -1.120   1.366  23.941  0.00  0.00    -0.270 NA
ATOM     18  C   UNL     1      -1.485   2.188  23.788  0.00  0.00    +0.078 C 
ATOM     19  C   UNL     1      -2.078   1.732  23.941  0.00  0.00    +0.056 C 
ENDROOT
BRANCH  19  20
ATOM     20  C   UNL     1      -2.876   1.942  23.963  0.00  0.00    +0.058 A 
ATOM     21  C   UNL     1      -3.382   1.856  24.608  0.00  0.00    +0.035 A 
ATOM     22  C   UNL     1      -4.126   2.134  24.388  0.00  0.00    +0.105 A 
ATOM     23  N   UNL     1      -4.081   2.392  23.605  0.00  0.00    -0.169 NA
ATOM     24  N   UNL     1      -3.307   2.273  23.343  0.00  0.00    -0.253 N 
ATOM     25  C   UNL     1      -3.016   2.453  22.592  0.00  0.00    +0.153 C 
BRANCH  22  26
ATOM     26  C   UNL     1      -4.799   2.152  24.865  0.00  0.00    +0.053 A 
ATOM     27  C   UNL     1      -4.910   2.772  25.398  0.00  0.00    +0.140 A 
ATOM     30  C   UNL     1      -5.583   2.790  25.875  0.00  0.00    +0.037 A 
ATOM     31  C   UNL     1      -6.145   2.188  25.819  0.00  0.00    +0.003 A 
ATOM     32  C   UNL     1      -6.034   1.569  25.285  0.00  0.00    +0.000 A 
ATOM     33  C   UNL     1      -5.361   1.551  24.808  0.00  0.00    +0.005 A 
BRANCH  27  28
ATOM     28  O   UNL     1      -4.348   3.373  25.455  0.00  0.00    -0.471 OA
ATOM     29  C   UNL     1      -4.455   3.988  25.993  0.00  0.00    +0.252 C 
ENDBRANCH  27  28
ENDBRANCH  22  26
ENDBRANCH  19  20
BRANCH  12  11
ATOM     11  C   UNL     1       0.474   1.206  23.840  0.00  0.00    +0.226 C 
BRANCH  11  10
ATOM     10  O   UNL     1       0.894   0.731  23.313  0.00  0.00    -0.432 OA
BRANCH  10   8
ATOM      7  N   UNL     1       2.138   0.184  22.871  0.00  0.00    -0.142 NA
ATOM      8  C   UNL     1       1.719   0.727  23.330  0.00  0.00    +0.425 C 
ATOM      9  O   UNL     1       2.125   1.264  23.805  0.00  0.00    -0.224 OA
BRANCH   7   6
ATOM      3  C   UNL     1       4.612   0.170  22.919  0.00  0.00    +0.139 A 
ATOM      4  C   UNL     1       4.189  -0.443  23.275  0.00  0.00    +0.038 A 
ATOM      5  C   UNL     1       3.364  -0.438  23.259  0.00  0.00    +0.020 A 
ATOM      6  C   UNL     1       2.962   0.179  22.887  0.00  0.00    +0.077 A 
ATOM     34  C   UNL     1       3.385   0.792  22.531  0.00  0.00    +0.020 A 
ATOM     35  C   UNL     1       4.210   0.787  22.548  0.00  0.00    +0.038 A 
BRANCH   3   2
ATOM      1  C   UNL     1       5.835   0.183  23.659  0.00  0.00    +0.252 C 
ATOM      2  O   UNL     1       5.437   0.164  22.936  0.00  0.00    -0.471 OA
ENDBRANCH   3   2
ENDBRANCH   7   6
ENDBRANCH  10   8
ENDBRANCH  11  10
ENDBRANCH  12  11
TORSDOF 8
ENDMDL
MODEL 2
REMARK VINA RESULT:      -8.7      0.830      1.128
REMARK  Name = 
REMARK  8 active torsions:
REMARK  status: ('A' for Active; 'I' for Inactive)
REMARK    1  A    between atoms: O_2  and  C_3
REMARK    2  A    between atoms: C_6  and  N_7
REMARK    3  A    between atoms: C_8  and  O_10
REMARK    4  A    between atoms: O_10  and  C_11
REMARK    5  A    between atoms: C_11  and  C_12
REMARK    6  A    between atoms: C_19  and  C_20
REMARK    7  A    between atoms: C_22  and  C_26
REMARK    8  A    between atoms: C_27  and  O_28
REMARK                            x       y       z     vdW  Elec       q    Type
REMARK                         _______ _______ _______ _____ _____    ______ ____
ROOT
ATOM     12  C   UNL     1      -0.506   0.898  23.814  0.00  0.00    +0.102 C 
ATOM     13  C   UNL     1      -1.145   1.142  23.443  0.00  0.00    +0.020 C 
ATOM     14  C   UNL     1      -1.896   1.138  23.744  0.00  0.00    +0.010 C 
ATOM     15  C   UNL     1      -2.493   1.461  23.158  0.00  0.00    +0.018 C 
ATOM     16  C   UNL     1      -1.900   1.287  23.368  0.00  0.00    +0.072 C 
ATOM     17  N   UNL     1      -1.275   0.897  24.115  0.00  0.00    -0.270 NA
ATOM     18  C   UNL     1      -1.616   0.632  24.919  0.00  0.00    +0.078 C 
ATOM     19  C   UNL     1      -2.217   0.882  24.520  0.00  0.00    +0.056 C 
ENDROOT
BRANCH  19  20
ATOM     20  C   UNL     1      -3.005   0.905  24.766  0.00  0.00    +0.058 A 
ATOM     21  C   UNL     1      -3.503   1.561  24.737  0.00  0.00    +0.035 A 
ATOM     22  C   UNL     1      -4.237   1.338  25.038  0.00  0.00    +0.105 A 
ATOM     23  N   UNL     1      -4.194   0.543  25.253  0.00  0.00    -0.169 NA
ATOM     24  N   UNL     1      -3.431   0.275  25.085  0.00  0.00    -0.253 N 
ATOM     25  C   UNL     1      -3.146  -0.489  25.214  0.00  0.00    +0.153 C 
BRANCH  22  26
ATOM     26  C   UNL     1      -4.900   1.824  25.111  0.00  0.00    +0.053 A 
ATOM     27  C   UNL     1      -4.829   2.569  25.459  0.00  0.00    +0.140 A 
ATOM     30  C   UNL     1      -5.492   3.055  25.532  0.00  0.00    +0.037 A 
ATOM     31  C   UNL     1      -6.226   2.796  25.257  0.00  0.00    +0.003 A 
ATOM     32  C   UNL     1      -6.296   2.051  24.909  0.00  0.00    +0.000 A 
ATOM     33  C   UNL     1      -5.633   1.565  24.836  0.00  0.00    +0.005 A 
BRANCH  27  28
ATOM     28  O   UNL     1      -4.095   2.827  25.734  0.00  0.00    -0.471 OA
ATOM     29  C   UNL     1      -4.016   3.587  26.043  0.00  0.00    +0.252 C 
ENDBRANCH  27  28
ENDBRANCH  22  26
ENDBRANCH  19  20
BRANCH  12  11
ATOM     11  C   UNL     1       0.304   0.754  23.867  0.00  0.00    +0.226 C 
BRANCH  11  10
ATOM     10  O   UNL     1       0.767   0.746  23.185  0.00  0.00    -0.432 OA
BRANCH  10   8
ATOM      7  N   UNL     1       2.035   0.242  22.759  0.00  0.00    -0.142 NA
ATOM      8  C   UNL     1       1.590   0.739  23.245  0.00  0.00    +0.425 C 
ATOM      9  O   UNL     1       1.968   1.228  23.791  0.00  0.00    -0.224 OA
BRANCH   7   6
ATOM      3  C   UNL     1       4.503   0.219  22.939  0.00  0.00    +0.139 A 
ATOM      4  C   UNL     1       4.063  -0.421  23.217  0.00  0.00    +0.038 A 
ATOM      5  C   UNL     1       3.240  -0.414  23.157  0.00  0.00    +0.020 A 
ATOM      6  C   UNL     1       2.857   0.234  22.819  0.00  0.00    +0.077 A 
ATOM     34  C   UNL     1       3.297   0.875  22.541  0.00  0.00    +0.020 A 
ATOM     35  C   UNL     1       4.120   0.867  22.601  0.00  0.00    +0.038 A 
BRANCH   3   2
ATOM      1  C   UNL     1       5.684   0.204  23.743  0.00  0.00    +0.252 C 
ATOM      2  O   UNL     1       5.326   0.211  22.999  0.00  0.00    -0.471 OA
ENDBRANCH   3   2
ENDBRANCH   7   6
ENDBRANCH  10   8
ENDBRANCH  11  10
ENDBRANCH  12  11
TORSDOF 8
ENDMDL
MODEL 3
REMARK VINA RESULT:      -7.1      1.244      7.657
REMARK  Name = 
REMARK  8 active torsions:
REMARK  status: ('A' for Active; 'I' for Inactive)
REMARK    1  A    between atoms: O_2  and  C_3
REMARK    2  A    between atoms: C_6  and  N_7
REMARK    3  A    between atoms: C_8  and  O_10
REMARK    4  A    between atoms: O_10  and  C_11
REMARK    5  A    between atoms: C_11  and  C_12
REMARK    6  A    between atoms: C_19  and  C_20
REMARK    7  A    between atoms: C_22  and  C_26
REMARK    8  A    between atoms: C_27  and  O_28
REMARK                            x       y       z     vdW  Elec       q    Type
REMARK                         _______ _______ _______ _____ _____    ______ ____
ROOT
ATOM     12  C   UNL     1      -0.781   0.662  24.056  0.00  0.00    +0.102 C 
ATOM     13  C   UNL     1      -0.174   1.149  24.032  0.00  0.00    +0.020 C 
ATOM     14  C   UNL     1       0.550   0.984  23.709  0.00  0.00    +0.010 C 
ATOM     15  C   UNL     1       1.114   1.677  23.782  0.00  0.00    +0.018 C 
ATOM     16  C   UNL     1       0.548   1.360  23.858  0.00  0.00    +0.072 C 
ATOM     17  N   UNL     1      -0.040   0.501  23.729  0.00  0.00    -0.270 NA
ATOM     18  C   UNL     1       0.297  -0.239  23.317  0.00  0.00    +0.078 C 
ATOM     19  C   UNL     1       0.868   0.268  23.313  0.00  0.00    +0.056 C 
ENDROOT
BRANCH  19  20
ATOM     20  C   UNL     1       1.626   0.164  23.003  0.00  0.00    +0.058 A 
ATOM     21  C   UNL     1       2.335   0.334  23.388  0.00  0.00    +0.035 A 
ATOM     22  C   UNL     1       2.954   0.147  22.876  0.00  0.00    +0.105 A 
ATOM     23  N   UNL     1       2.628  -0.138  22.174  0.00  0.00    -0.169 NA
ATOM     24  N   UNL     1       1.806  -0.128  22.252  0.00  0.00    -0.253 N 
ATOM     25  C   UNL     1       1.261  -0.367  21.681  0.00  0.00    +0.153 C 
BRANCH  22  26
ATOM     26  C   UNL     1       3.758   0.231  23.037  0.00  0.00    +0.053 A 
ATOM     27  C   UNL     1       4.180  -0.395  23.371  0.00  0.00    +0.140 A 
ATOM     30  C   UNL     1       4.985  -0.312  23.532  0.00  0.00    +0.037 A 
ATOM     31  C   UNL     1       5.369   0.398  23.359  0.00  0.00    +0.003 A 
ATOM     32  C   UNL     1       4.947   1.024  23.024  0.00  0.00    +0.000 A 
ATOM     33  C   UNL     1       4.143   0.940  22.864  0.00  0.00    +0.005 A 
BRANCH  27  28
ATOM     28  O   UNL     1       3.796  -1.104  23.544  0.00  0.00    -0.471 OA
ATOM     29  C   UNL     1       4.216  -1.730  23.877  0.00  0.00    +0.252 C 
ENDBRANCH  27  28
ENDBRANCH  22  26
ENDBRANCH  19  20
BRANCH  12  11
ATOM     11  C   UNL     1      -1.556   0.463  24.254  0.00  0.00    +0.226 C 
BRANCH  11  10
ATOM     10  O   UNL     1      -2.187   0.836  23.877  0.00  0.00    -0.432 OA
BRANCH  10   8
ATOM      7  N   UNL     1      -3.485   1.432  23.936  0.00  0.00    -0.142 NA
ATOM      8  C   UNL     1      -2.874   1.013  24.300  0.00  0.00    +0.425 C 
ATOM      9  O   UNL     1      -2.949   0.772  25.084  0.00  0.00    -0.224 OA
BRANCH   7   6
ATOM      3  C   UNL     1      -5.544   1.962  25.202  0.00  0.00    +0.139 A 
ATOM      4  C   UNL     1      -5.029   2.567  24.980  0.00  0.00    +0.038 A 
ATOM      5  C   UNL     1      -4.342   2.390  24.558  0.00  0.00    +0.020 A 
ATOM      6  C   UNL     1      -4.171   1.609  24.358  0.00  0.00    +0.077 A 
ATOM     34  C   UNL     1      -4.687   1.004  24.580  0.00  0.00    +0.020 A 
ATOM     35  C   UNL     1      -5.373   1.181  25.001  0.00  0.00    +0.038 A 
BRANCH   3   2
ATOM      1  C   UNL     1      -6.265   1.995  26.436  0.00  0.00    +0.252 C 
ATOM      2  O   UNL     1      -6.231   2.140  25.624  0.00  0.00    -0.471 OA
ENDBRANCH   3   2
ENDBRANCH   7   6
ENDBRANCH  10   8
ENDBRANCH  11  10
ENDBRANCH  12  11
TORSDOF 8
ENDMDL
