MODEL 1
REMARK VINA RESULT:     -10.7      0.000      0.000
REMARK  Name = 
REMARK  3 active torsions:
REMARK  status: ('A' for Active; 'I' for Inactive)
REMARK    1  A    between atoms: C_6  and  C_7
REMARK    2  A    between atoms: C_9  and  C_12
REMARK    3  A    between atoms: C_16  and  N_18
REMARK                            x       y       z     vdW  Elec       q    Type
REMARK                         _______ _______ _______ _____ _____    ______ ____
ROOT
ATOM      7  C   UNL     1      -4.133  -0.155  24.791  0.00  0.00    +0.251 A 
ATOM      8  N   UNL     1      -3.773   0.484  24.412  0.00  0.00    -0.190 NA
ATOM      9  C   UNL     1      -4.087   1.178  24.728  0.00  0.00    +0.203 A 
ATOM     10  N   UNL     1      -4.642   0.968  25.301  0.00  0.00    -0.056 NA
ATOM     11  O   UNL     1      -4.670   0.146  25.340  0.00  0.00    -0.336 OA
ENDROOT
BRANCH   7   6
ATOM      1  C   UNL     1      -3.238  -1.273  25.870  0.00  0.00    +0.090 C 
ATOM      2  N   UNL     1      -3.571  -1.467  25.141  0.00  0.00    -0.265 NA
ATOM      3  C   UNL     1      -3.551  -2.208  24.781  0.00  0.00    +0.073 C 
ATOM      4  C   UNL     1      -3.951  -2.153  24.061  0.00  0.00    +0.019 C 
ATOM      5  C   UNL     1      -4.217  -1.377  23.977  0.00  0.00    +0.027 C 
ATOM      6  C   UNL     1      -3.983  -0.953  24.645  0.00  0.00    +0.138 C 
ENDBRANCH   7   6
BRANCH   9  12
ATOM     12  C   UNL     1      -3.883   1.947  24.509  0.00  0.00    +0.043 A 
ATOM     13  C   UNL     1      -4.358   2.364  23.979  0.00  0.00    +0.024 A 
ATOM     14  C   UNL     1      -4.154   3.133  23.759  0.00  0.00    +0.100 A 
ATOM     15  N   UNL     1      -3.475   3.484  24.070  0.00  0.00    -0.229 NA
ATOM     16  C   UNL     1      -3.000   3.066  24.600  0.00  0.00    +0.132 A 
ATOM     17  C   UNL     1      -3.204   2.297  24.819  0.00  0.00    +0.037 A 
BRANCH  16  18
ATOM     18  N   UNL     1      -2.321   3.417  24.910  0.00  0.00    -0.293 N 
ATOM     19  C   UNL     1      -2.299   3.984  25.510  0.00  0.00    +0.092 C 
ATOM     20  C   UNL     1      -1.509   4.180  25.646  0.00  0.00    +0.023 C 
ATOM     21  C   UNL     1      -1.043   3.735  25.130  0.00  0.00    +0.023 C 
ATOM     22  C   UNL     1      -1.545   3.264  24.676  0.00  0.00    +0.092 C 
ENDBRANCH  16  18
ENDBRANCH   9  12
TORSDOF 3
ENDMDL
MODEL 2
REMARK VINA RESULT:     -10.6      1.097      4.542
REMARK  Name = 
REMARK  3 active torsions:
REMARK  status: ('A' for Active; 'I' for Inactive)
REMARK    1  A    between atoms: C_6  and  C_7
REMARK    2  A    between atoms: C_9  and  C_12
REMARK    3  A    between atoms: C_16  and  N_18
REMARK                            x       y       z     vdW  Elec       q    Type
REMARK                         _______ _______ _______ _____ _____    ______ ____
ROOT
ATOM      7  C   UNL     1      -2.572   3.146  24.491  0.00  0.00    +0.251 A 
ATOM      8  N   UNL     1      -2.975   2.589  24.947  0.00  0.00    -0.190 NA
ATOM      9  C   UNL     1      -3.489   2.177  24.451  0.00  0.00    +0.203 A 
ATOM     10  N   UNL     1      -3.404   2.478  23.689  0.00  0.00    -0.056 NA
ATOM     11  O   UNL     1      -2.838   3.077  23.713  0.00  0.00    -0.336 OA
ENDROOT
BRANCH   7   6
ATOM      1  C   UNL     1      -0.794   2.936  24.384  0.00  0.00    +0.090 C 
ATOM      2  N   UNL     1      -1.187   3.581  24.715  0.00  0.00    -0.265 NA
ATOM      3  C   UNL     1      -0.830   4.242  25.055  0.00  0.00    +0.073 C 
ATOM      4  C   UNL     1      -1.428   4.748  25.315  0.00  0.00    +0.019 C 
ATOM      5  C   UNL     1      -2.153   4.399  25.135  0.00  0.00    +0.027 C 
ATOM      6  C   UNL     1      -2.004   3.677  24.764  0.00  0.00    +0.138 C 
ENDBRANCH   7   6
BRANCH   9  12
ATOM     12  C   UNL     1      -3.999   1.569  24.679  0.00  0.00    +0.043 A 
ATOM     13  C   UNL     1      -4.753   1.748  24.961  0.00  0.00    +0.024 A 
ATOM     14  C   UNL     1      -5.263   1.140  25.188  0.00  0.00    +0.100 A 
ATOM     15  N   UNL     1      -5.019   0.354  25.134  0.00  0.00    -0.229 NA
ATOM     16  C   UNL     1      -4.264   0.175  24.852  0.00  0.00    +0.132 A 
ATOM     17  C   UNL     1      -3.754   0.783  24.624  0.00  0.00    +0.037 A 
BRANCH  16  18
ATOM     18  N   UNL     1      -4.019  -0.611  24.797  0.00  0.00    -0.293 N 
ATOM     19  C   UNL     1      -3.612  -1.033  25.377  0.00  0.00    +0.092 C 
ATOM     20  C   UNL     1      -3.480  -1.796  25.091  0.00  0.00    +0.023 C 
ATOM     21  C   UNL     1      -3.806  -1.844  24.334  0.00  0.00    +0.023 C 
ATOM     22  C   UNL     1      -4.139  -1.112  24.153  0.00  0.00    +0.092 C 
ENDBRANCH  16  18
ENDBRANCH   9  12
TORSDOF 3
ENDMDL
MODEL 3
REMARK VINA RESULT:     -10.1      1.623      2.113
REMARK  Name = 
REMARK  3 active torsions:
REMARK  status: ('A' for Active; 'I' for Inactive)
REMARK    1  A    between atoms: C_6  and  C_7
REMARK    2  A    between atoms: C_9  and  C_12
REMARK    3  A    between atoms: C_16  and  N_18
REMARK                            x       y       z     vdW  Elec       q    Type
REMARK                         _______ _______ _______ _____ _____    ______ ____
ROOT
ATOM      7  C   UNL     1      -2.828  -0.814  24.706  0.00  0.00    +0.251 A 
ATOM      8  N   UNL     1      -3.250  -0.229  24.303  0.00  0.00    -0.190 NA
ATOM      9  C   UNL     1      -2.956   0.504  24.538  0.00  0.00    +0.203 A 
ATOM     10  N   UNL     1      -2.354   0.374  25.086  0.00  0.00    -0.056 NA
ATOM     11  O   UNL     1      -2.275  -0.440  25.190  0.00  0.00    -0.336 OA
ENDROOT
BRANCH   7   6
ATOM      1  C   UNL     1      -1.544  -2.038  24.446  0.00  0.00    +0.090 C 
ATOM      2  N   UNL     1      -2.351  -2.190  24.517  0.00  0.00    -0.265 NA
ATOM      3  C   UNL     1      -2.709  -2.933  24.481  0.00  0.00    +0.073 C 
ATOM      4  C   UNL     1      -3.522  -2.829  24.578  0.00  0.00    +0.019 C 
ATOM      5  C   UNL     1      -3.666  -2.022  24.674  0.00  0.00    +0.027 C 
ATOM      6  C   UNL     1      -2.941  -1.628  24.636  0.00  0.00    +0.138 C 
ENDBRANCH   7   6
BRANCH   9  12
ATOM     12  C   UNL     1      -3.219   1.240  24.272  0.00  0.00    +0.043 A 
ATOM     13  C   UNL     1      -2.940   1.543  23.557  0.00  0.00    +0.024 A 
ATOM     14  C   UNL     1      -3.203   2.279  23.291  0.00  0.00    +0.100 A 
ATOM     15  N   UNL     1      -3.744   2.711  23.740  0.00  0.00    -0.229 NA
ATOM     16  C   UNL     1      -4.023   2.407  24.454  0.00  0.00    +0.132 A 
ATOM     17  C   UNL     1      -3.760   1.672  24.721  0.00  0.00    +0.037 A 
BRANCH  16  18
ATOM     18  N   UNL     1      -4.565   2.839  24.903  0.00  0.00    -0.293 N 
ATOM     19  C   UNL     1      -4.438   3.587  25.226  0.00  0.00    +0.092 C 
ATOM     20  C   UNL     1      -5.123   3.808  25.630  0.00  0.00    +0.023 C 
ATOM     21  C   UNL     1      -5.672   3.197  25.556  0.00  0.00    +0.023 C 
ATOM     22  C   UNL     1      -5.327   2.598  25.106  0.00  0.00    +0.092 C 
ENDBRANCH  16  18
ENDBRANCH   9  12
TORSDOF 3
ENDMDL
MODEL 4
REMARK VINA RESULT:     -10.0      1.489      4.564
REMARK  Name = 
REMARK  3 active torsions:
REMARK  status: ('A' for Active; 'I' for Inactive)
REMARK    1  A    between atoms: C_6  and  C_7
REMARK    2  A    between atoms: C_9  and  C_12
REMARK    3  A    between atoms: C_16  and  N_18
REMARK                            x       y       z     vdW  Elec       q    Type
REMARK                         _______ _______ _______ _____ _____    ______ ____
ROOT
ATOM      7  C   UNL     1      -4.138   2.174  24.615  0.00  0.00    +0.251 A 
ATOM      8  N   UNL     1      -3.777   1.504  24.936  0.00  0.00    -0.190 NA
ATOM      9  C   UNL     1      -3.331   1.146  24.342  0.00  0.00    +0.203 A 
ATOM     10  N   UNL     1      -3.415   1.594  23.655  0.00  0.00    -0.056 NA
ATOM     11  O   UNL     1      -3.912   2.229  23.824  0.00  0.00    -0.336 OA
ENDROOT
BRANCH   7   6
ATOM      1  C   UNL     1      -3.678   3.786  25.254  0.00  0.00    +0.090 C 
ATOM      2  N   UNL     1      -4.424   3.436  25.310  0.00  0.00    -0.265 NA
ATOM      3  C   UNL     1      -5.088   3.768  25.670  0.00  0.00    +0.073 C 
ATOM      4  C   UNL     1      -5.710   3.230  25.598  0.00  0.00    +0.019 C 
ATOM      5  C   UNL     1      -5.430   2.568  25.195  0.00  0.00    +0.027 C 
ATOM      6  C   UNL     1      -4.634   2.696  25.016  0.00  0.00    +0.138 C 
ENDBRANCH   7   6
BRANCH   9  12
ATOM     12  C   UNL     1      -2.879   0.460  24.421  0.00  0.00    +0.043 A 
ATOM     13  C   UNL     1      -2.060   0.512  24.498  0.00  0.00    +0.024 A 
ATOM     14  C   UNL     1      -1.608  -0.174  24.578  0.00  0.00    +0.100 A 
ATOM     15  N   UNL     1      -1.977  -0.912  24.580  0.00  0.00    -0.229 NA
ATOM     16  C   UNL     1      -2.796  -0.965  24.503  0.00  0.00    +0.132 A 
ATOM     17  C   UNL     1      -3.248  -0.278  24.423  0.00  0.00    +0.037 A 
BRANCH  16  18
ATOM     18  N   UNL     1      -3.165  -1.703  24.505  0.00  0.00    -0.293 N 
ATOM     19  C   UNL     1      -3.720  -1.969  23.956  0.00  0.00    +0.092 C 
ATOM     20  C   UNL     1      -3.941  -2.735  24.169  0.00  0.00    +0.023 C 
ATOM     21  C   UNL     1      -3.522  -2.942  24.849  0.00  0.00    +0.023 C 
ATOM     22  C   UNL     1      -3.043  -2.304  25.056  0.00  0.00    +0.092 C 
ENDBRANCH  16  18
ENDBRANCH   9  12
TORSDOF 3
ENDMDL
MODEL 5
REMARK VINA RESULT:     -10.0      1.957      5.037
REMARK  Name = 
REMARK  3 active torsions:
REMARK  status: ('A' for Active; 'I' for Inactive)
REMARK    1  A    between atoms: C_6  and  C_7
REMARK    2  A    between atoms: C_9  and  C_12
REMARK    3  A    between atoms: C_16  and  N_18
REMARK                            x       y       z     vdW  Elec       q    Type
REMARK                         _______ _______ _______ _____ _____    ______ ____
ROOT
ATOM      7  C   UNL     1      -1.056   3.029  25.478  0.00  0.00    +0.251 A 
ATOM      8  N   UNL     1      -1.259   2.392  24.994  0.00  0.00    -0.190 NA
ATOM      9  C   UNL     1      -0.989   1.702  25.355  0.00  0.00    +0.203 A 
ATOM     10  N   UNL     1      -0.620   1.911  26.061  0.00  0.00    -0.056 NA
ATOM     11  O   UNL     1      -0.661   2.731  26.137  0.00  0.00    -0.336 OA
ENDROOT
BRANCH   7   6
ATOM      1  C   UNL     1      -2.538   3.911  25.971  0.00  0.00    +0.090 C 
ATOM      2  N   UNL     1      -1.901   4.229  25.555  0.00  0.00    -0.265 NA
ATOM      3  C   UNL     1      -1.835   5.008  25.292  0.00  0.00    +0.073 C 
ATOM      4  C   UNL     1      -1.111   5.084  24.902  0.00  0.00    +0.019 C 
ATOM      5  C   UNL     1      -0.731   4.352  24.925  0.00  0.00    +0.027 C 
ATOM      6  C   UNL     1      -1.220   3.823  25.328  0.00  0.00    +0.138 C 
ENDBRANCH   7   6
BRANCH   9  12
ATOM     12  C   UNL     1      -1.074   0.935  25.060  0.00  0.00    +0.043 A 
ATOM     13  C   UNL     1      -0.447   0.575  24.663  0.00  0.00    +0.024 A 
ATOM     14  C   UNL     1      -0.532  -0.191  24.368  0.00  0.00    +0.100 A 
ATOM     15  N   UNL     1      -1.244  -0.596  24.471  0.00  0.00    -0.229 NA
ATOM     16  C   UNL     1      -1.870  -0.236  24.869  0.00  0.00    +0.132 A 
ATOM     17  C   UNL     1      -1.785   0.530  25.163  0.00  0.00    +0.037 A 
BRANCH  16  18
ATOM     18  N   UNL     1      -2.581  -0.641  24.972  0.00  0.00    -0.293 N 
ATOM     19  C   UNL     1      -3.206  -0.669  24.433  0.00  0.00    +0.092 C 
ATOM     20  C   UNL     1      -3.803  -1.135  24.761  0.00  0.00    +0.023 C 
ATOM     21  C   UNL     1      -3.548  -1.394  25.501  0.00  0.00    +0.023 C 
ATOM     22  C   UNL     1      -2.793  -1.089  25.631  0.00  0.00    +0.092 C 
ENDBRANCH  16  18
ENDBRANCH   9  12
TORSDOF 3
ENDMDL
