MODEL 1
REMARK VINA RESULT:      -9.4      0.000      0.000
REMARK  Name = 
REMARK  8 active torsions:
REMARK  status: ('A' for Active; 'I' for Inactive)
REMARK    1  A    between atoms: N_6  and  C_7
REMARK    2  A    between atoms: C_7  and  C_8
REMARK    3  A    between atoms: C_11  and  C_14
REMARK    4  A    between atoms: C_22  and  C_23
REMARK    5  A    between atoms: C_23  and  C_24
REMARK    6  A    between atoms: C_24  and  C_25
REMARK    7  A    between atoms: N_27  and  C_28
REMARK    8  A    between atoms: C_28  and  C_29
REMARK                            x       y       z     vdW  Elec       q    Type
REMARK                         _______ _______ _______ _____ _____    ______ ____
ROOT
ATOM      1  C   UNL     1      -0.797   0.148  23.993  0.00  0.00    +0.090 C 
ATOM      2  N   UNL     1      -0.668   0.960  24.056  0.00  0.00    -0.271 NA
ATOM      3  C   UNL     1      -1.316   1.409  24.298  0.00  0.00    +0.083 C 
ATOM      4  C   UNL     1      -2.055   1.085  24.470  0.00  0.00    +0.035 C 
ATOM      5  C   UNL     1      -2.559   1.699  24.691  0.00  0.00    +0.074 C 
ATOM      6  N   UNL     1      -2.132   2.405  24.655  0.00  0.00    -0.262 NA
ATOM     17  C   UNL     1      -1.364   2.225  24.412  0.00  0.00    +0.151 C 
ATOM     18  C   UNL     1      -0.774   2.793  24.313  0.00  0.00    +0.257 C 
ATOM     19  O   UNL     1      -0.996   3.572  24.473  0.00  0.00    -0.272 OA
ATOM     20  N   UNL     1       0.008   2.687  24.075  0.00  0.00    -0.203 NA
ATOM     21  C   UNL     1       0.394   1.984  23.877  0.00  0.00    +0.131 C 
ATOM     22  C   UNL     1       0.094   1.217  23.869  0.00  0.00    +0.080 C 
ENDROOT
BRANCH   6   7
ATOM      7  C   UNL     1      -2.421   3.157  24.831  0.00  0.00    +0.100 C 
BRANCH   7   8
ATOM      8  C   UNL     1      -3.211   3.253  25.051  0.00  0.00    -0.006 A 
ATOM      9  C   UNL     1      -3.809   3.181  24.488  0.00  0.00    -0.003 A 
ATOM     10  C   UNL     1      -4.597   3.277  24.709  0.00  0.00    +0.006 A 
ATOM     11  C   UNL     1      -4.788   3.445  25.494  0.00  0.00    +0.080 A 
ATOM     12  C   UNL     1      -4.190   3.516  26.058  0.00  0.00    +0.006 A 
ATOM     13  C   UNL     1      -3.402   3.420  25.837  0.00  0.00    -0.003 A 
BRANCH  11  14
ATOM     14  C   UNL     1      -5.578   3.541  25.715  0.00  0.00    +0.388 C 
ATOM     15  O   UNL     1      -6.020   2.888  25.959  0.00  0.00    -0.241 OA
ATOM     16  O   UNL     1      -5.924   4.289  25.692  0.00  0.00    -0.241 OA
ENDBRANCH  11  14
ENDBRANCH   7   8
ENDBRANCH   6   7
BRANCH  22  23
ATOM     23  C   UNL     1       0.624   0.626  23.644  0.00  0.00    +0.027 C 
BRANCH  23  24
ATOM     24  C   UNL     1       1.238   0.800  23.120  0.00  0.00    +0.088 C 
BRANCH  24  25
ATOM     25  C   UNL     1       1.795   0.221  22.931  0.00  0.00    +0.242 C 
ATOM     26  O   UNL     1       1.551  -0.491  22.593  0.00  0.00    -0.273 OA
ATOM     27  N   UNL     1       2.595   0.355  23.079  0.00  0.00    -0.201 NA
BRANCH  27  28
ATOM     28  C   UNL     1       3.152  -0.224  22.889  0.00  0.00    +0.141 C 
BRANCH  28  29
ATOM     29  C   UNL     1       3.932  -0.146  23.147  0.00  0.00    -0.000 A 
ATOM     30  C   UNL     1       4.349   0.549  22.995  0.00  0.00    -0.000 A 
ATOM     31  C   UNL     1       5.129   0.627  23.253  0.00  0.00    +0.029 A 
ATOM     32  C   UNL     1       5.492   0.009  23.662  0.00  0.00    +0.140 A 
ATOM     33  F   UNL     1       6.271   0.086  23.919  0.00  0.00    -0.204 F 
ATOM     34  C   UNL     1       5.074  -0.687  23.813  0.00  0.00    +0.029 A 
ATOM     35  C   UNL     1       4.294  -0.764  23.556  0.00  0.00    -0.000 A 
ENDBRANCH  28  29
ENDBRANCH  27  28
ENDBRANCH  24  25
ENDBRANCH  23  24
ENDBRANCH  22  23
TORSDOF 8
ENDMDL
MODEL 2
REMARK VINA RESULT:      -7.7      2.721      7.616
REMARK  Name = 
REMARK  8 active torsions:
REMARK  status: ('A' for Active; 'I' for Inactive)
REMARK    1  A    between atoms: N_6  and  C_7
REMARK    2  A    between atoms: C_7  and  C_8
REMARK    3  A    between atoms: C_11  and  C_14
REMARK    4  A    between atoms: C_22  and  C_23
REMARK    5  A    between atoms: C_23  and  C_24
REMARK    6  A    between atoms: C_24  and  C_25
REMARK    7  A    between atoms: N_27  and  C_28
REMARK    8  A    between atoms: C_28  and  C_29
REMARK                            x       y       z     vdW  Elec       q    Type
REMARK                         _______ _______ _______ _____ _____    ______ ____
ROOT
ATOM      1  C   UNL     1      -0.536   1.608  24.795  0.00  0.00    +0.090 C 
ATOM      2  N   UNL     1      -0.381   0.965  24.302  0.00  0.00    -0.271 NA
ATOM      3  C   UNL     1       0.368   0.950  23.957  0.00  0.00    +0.083 C 
ATOM      4  C   UNL     1       0.939   1.532  24.085  0.00  0.00    +0.035 C 
ATOM      5  C   UNL     1       1.611   1.330  23.652  0.00  0.00    +0.074 C 
ATOM      6  N   UNL     1       1.456   0.623  23.255  0.00  0.00    -0.262 NA
ATOM     17  C   UNL     1       0.687   0.388  23.444  0.00  0.00    +0.151 C 
ATOM     18  C   UNL     1       0.336  -0.297  23.150  0.00  0.00    +0.257 C 
ATOM     19  O   UNL     1       0.803  -0.750  22.642  0.00  0.00    -0.272 OA
ATOM     20  N   UNL     1      -0.421  -0.590  23.295  0.00  0.00    -0.203 NA
ATOM     21  C   UNL     1      -1.014  -0.270  23.771  0.00  0.00    +0.131 C 
ATOM     22  C   UNL     1      -0.997   0.422  24.219  0.00  0.00    +0.080 C 
ENDROOT
BRANCH   6   7
ATOM      7  C   UNL     1       1.977   0.221  22.757  0.00  0.00    +0.100 C 
BRANCH   7   8
ATOM      8  C   UNL     1       2.789   0.253  22.899  0.00  0.00    -0.006 A 
ATOM      9  C   UNL     1       3.228   0.902  22.640  0.00  0.00    -0.003 A 
ATOM     10  C   UNL     1       4.040   0.933  22.783  0.00  0.00    +0.006 A 
ATOM     11  C   UNL     1       4.412   0.316  23.184  0.00  0.00    +0.080 A 
ATOM     12  C   UNL     1       3.973  -0.333  23.443  0.00  0.00    +0.006 A 
ATOM     13  C   UNL     1       3.162  -0.364  23.300  0.00  0.00    -0.003 A 
BRANCH  11  14
ATOM     14  C   UNL     1       5.225   0.347  23.326  0.00  0.00    +0.388 C 
ATOM     15  O   UNL     1       5.516   0.791  23.958  0.00  0.00    -0.241 OA
ATOM     16  O   UNL     1       5.746  -0.064  22.836  0.00  0.00    -0.241 OA
ENDBRANCH  11  14
ENDBRANCH   7   8
ENDBRANCH   6   7
BRANCH  22  23
ATOM     23  C   UNL     1      -1.685   0.594  24.640  0.00  0.00    +0.027 C 
BRANCH  23  24
ATOM     24  C   UNL     1      -2.423   0.429  24.311  0.00  0.00    +0.088 C 
BRANCH  24  25
ATOM     25  C   UNL     1      -3.102   0.469  24.778  0.00  0.00    +0.242 C 
ATOM     26  O   UNL     1      -3.299  -0.161  25.273  0.00  0.00    -0.273 OA
ATOM     27  N   UNL     1      -3.583   1.138  24.751  0.00  0.00    -0.201 NA
BRANCH  27  28
ATOM     28  C   UNL     1      -4.262   1.177  25.218  0.00  0.00    +0.141 C 
BRANCH  28  29
ATOM     29  C   UNL     1      -4.672   1.889  25.291  0.00  0.00    -0.000 A 
ATOM     30  C   UNL     1      -4.261   2.603  25.302  0.00  0.00    -0.000 A 
ATOM     31  C   UNL     1      -4.671   3.315  25.375  0.00  0.00    +0.029 A 
ATOM     32  C   UNL     1      -5.493   3.313  25.436  0.00  0.00    +0.140 A 
ATOM     33  F   UNL     1      -5.904   4.024  25.509  0.00  0.00    -0.204 F 
ATOM     34  C   UNL     1      -5.906   2.598  25.425  0.00  0.00    +0.029 A 
ATOM     35  C   UNL     1      -5.495   1.886  25.352  0.00  0.00    -0.000 A 
ENDBRANCH  28  29
ENDBRANCH  27  28
ENDBRANCH  24  25
ENDBRANCH  23  24
ENDBRANCH  22  23
TORSDOF 8
ENDMDL
MODEL 3
REMARK VINA RESULT:      -7.0     15.429     16.556
REMARK  Name = 
REMARK  8 active torsions:
REMARK  status: ('A' for Active; 'I' for Inactive)
REMARK    1  A    between atoms: N_6  and  C_7
REMARK    2  A    between atoms: C_7  and  C_8
REMARK    3  A    between atoms: C_11  and  C_14
REMARK    4  A    between atoms: C_22  and  C_23
REMARK    5  A    between atoms: C_23  and  C_24
REMARK    6  A    between atoms: C_24  and  C_25
REMARK    7  A    between atoms: N_27  and  C_28
REMARK    8  A    between atoms: C_28  and  C_29
REMARK                            x       y       z     vdW  Elec       q    Type
REMARK                         _______ _______ _______ _____ _____    ______ ____
ROOT
ATOM      1  C   UNL     1      -5.558 -10.697  13.541  0.00  0.00    +0.090 C 
ATOM      2  N   UNL     1      -5.225 -10.571  14.285  0.00  0.00    -0.271 NA
ATOM      3  C   UNL     1      -5.760 -10.469  14.904  0.00  0.00    +0.083 C 
ATOM      4  C   UNL     1      -6.579 -10.489  14.806  0.00  0.00    +0.035 C 
ATOM      5  C   UNL     1      -6.927 -10.367  15.543  0.00  0.00    +0.074 C 
ATOM      6  N   UNL     1      -6.324 -10.271  16.098  0.00  0.00    -0.262 NA
ATOM     17  C   UNL     1      -5.602 -10.335  15.703  0.00  0.00    +0.151 C 
ATOM     18  C   UNL     1      -4.872 -10.269  16.079  0.00  0.00    +0.257 C 
ATOM     19  O   UNL     1      -4.898 -10.132  16.893  0.00  0.00    -0.272 OA
ATOM     20  N   UNL     1      -4.117 -10.321  15.750  0.00  0.00    -0.203 NA
ATOM     21  C   UNL     1      -3.907 -10.452  14.963  0.00  0.00    +0.131 C 
ATOM     22  C   UNL     1      -4.400 -10.563  14.311  0.00  0.00    +0.080 C 
ENDROOT
BRANCH   6   7
ATOM      7  C   UNL     1      -6.425 -10.136  16.906  0.00  0.00    +0.100 C 
BRANCH   7   8
ATOM      8  C   UNL     1      -7.185 -10.107  17.226  0.00  0.00    -0.006 A 
ATOM      9  C   UNL     1      -7.615  -9.403  17.204  0.00  0.00    -0.003 A 
ATOM     10  C   UNL     1      -8.375  -9.375  17.525  0.00  0.00    +0.006 A 
ATOM     11  C   UNL     1      -8.703 -10.050  17.868  0.00  0.00    +0.080 A 
ATOM     12  C   UNL     1      -8.272 -10.753  17.890  0.00  0.00    +0.006 A 
ATOM     13  C   UNL     1      -7.513 -10.781  17.570  0.00  0.00    -0.003 A 
BRANCH  11  14
ATOM     14  C   UNL     1      -9.463 -10.021  18.189  0.00  0.00    +0.388 C 
ATOM     15  O   UNL     1      -9.610 -10.349  18.932  0.00  0.00    -0.241 OA
ATOM     16  O   UNL     1     -10.076  -9.664  17.768  0.00  0.00    -0.241 OA
ENDBRANCH  11  14
ENDBRANCH   7   8
ENDBRANCH   6   7
BRANCH  22  23
ATOM     23  C   UNL     1      -4.018 -10.683  13.589  0.00  0.00    +0.027 C 
BRANCH  23  24
ATOM     24  C   UNL     1      -3.305 -10.302  13.431  0.00  0.00    +0.088 C 
BRANCH  24  25
ATOM     25  C   UNL     1      -2.934 -10.403  12.701  0.00  0.00    +0.242 C 
ATOM     26  O   UNL     1      -2.202 -10.781  12.659  0.00  0.00    -0.273 OA
ATOM     27  N   UNL     1      -3.296 -10.128  12.013  0.00  0.00    -0.201 NA
BRANCH  27  28
ATOM     28  C   UNL     1      -2.925 -10.230  11.282  0.00  0.00    +0.141 C 
BRANCH  28  29
ATOM     29  C   UNL     1      -3.297  -9.975  10.592  0.00  0.00    -0.000 A 
ATOM     30  C   UNL     1      -3.753 -10.501  10.151  0.00  0.00    -0.000 A 
ATOM     31  C   UNL     1      -4.125 -10.246   9.460  0.00  0.00    +0.029 A 
ATOM     32  C   UNL     1      -4.041  -9.464   9.210  0.00  0.00    +0.140 A 
ATOM     33  F   UNL     1      -4.412  -9.208   8.520  0.00  0.00    -0.204 F 
ATOM     34  C   UNL     1      -3.584  -8.937   9.652  0.00  0.00    +0.029 A 
ATOM     35  C   UNL     1      -3.212  -9.193  10.343  0.00  0.00    -0.000 A 
ENDBRANCH  28  29
ENDBRANCH  27  28
ENDBRANCH  24  25
ENDBRANCH  23  24
ENDBRANCH  22  23
TORSDOF 8
ENDMDL
MODEL 4
REMARK VINA RESULT:      -6.8      3.794      6.321
REMARK  Name = 
REMARK  8 active torsions:
REMARK  status: ('A' for Active; 'I' for Inactive)
REMARK    1  A    between atoms: N_6  and  C_7
REMARK    2  A    between atoms: C_7  and  C_8
REMARK    3  A    between atoms: C_11  and  C_14
REMARK    4  A    between atoms: C_22  and  C_23
REMARK    5  A    between atoms: C_23  and  C_24
REMARK    6  A    between atoms: C_24  and  C_25
REMARK    7  A    between atoms: N_27  and  C_28
REMARK    8  A    between atoms: C_28  and  C_29
REMARK                            x       y       z     vdW  Elec       q    Type
REMARK                         _______ _______ _______ _____ _____    ______ ____
ROOT
ATOM      1  C   UNL     1      -0.717   2.247  23.675  0.00  0.00    +0.090 C 
ATOM      2  N   UNL     1      -0.696   1.851  24.398  0.00  0.00    -0.271 NA
ATOM      3  C   UNL     1      -0.849   1.041  24.368  0.00  0.00    +0.083 C 
ATOM      4  C   UNL     1      -1.015   0.635  23.669  0.00  0.00    +0.035 C 
ATOM      5  C   UNL     1      -1.137  -0.159  23.857  0.00  0.00    +0.074 C 
ATOM      6  N   UNL     1      -1.046  -0.244  24.673  0.00  0.00    -0.262 NA
ATOM     17  C   UNL     1      -0.869   0.497  24.989  0.00  0.00    +0.151 C 
ATOM     18  C   UNL     1      -0.740   0.630  25.792  0.00  0.00    +0.257 C 
ATOM     19  O   UNL     1      -0.798  -0.034  26.279  0.00  0.00    -0.272 OA
ATOM     20  N   UNL     1      -0.559   1.338  26.174  0.00  0.00    -0.203 NA
ATOM     21  C   UNL     1      -0.463   2.090  25.846  0.00  0.00    +0.131 C 
ATOM     22  C   UNL     1      -0.524   2.318  25.057  0.00  0.00    +0.080 C 
ENDROOT
BRANCH   6   7
ATOM      7  C   UNL     1      -1.121  -0.947  25.099  0.00  0.00    +0.100 C 
BRANCH   7   8
ATOM      8  C   UNL     1      -1.740  -1.466  24.932  0.00  0.00    -0.006 A 
ATOM      9  C   UNL     1      -1.602  -2.143  24.481  0.00  0.00    -0.003 A 
ATOM     10  C   UNL     1      -2.222  -2.661  24.315  0.00  0.00    +0.006 A 
ATOM     11  C   UNL     1      -2.980  -2.501  24.599  0.00  0.00    +0.080 A 
ATOM     12  C   UNL     1      -3.118  -1.824  25.049  0.00  0.00    +0.006 A 
ATOM     13  C   UNL     1      -2.498  -1.306  25.216  0.00  0.00    -0.003 A 
BRANCH  11  14
ATOM     14  C   UNL     1      -3.601  -3.020  24.432  0.00  0.00    +0.388 C 
ATOM     15  O   UNL     1      -4.126  -2.850  23.819  0.00  0.00    -0.241 OA
ATOM     16  O   UNL     1      -3.695  -3.707  24.879  0.00  0.00    -0.241 OA
ENDBRANCH  11  14
ENDBRANCH   7   8
ENDBRANCH   6   7
BRANCH  22  23
ATOM     23  C   UNL     1      -0.396   3.118  24.903  0.00  0.00    +0.027 C 
BRANCH  23  24
ATOM     24  C   UNL     1      -0.612   3.685  25.462  0.00  0.00    +0.088 C 
BRANCH  24  25
ATOM     25  C   UNL     1      -1.237   4.201  25.307  0.00  0.00    +0.242 C 
ATOM     26  O   UNL     1      -1.089   4.938  24.967  0.00  0.00    -0.273 OA
ATOM     27  N   UNL     1      -2.010   3.981  25.492  0.00  0.00    -0.201 NA
BRANCH  27  28
ATOM     28  C   UNL     1      -2.635   4.497  25.338  0.00  0.00    +0.141 C 
BRANCH  28  29
ATOM     29  C   UNL     1      -3.410   4.217  25.336  0.00  0.00    -0.000 A 
ATOM     30  C   UNL     1      -3.793   4.057  26.049  0.00  0.00    -0.000 A 
ATOM     31  C   UNL     1      -4.569   3.777  26.048  0.00  0.00    +0.029 A 
ATOM     32  C   UNL     1      -4.962   3.657  25.333  0.00  0.00    +0.140 A 
ATOM     33  F   UNL     1      -5.738   3.377  25.330  0.00  0.00    -0.204 F 
ATOM     34  C   UNL     1      -4.580   3.817  24.619  0.00  0.00    +0.029 A 
ATOM     35  C   UNL     1      -3.804   4.096  24.621  0.00  0.00    -0.000 A 
ENDBRANCH  28  29
ENDBRANCH  27  28
ENDBRANCH  24  25
ENDBRANCH  23  24
ENDBRANCH  22  23
TORSDOF 8
ENDMDL
MODEL 5
REMARK VINA RESULT:      -5.9     15.033     15.959
REMARK  Name = 
REMARK  8 active torsions:
REMARK  status: ('A' for Active; 'I' for Inactive)
REMARK    1  A    between atoms: N_6  and  C_7
REMARK    2  A    between atoms: C_7  and  C_8
REMARK    3  A    between atoms: C_11  and  C_14
REMARK    4  A    between atoms: C_22  and  C_23
REMARK    5  A    between atoms: C_23  and  C_24
REMARK    6  A    between atoms: C_24  and  C_25
REMARK    7  A    between atoms: N_27  and  C_28
REMARK    8  A    between atoms: C_28  and  C_29
REMARK                            x       y       z     vdW  Elec       q    Type
REMARK                         _______ _______ _______ _____ _____    ______ ____
ROOT
ATOM      1  C   UNL     1      -5.034  -9.974  12.847  0.00  0.00    +0.090 C 
ATOM      2  N   UNL     1      -4.727 -10.204  13.577  0.00  0.00    -0.271 NA
ATOM      3  C   UNL     1      -5.253 -10.173  14.212  0.00  0.00    +0.083 C 
ATOM      4  C   UNL     1      -6.038  -9.931  14.141  0.00  0.00    +0.035 C 
ATOM      5  C   UNL     1      -6.387  -9.973  14.887  0.00  0.00    +0.074 C 
ATOM      6  N   UNL     1      -5.817 -10.241  15.420  0.00  0.00    -0.262 NA
ATOM     17  C   UNL     1      -5.116 -10.365  15.003  0.00  0.00    +0.151 C 
ATOM     18  C   UNL     1      -4.421 -10.635  15.354  0.00  0.00    +0.257 C 
ATOM     19  O   UNL     1      -4.461 -10.780  16.165  0.00  0.00    -0.272 OA
ATOM     20  N   UNL     1      -3.689 -10.781  15.001  0.00  0.00    -0.203 NA
ATOM     21  C   UNL     1      -3.473 -10.691  14.209  0.00  0.00    +0.131 C 
ATOM     22  C   UNL     1      -3.935 -10.435  13.576  0.00  0.00    +0.080 C 
ENDROOT
BRANCH   6   7
ATOM      7  C   UNL     1      -5.929 -10.365  16.228  0.00  0.00    +0.100 C 
BRANCH   7   8
ATOM      8  C   UNL     1      -6.671 -10.234  16.566  0.00  0.00    -0.006 A 
ATOM      9  C   UNL     1      -7.278 -10.780  16.454  0.00  0.00    -0.003 A 
ATOM     10  C   UNL     1      -8.018 -10.649  16.792  0.00  0.00    +0.006 A 
ATOM     11  C   UNL     1      -8.152  -9.970  17.242  0.00  0.00    +0.080 A 
ATOM     12  C   UNL     1      -7.544  -9.424  17.354  0.00  0.00    +0.006 A 
ATOM     13  C   UNL     1      -6.804  -9.555  17.016  0.00  0.00    -0.003 A 
BRANCH  11  14
ATOM     14  C   UNL     1      -8.893  -9.839  17.580  0.00  0.00    +0.388 C 
ATOM     15  O   UNL     1      -9.410  -9.292  17.241  0.00  0.00    -0.241 OA
ATOM     16  O   UNL     1      -9.117 -10.253  18.257  0.00  0.00    -0.241 OA
ENDBRANCH  11  14
ENDBRANCH   7   8
ENDBRANCH   6   7
BRANCH  22  23
ATOM     23  C   UNL     1      -3.555 -10.405  12.844  0.00  0.00    +0.027 C 
BRANCH  23  24
ATOM     24  C   UNL     1      -2.733 -10.459  12.803  0.00  0.00    +0.088 C 
BRANCH  24  25
ATOM     25  C   UNL     1      -2.344 -10.303  12.093  0.00  0.00    +0.242 C 
ATOM     26  O   UNL     1      -2.600 -10.661  11.395  0.00  0.00    -0.273 OA
ATOM     27  N   UNL     1      -1.698  -9.790  12.079  0.00  0.00    -0.201 NA
BRANCH  27  28
ATOM     28  C   UNL     1      -1.309  -9.634  11.369  0.00  0.00    +0.141 C 
BRANCH  28  29
ATOM     29  C   UNL     1      -0.626  -9.172  11.365  0.00  0.00    -0.000 A 
ATOM     30  C   UNL     1      -0.532  -8.571  11.921  0.00  0.00    -0.000 A 
ATOM     31  C   UNL     1       0.151  -8.108  11.917  0.00  0.00    +0.029 A 
ATOM     32  C   UNL     1       0.740  -8.247  11.357  0.00  0.00    +0.140 A 
ATOM     33  F   UNL     1       1.423  -7.785  11.353  0.00  0.00    -0.204 F 
ATOM     34  C   UNL     1       0.646  -8.849  10.800  0.00  0.00    +0.029 A 
ATOM     35  C   UNL     1      -0.037  -9.311  10.805  0.00  0.00    -0.000 A 
ENDBRANCH  28  29
ENDBRANCH  27  28
ENDBRANCH  24  25
ENDBRANCH  23  24
ENDBRANCH  22  23
TORSDOF 8
ENDMDL
MODEL 6
REMARK VINA RESULT:      -5.5     15.453     16.879
REMARK  Name = 
REMARK  8 active torsions:
REMARK  status: ('A' for Active; 'I' for Inactive)
REMARK    1  A    between atoms: N_6  and  C_7
REMARK    2  A    between atoms: C_7  and  C_8
REMARK    3  A    between atoms: C_11  and  C_14
REMARK    4  A    between atoms: C_22  and  C_23
REMARK    5  A    between atoms: C_23  and  C_24
REMARK    6  A    between atoms: C_24  and  C_25
REMARK    7  A    between atoms: N_27  and  C_28
REMARK    8  A    between atoms: C_28  and  C_29
REMARK                            x       y       z     vdW  Elec       q    Type
REMARK                         _______ _______ _______ _____ _____    ______ ____
ROOT
ATOM      1  C   UNL     1      -5.838 -10.323  13.548  0.00  0.00    +0.090 C 
ATOM      2  N   UNL     1      -5.156 -10.445  13.996  0.00  0.00    -0.271 NA
ATOM      3  C   UNL     1      -5.261 -10.456  14.814  0.00  0.00    +0.083 C 
ATOM      4  C   UNL     1      -5.994 -10.354  15.180  0.00  0.00    +0.035 C 
ATOM      5  C   UNL     1      -5.881 -10.399  15.995  0.00  0.00    +0.074 C 
ATOM      6  N   UNL     1      -5.078 -10.529  16.135  0.00  0.00    -0.262 NA
ATOM     17  C   UNL     1      -4.695 -10.564  15.405  0.00  0.00    +0.151 C 
ATOM     18  C   UNL     1      -3.884 -10.688  15.323  0.00  0.00    +0.257 C 
ATOM     19  O   UNL     1      -3.462 -10.777  16.026  0.00  0.00    -0.272 OA
ATOM     20  N   UNL     1      -3.438 -10.734  14.630  0.00  0.00    -0.203 NA
ATOM     21  C   UNL     1      -3.694 -10.668  13.848  0.00  0.00    +0.131 C 
ATOM     22  C   UNL     1      -4.458 -10.539  13.566  0.00  0.00    +0.080 C 
ENDROOT
BRANCH   6   7
ATOM      7  C   UNL     1      -4.721 -10.609  16.874  0.00  0.00    +0.100 C 
BRANCH   7   8
ATOM      8  C   UNL     1      -5.184 -10.610  17.557  0.00  0.00    -0.006 A 
ATOM      9  C   UNL     1      -4.842 -10.439  18.288  0.00  0.00    -0.003 A 
ATOM     10  C   UNL     1      -5.305 -10.440  18.970  0.00  0.00    +0.006 A 
ATOM     11  C   UNL     1      -6.111 -10.611  18.921  0.00  0.00    +0.080 A 
ATOM     12  C   UNL     1      -6.453 -10.781  18.190  0.00  0.00    +0.006 A 
ATOM     13  C   UNL     1      -5.989 -10.780  17.508  0.00  0.00    -0.003 A 
BRANCH  11  14
ATOM     14  C   UNL     1      -6.575 -10.612  19.604  0.00  0.00    +0.388 C 
ATOM     15  O   UNL     1      -6.216 -10.596  20.347  0.00  0.00    -0.241 OA
ATOM     16  O   UNL     1      -7.398 -10.629  19.544  0.00  0.00    -0.241 OA
ENDBRANCH  11  14
ENDBRANCH   7   8
ENDBRANCH   6   7
BRANCH  22  23
ATOM     23  C   UNL     1      -4.536 -10.500  12.746  0.00  0.00    +0.027 C 
BRANCH  23  24
ATOM     24  C   UNL     1      -4.009 -10.046  12.302  0.00  0.00    +0.088 C 
BRANCH  24  25
ATOM     25  C   UNL     1      -4.033 -10.073  11.478  0.00  0.00    +0.242 C 
ATOM     26  O   UNL     1      -3.636 -10.674  11.075  0.00  0.00    -0.273 OA
ATOM     27  N   UNL     1      -4.451  -9.501  11.057  0.00  0.00    -0.201 NA
BRANCH  27  28
ATOM     28  C   UNL     1      -4.475  -9.529  10.233  0.00  0.00    +0.141 C 
BRANCH  28  29
ATOM     29  C   UNL     1      -5.067  -9.128   9.823  0.00  0.00    -0.000 A 
ATOM     30  C   UNL     1      -5.674  -9.551   9.459  0.00  0.00    -0.000 A 
ATOM     31  C   UNL     1      -6.268  -9.151   9.048  0.00  0.00    +0.029 A 
ATOM     32  C   UNL     1      -6.254  -8.327   9.003  0.00  0.00    +0.140 A 
ATOM     33  F   UNL     1      -6.846  -7.926   8.593  0.00  0.00    -0.204 F 
ATOM     34  C   UNL     1      -5.646  -7.904   9.367  0.00  0.00    +0.029 A 
ATOM     35  C   UNL     1      -5.053  -8.305   9.777  0.00  0.00    -0.000 A 
ENDBRANCH  28  29
ENDBRANCH  27  28
ENDBRANCH  24  25
ENDBRANCH  23  24
ENDBRANCH  22  23
TORSDOF 8
ENDMDL
