MODEL 1
REMARK VINA RESULT:     -11.0      0.000      0.000
REMARK  Name = 
REMARK  9 active torsions:
REMARK  status: ('A' for Active; 'I' for Inactive)
REMARK    1  A    between atoms: C_2  and  C_3
REMARK    2  A    between atoms: C_3  and  C_4
REMARK    3  A    between atoms: C_9  and  C_10
REMARK    4  A    between atoms: C_10  and  C_11
REMARK    5  A    between atoms: C_14  and  C_15
REMARK    6  A    between atoms: C_15  and  C_16
REMARK    7  A    between atoms: N_23  and  C_24
REMARK    8  A    between atoms: C_24  and  C_25
REMARK    9  A    between atoms: C_25  and  N_26
REMARK                            x       y       z     vdW  Elec       q    Type
REMARK                         _______ _______ _______ _____ _____    ______ ____
ROOT
ATOM      4  C   UNL     1      -4.880   2.452  25.038  0.00  0.00    +0.012 C 
ATOM      5  C   UNL     1      -5.489   2.163  25.513  0.00  0.00    +0.019 C 
ATOM      6  C   UNL     1      -5.824   2.646  26.092  0.00  0.00    +0.089 C 
ATOM      7  N   UNL     1      -5.550   3.417  26.196  0.00  0.00    -0.218 NA
ATOM      8  C   UNL     1      -4.940   3.706  25.721  0.00  0.00    +0.089 C 
ATOM      9  C   UNL     1      -4.605   3.223  25.141  0.00  0.00    +0.024 C 
ENDROOT
BRANCH   4   3
ATOM      3  C   UNL     1      -4.544   1.970  24.459  0.00  0.00    +0.087 C 
BRANCH   3   2
ATOM      1  O   UNL     1      -5.409   0.836  24.550  0.00  0.00    -0.273 OA
ATOM      2  C   UNL     1      -4.649   1.152  24.492  0.00  0.00    +0.241 C 
ATOM     23  N   UNL     1      -3.994   0.651  24.466  0.00  0.00    -0.204 NA
BRANCH  23  24
ATOM     24  C   UNL     1      -4.100  -0.167  24.499  0.00  0.00    +0.132 C 
BRANCH  24  25
ATOM     25  C   UNL     1      -3.470  -0.671  24.325  0.00  0.00    +0.096 C 
BRANCH  25  26
ATOM     26  N   UNL     1      -3.526  -1.476  24.500  0.00  0.00    -0.267 NA
ATOM     27  C   UNL     1      -3.266  -1.758  25.230  0.00  0.00    +0.105 C 
ATOM     28  C   UNL     1      -3.322  -2.563  25.405  0.00  0.00    +0.159 C 
ATOM     29  O   UNL     1      -3.637  -3.085  24.848  0.00  0.00    -0.351 OA
ATOM     30  C   UNL     1      -3.896  -2.801  24.118  0.00  0.00    +0.159 C 
ATOM     31  C   UNL     1      -3.840  -1.998  23.943  0.00  0.00    +0.105 C 
ENDBRANCH  25  26
ENDBRANCH  24  25
ENDBRANCH  23  24
ENDBRANCH   3   2
ENDBRANCH   4   3
BRANCH   9  10
ATOM     10  C   UNL     1      -3.996   3.511  24.667  0.00  0.00    +0.051 C 
BRANCH  10  11
ATOM     11  C   UNL     1      -3.302   3.795  25.012  0.00  0.00    +0.100 A 
ATOM     12  N   UNL     1      -3.251   4.226  25.715  0.00  0.00    -0.082 NA
ATOM     13  O   UNL     1      -2.455   4.395  25.852  0.00  0.00    -0.358 OA
ATOM     14  C   UNL     1      -2.015   4.070  25.235  0.00  0.00    +0.154 A 
ATOM     22  C   UNL     1      -2.539   3.699  24.716  0.00  0.00    +0.054 A 
BRANCH  14  15
ATOM     15  C   UNL     1      -1.195   4.108  25.152  0.00  0.00    +0.067 C 
BRANCH  15  16
ATOM     16  C   UNL     1      -0.738   3.429  25.252  0.00  0.00    +0.008 C 
ATOM     17  C   UNL     1      -0.556   3.162  26.011  0.00  0.00    +0.000 C 
ATOM     18  C   UNL     1      -0.098   2.482  26.111  0.00  0.00    +0.000 C 
ATOM     19  C   UNL     1       0.176   2.070  25.452  0.00  0.00    +0.000 C 
ATOM     20  C   UNL     1      -0.005   2.337  24.692  0.00  0.00    +0.000 C 
ATOM     21  C   UNL     1      -0.462   3.016  24.592  0.00  0.00    +0.000 C 
ENDBRANCH  15  16
ENDBRANCH  14  15
ENDBRANCH  10  11
ENDBRANCH   9  10
TORSDOF 9
ENDMDL
MODEL 2
REMARK VINA RESULT:     -10.9      1.573      3.602
REMARK  Name = 
REMARK  9 active torsions:
REMARK  status: ('A' for Active; 'I' for Inactive)
REMARK    1  A    between atoms: C_2  and  C_3
REMARK    2  A    between atoms: C_3  and  C_4
REMARK    3  A    between atoms: C_9  and  C_10
REMARK    4  A    between atoms: C_10  and  C_11
REMARK    5  A    between atoms: C_14  and  C_15
REMARK    6  A    between atoms: C_15  and  C_16
REMARK    7  A    between atoms: N_23  and  C_24
REMARK    8  A    between atoms: C_24  and  C_25
REMARK    9  A    between atoms: C_25  and  N_26
REMARK                            x       y       z     vdW  Elec       q    Type
REMARK                         _______ _______ _______ _____ _____    ______ ____
ROOT
ATOM      4  C   UNL     1      -0.477   1.082  25.096  0.00  0.00    +0.012 C 
ATOM      5  C   UNL     1      -0.222   0.647  24.442  0.00  0.00    +0.019 C 
ATOM      6  C   UNL     1       0.247   1.005  23.867  0.00  0.00    +0.089 C 
ATOM      7  N   UNL     1       0.463   1.798  23.944  0.00  0.00    -0.218 NA
ATOM      8  C   UNL     1       0.208   2.232  24.597  0.00  0.00    +0.089 C 
ATOM      9  C   UNL     1      -0.262   1.874  25.174  0.00  0.00    +0.024 C 
ENDROOT
BRANCH   4   3
ATOM      3  C   UNL     1      -0.947   0.724  25.672  0.00  0.00    +0.087 C 
BRANCH   3   2
ATOM      1  O   UNL     1      -0.719  -0.679  25.516  0.00  0.00    -0.273 OA
ATOM      2  C   UNL     1      -1.239  -0.039  25.550  0.00  0.00    +0.241 C 
ATOM     23  N   UNL     1      -2.050  -0.160  25.464  0.00  0.00    -0.204 NA
BRANCH  23  24
ATOM     24  C   UNL     1      -2.342  -0.923  25.342  0.00  0.00    +0.132 C 
BRANCH  24  25
ATOM     25  C   UNL     1      -3.153  -1.066  25.389  0.00  0.00    +0.096 C 
BRANCH  25  26
ATOM     26  N   UNL     1      -3.503  -1.621  24.888  0.00  0.00    -0.267 NA
ATOM     27  C   UNL     1      -3.998  -1.370  24.278  0.00  0.00    +0.105 C 
ATOM     28  C   UNL     1      -4.349  -1.925  23.777  0.00  0.00    +0.159 C 
ATOM     29  O   UNL     1      -4.203  -2.730  23.887  0.00  0.00    -0.351 OA
ATOM     30  C   UNL     1      -3.708  -2.980  24.497  0.00  0.00    +0.159 C 
ATOM     31  C   UNL     1      -3.358  -2.426  24.998  0.00  0.00    +0.105 C 
ENDBRANCH  25  26
ENDBRANCH  24  25
ENDBRANCH  23  24
ENDBRANCH   3   2
ENDBRANCH   4   3
BRANCH   9  10
ATOM     10  C   UNL     1      -0.517   2.308  25.826  0.00  0.00    +0.051 C 
BRANCH  10  11
ATOM     11  C   UNL     1      -0.942   3.008  25.716  0.00  0.00    +0.100 A 
ATOM     12  N   UNL     1      -0.641   3.717  25.421  0.00  0.00    -0.082 NA
ATOM     13  O   UNL     1      -1.255   4.268  25.405  0.00  0.00    -0.358 OA
ATOM     14  C   UNL     1      -1.936   3.898  25.690  0.00  0.00    +0.154 A 
ATOM     22  C   UNL     1      -1.742   3.120  25.883  0.00  0.00    +0.054 A 
BRANCH  14  15
ATOM     15  C   UNL     1      -2.680   4.247  25.769  0.00  0.00    +0.067 C 
BRANCH  15  16
ATOM     16  C   UNL     1      -3.333   3.916  25.391  0.00  0.00    +0.008 C 
ATOM     17  C   UNL     1      -3.413   3.980  24.573  0.00  0.00    +0.000 C 
ATOM     18  C   UNL     1      -4.067   3.648  24.194  0.00  0.00    +0.000 C 
ATOM     19  C   UNL     1      -4.640   3.252  24.634  0.00  0.00    +0.000 C 
ATOM     20  C   UNL     1      -4.561   3.187  25.453  0.00  0.00    +0.000 C 
ATOM     21  C   UNL     1      -3.907   3.519  25.832  0.00  0.00    +0.000 C 
ENDBRANCH  15  16
ENDBRANCH  14  15
ENDBRANCH  10  11
ENDBRANCH   9  10
TORSDOF 9
ENDMDL
MODEL 3
REMARK VINA RESULT:     -10.8      2.622      5.228
REMARK  Name = 
REMARK  9 active torsions:
REMARK  status: ('A' for Active; 'I' for Inactive)
REMARK    1  A    between atoms: C_2  and  C_3
REMARK    2  A    between atoms: C_3  and  C_4
REMARK    3  A    between atoms: C_9  and  C_10
REMARK    4  A    between atoms: C_10  and  C_11
REMARK    5  A    between atoms: C_14  and  C_15
REMARK    6  A    between atoms: C_15  and  C_16
REMARK    7  A    between atoms: N_23  and  C_24
REMARK    8  A    between atoms: C_24  and  C_25
REMARK    9  A    between atoms: C_25  and  N_26
REMARK                            x       y       z     vdW  Elec       q    Type
REMARK                         _______ _______ _______ _____ _____    ______ ____
ROOT
ATOM      4  C   UNL     1      -1.972  -1.430  24.945  0.00  0.00    +0.012 C 
ATOM      5  C   UNL     1      -1.810  -2.141  24.558  0.00  0.00    +0.019 C 
ATOM      6  C   UNL     1      -2.427  -2.650  24.357  0.00  0.00    +0.089 C 
ATOM      7  N   UNL     1      -3.206  -2.449  24.543  0.00  0.00    -0.218 NA
ATOM      8  C   UNL     1      -3.367  -1.739  24.930  0.00  0.00    +0.089 C 
ATOM      9  C   UNL     1      -2.749  -1.229  25.131  0.00  0.00    +0.024 C 
ENDROOT
BRANCH   4   3
ATOM      3  C   UNL     1      -1.355  -0.921  25.147  0.00  0.00    +0.087 C 
BRANCH   3   2
ATOM      1  O   UNL     1      -0.131  -1.609  24.882  0.00  0.00    -0.273 OA
ATOM      2  C   UNL     1      -0.633  -0.969  24.749  0.00  0.00    +0.241 C 
ATOM     23  N   UNL     1      -0.416  -0.377  24.217  0.00  0.00    -0.204 NA
BRANCH  23  24
ATOM     24  C   UNL     1       0.306  -0.426  23.819  0.00  0.00    +0.132 C 
BRANCH  24  25
ATOM     25  C   UNL     1       0.548   0.191  23.328  0.00  0.00    +0.096 C 
BRANCH  25  26
ATOM     26  N   UNL     1       1.264   0.138  22.921  0.00  0.00    -0.267 NA
ATOM     27  C   UNL     1       1.300  -0.267  22.203  0.00  0.00    +0.105 C 
ATOM     28  C   UNL     1       2.016  -0.320  21.796  0.00  0.00    +0.159 C 
ATOM     29  O   UNL     1       2.695   0.030  22.107  0.00  0.00    -0.351 OA
ATOM     30  C   UNL     1       2.658   0.435  22.825  0.00  0.00    +0.159 C 
ATOM     31  C   UNL     1       1.943   0.489  23.232  0.00  0.00    +0.105 C 
ENDBRANCH  25  26
ENDBRANCH  24  25
ENDBRANCH  23  24
ENDBRANCH   3   2
ENDBRANCH   4   3
BRANCH   9  10
ATOM     10  C   UNL     1      -2.910  -0.519  25.518  0.00  0.00    +0.051 C 
BRANCH  10  11
ATOM     11  C   UNL     1      -3.598  -0.098  25.340  0.00  0.00    +0.100 A 
ATOM     12  N   UNL     1      -4.356  -0.265  25.622  0.00  0.00    -0.082 NA
ATOM     13  O   UNL     1      -4.874   0.293  25.304  0.00  0.00    -0.358 OA
ATOM     14  C   UNL     1      -4.437   0.804  24.826  0.00  0.00    +0.154 A 
ATOM     22  C   UNL     1      -3.648   0.562  24.849  0.00  0.00    +0.054 A 
BRANCH  14  15
ATOM     15  C   UNL     1      -4.737   1.445  24.401  0.00  0.00    +0.067 C 
BRANCH  15  16
ATOM     16  C   UNL     1      -4.826   2.178  24.769  0.00  0.00    +0.008 C 
ATOM     17  C   UNL     1      -5.496   2.333  25.223  0.00  0.00    +0.000 C 
ATOM     18  C   UNL     1      -5.586   3.067  25.590  0.00  0.00    +0.000 C 
ATOM     19  C   UNL     1      -5.004   3.645  25.504  0.00  0.00    +0.000 C 
ATOM     20  C   UNL     1      -4.333   3.490  25.049  0.00  0.00    +0.000 C 
ATOM     21  C   UNL     1      -4.243   2.757  24.682  0.00  0.00    +0.000 C 
ENDBRANCH  15  16
ENDBRANCH  14  15
ENDBRANCH  10  11
ENDBRANCH   9  10
TORSDOF 9
ENDMDL
MODEL 4
REMARK VINA RESULT:     -10.5      1.743      4.930
REMARK  Name = 
REMARK  9 active torsions:
REMARK  status: ('A' for Active; 'I' for Inactive)
REMARK    1  A    between atoms: C_2  and  C_3
REMARK    2  A    between atoms: C_3  and  C_4
REMARK    3  A    between atoms: C_9  and  C_10
REMARK    4  A    between atoms: C_10  and  C_11
REMARK    5  A    between atoms: C_14  and  C_15
REMARK    6  A    between atoms: C_15  and  C_16
REMARK    7  A    between atoms: N_23  and  C_24
REMARK    8  A    between atoms: C_24  and  C_25
REMARK    9  A    between atoms: C_25  and  N_26
REMARK                            x       y       z     vdW  Elec       q    Type
REMARK                         _______ _______ _______ _____ _____    ______ ____
ROOT
ATOM      4  C   UNL     1      -0.879   2.509  24.669  0.00  0.00    +0.012 C 
ATOM      5  C   UNL     1      -0.674   3.081  25.226  0.00  0.00    +0.019 C 
ATOM      6  C   UNL     1      -0.071   2.932  25.768  0.00  0.00    +0.089 C 
ATOM      7  N   UNL     1       0.328   2.210  25.754  0.00  0.00    -0.218 NA
ATOM      8  C   UNL     1       0.124   1.637  25.196  0.00  0.00    +0.089 C 
ATOM      9  C   UNL     1      -0.480   1.786  24.653  0.00  0.00    +0.024 C 
ENDROOT
BRANCH   4   3
ATOM      3  C   UNL     1      -1.482   2.657  24.126  0.00  0.00    +0.087 C 
BRANCH   3   2
ATOM      1  O   UNL     1      -2.099   3.828  24.666  0.00  0.00    -0.273 OA
ATOM      2  C   UNL     1      -2.160   3.062  24.365  0.00  0.00    +0.241 C 
ATOM     23  N   UNL     1      -2.899   2.701  24.301  0.00  0.00    -0.204 NA
BRANCH  23  24
ATOM     24  C   UNL     1      -3.578   3.106  24.540  0.00  0.00    +0.132 C 
BRANCH  24  25
ATOM     25  C   UNL     1      -4.319   2.860  24.275  0.00  0.00    +0.096 C 
BRANCH  25  26
ATOM     26  N   UNL     1      -4.912   2.679  24.820  0.00  0.00    -0.267 NA
ATOM     27  C   UNL     1      -5.233   1.919  24.841  0.00  0.00    +0.105 C 
ATOM     28  C   UNL     1      -5.827   1.738  25.386  0.00  0.00    +0.159 C 
ATOM     29  O   UNL     1      -6.098   2.316  25.908  0.00  0.00    -0.351 OA
ATOM     30  C   UNL     1      -5.776   3.076  25.886  0.00  0.00    +0.159 C 
ATOM     31  C   UNL     1      -5.184   3.257  25.342  0.00  0.00    +0.105 C 
ENDBRANCH  25  26
ENDBRANCH  24  25
ENDBRANCH  23  24
ENDBRANCH   3   2
ENDBRANCH   4   3
BRANCH   9  10
ATOM     10  C   UNL     1      -0.684   1.214  24.097  0.00  0.00    +0.051 C 
BRANCH  10  11
ATOM     11  C   UNL     1      -0.677   0.415  24.304  0.00  0.00    +0.100 A 
ATOM     12  N   UNL     1      -0.145  -0.153  24.028  0.00  0.00    -0.082 NA
ATOM     13  O   UNL     1      -0.340  -0.875  24.378  0.00  0.00    -0.358 OA
ATOM     14  C   UNL     1      -0.991  -0.753  24.869  0.00  0.00    +0.154 A 
ATOM     22  C   UNL     1      -1.200   0.044  24.823  0.00  0.00    +0.054 A 
BRANCH  14  15
ATOM     15  C   UNL     1      -1.368  -1.328  25.325  0.00  0.00    +0.067 C 
BRANCH  15  16
ATOM     16  C   UNL     1      -2.100  -1.627  25.090  0.00  0.00    +0.008 C 
ATOM     17  C   UNL     1      -2.136  -2.266  24.569  0.00  0.00    +0.000 C 
ATOM     18  C   UNL     1      -2.868  -2.566  24.333  0.00  0.00    +0.000 C 
ATOM     19  C   UNL     1      -3.563  -2.226  24.618  0.00  0.00    +0.000 C 
ATOM     20  C   UNL     1      -3.527  -1.587  25.139  0.00  0.00    +0.000 C 
ATOM     21  C   UNL     1      -2.796  -1.288  25.375  0.00  0.00    +0.000 C 
ENDBRANCH  15  16
ENDBRANCH  14  15
ENDBRANCH  10  11
ENDBRANCH   9  10
TORSDOF 9
ENDMDL
MODEL 5
REMARK VINA RESULT:     -10.4      1.201      4.572
REMARK  Name = 
REMARK  9 active torsions:
REMARK  status: ('A' for Active; 'I' for Inactive)
REMARK    1  A    between atoms: C_2  and  C_3
REMARK    2  A    between atoms: C_3  and  C_4
REMARK    3  A    between atoms: C_9  and  C_10
REMARK    4  A    between atoms: C_10  and  C_11
REMARK    5  A    between atoms: C_14  and  C_15
REMARK    6  A    between atoms: C_15  and  C_16
REMARK    7  A    between atoms: N_23  and  C_24
REMARK    8  A    between atoms: C_24  and  C_25
REMARK    9  A    between atoms: C_25  and  N_26
REMARK                            x       y       z     vdW  Elec       q    Type
REMARK                         _______ _______ _______ _____ _____    ______ ____
ROOT
ATOM      4  C   UNL     1      -4.550   2.826  24.802  0.00  0.00    +0.012 C 
ATOM      5  C   UNL     1      -4.955   3.375  25.267  0.00  0.00    +0.019 C 
ATOM      6  C   UNL     1      -5.577   3.128  25.748  0.00  0.00    +0.089 C 
ATOM      7  N   UNL     1      -5.796   2.333  25.765  0.00  0.00    -0.218 NA
ATOM      8  C   UNL     1      -5.391   1.784  25.300  0.00  0.00    +0.089 C 
ATOM      9  C   UNL     1      -4.768   2.031  24.818  0.00  0.00    +0.024 C 
ENDROOT
BRANCH   4   3
ATOM      3  C   UNL     1      -3.928   3.072  24.321  0.00  0.00    +0.087 C 
BRANCH   3   2
ATOM      1  O   UNL     1      -3.437   4.201  25.049  0.00  0.00    -0.273 OA
ATOM      2  C   UNL     1      -3.297   3.494  24.646  0.00  0.00    +0.241 C 
ATOM     23  N   UNL     1      -2.527   3.209  24.568  0.00  0.00    -0.204 NA
BRANCH  23  24
ATOM     24  C   UNL     1      -1.896   3.631  24.894  0.00  0.00    +0.132 C 
BRANCH  24  25
ATOM     25  C   UNL     1      -1.139   3.549  24.577  0.00  0.00    +0.096 C 
BRANCH  25  26
ATOM     26  N   UNL     1      -0.583   3.069  24.955  0.00  0.00    -0.267 NA
ATOM     27  C   UNL     1      -0.213   2.461  24.539  0.00  0.00    +0.105 C 
ATOM     28  C   UNL     1       0.343   1.982  24.917  0.00  0.00    +0.159 C 
ATOM     29  O   UNL     1       0.527   2.110  25.711  0.00  0.00    -0.351 OA
ATOM     30  C   UNL     1       0.155   2.719  26.127  0.00  0.00    +0.159 C 
ATOM     31  C   UNL     1      -0.400   3.198  25.749  0.00  0.00    +0.105 C 
ENDBRANCH  25  26
ENDBRANCH  24  25
ENDBRANCH  23  24
ENDBRANCH   3   2
ENDBRANCH   4   3
BRANCH   9  10
ATOM     10  C   UNL     1      -4.364   1.483  24.354  0.00  0.00    +0.051 C 
BRANCH  10  11
ATOM     11  C   UNL     1      -4.357   0.686  24.569  0.00  0.00    +0.100 A 
ATOM     12  N   UNL     1      -4.906   0.115  24.335  0.00  0.00    -0.082 NA
ATOM     13  O   UNL     1      -4.687  -0.604  24.677  0.00  0.00    -0.358 OA
ATOM     14  C   UNL     1      -4.003  -0.477  25.121  0.00  0.00    +0.154 A 
ATOM     22  C   UNL     1      -3.799   0.320  25.054  0.00  0.00    +0.054 A 
BRANCH  14  15
ATOM     15  C   UNL     1      -3.595  -1.048  25.555  0.00  0.00    +0.067 C 
BRANCH  15  16
ATOM     16  C   UNL     1      -3.189  -1.650  25.166  0.00  0.00    +0.008 C 
ATOM     17  C   UNL     1      -3.585  -2.338  24.941  0.00  0.00    +0.000 C 
ATOM     18  C   UNL     1      -3.178  -2.941  24.551  0.00  0.00    +0.000 C 
ATOM     19  C   UNL     1      -2.375  -2.856  24.386  0.00  0.00    +0.000 C 
ATOM     20  C   UNL     1      -1.978  -2.168  24.611  0.00  0.00    +0.000 C 
ATOM     21  C   UNL     1      -2.385  -1.566  25.000  0.00  0.00    +0.000 C 
ENDBRANCH  15  16
ENDBRANCH  14  15
ENDBRANCH  10  11
ENDBRANCH   9  10
TORSDOF 9
ENDMDL
MODEL 6
REMARK VINA RESULT:      -7.6     15.778     18.571
REMARK  Name = 
REMARK  9 active torsions:
REMARK  status: ('A' for Active; 'I' for Inactive)
REMARK    1  A    between atoms: C_2  and  C_3
REMARK    2  A    between atoms: C_3  and  C_4
REMARK    3  A    between atoms: C_9  and  C_10
REMARK    4  A    between atoms: C_10  and  C_11
REMARK    5  A    between atoms: C_14  and  C_15
REMARK    6  A    between atoms: C_15  and  C_16
REMARK    7  A    between atoms: N_23  and  C_24
REMARK    8  A    between atoms: C_24  and  C_25
REMARK    9  A    between atoms: C_25  and  N_26
REMARK                            x       y       z     vdW  Elec       q    Type
REMARK                         _______ _______ _______ _____ _____    ______ ____
ROOT
ATOM      4  C   UNL     1      12.893   8.415  18.043  0.00  0.00    +0.012 C 
ATOM      5  C   UNL     1      13.026   7.989  17.350  0.00  0.00    +0.019 C 
ATOM      6  C   UNL     1      12.389   7.749  16.885  0.00  0.00    +0.089 C 
ATOM      7  N   UNL     1      11.618   7.935  17.113  0.00  0.00    -0.218 NA
ATOM      8  C   UNL     1      11.485   8.362  17.806  0.00  0.00    +0.089 C 
ATOM      9  C   UNL     1      12.122   8.602  18.272  0.00  0.00    +0.024 C 
ENDROOT
BRANCH   4   3
ATOM      3  C   UNL     1      13.530   8.656  18.509  0.00  0.00    +0.087 C 
BRANCH   3   2
ATOM      1  O   UNL     1      14.708   8.225  17.824  0.00  0.00    -0.273 OA
ATOM      2  C   UNL     1      14.234   8.224  18.499  0.00  0.00    +0.241 C 
ATOM     23  N   UNL     1      14.461   7.793  19.164  0.00  0.00    -0.204 NA
BRANCH  23  24
ATOM     24  C   UNL     1      15.165   7.362  19.154  0.00  0.00    +0.132 C 
BRANCH  24  25
ATOM     25  C   UNL     1      15.255   6.708  19.649  0.00  0.00    +0.096 C 
BRANCH  25  26
ATOM     26  N   UNL     1      15.972   6.580  20.038  0.00  0.00    -0.267 NA
ATOM     27  C   UNL     1      16.647   6.391  19.604  0.00  0.00    +0.105 C 
ATOM     28  C   UNL     1      17.364   6.263  19.992  0.00  0.00    +0.159 C 
ATOM     29  O   UNL     1      17.405   6.324  20.814  0.00  0.00    -0.351 OA
ATOM     30  C   UNL     1      16.729   6.513  21.247  0.00  0.00    +0.159 C 
ATOM     31  C   UNL     1      16.012   6.640  20.860  0.00  0.00    +0.105 C 
ENDBRANCH  25  26
ENDBRANCH  24  25
ENDBRANCH  23  24
ENDBRANCH   3   2
ENDBRANCH   4   3
BRANCH   9  10
ATOM     10  C   UNL     1      11.990   9.029  18.964  0.00  0.00    +0.051 C 
BRANCH  10  11
ATOM     11  C   UNL     1      11.460   8.743  19.530  0.00  0.00    +0.100 A 
ATOM     12  N   UNL     1      10.640   8.691  19.444  0.00  0.00    -0.082 NA
ATOM     13  O   UNL     1      10.331   8.375  20.141  0.00  0.00    -0.358 OA
ATOM     14  C   UNL     1      10.959   8.233  20.657  0.00  0.00    +0.154 A 
ATOM     22  C   UNL     1      11.656   8.461  20.279  0.00  0.00    +0.054 A 
BRANCH  14  15
ATOM     15  C   UNL     1      10.899   7.919  21.418  0.00  0.00    +0.067 C 
BRANCH  15  16
ATOM     16  C   UNL     1      10.932   7.103  21.531  0.00  0.00    +0.008 C 
ATOM     17  C   UNL     1      10.273   6.699  21.818  0.00  0.00    +0.000 C 
ATOM     18  C   UNL     1      10.306   5.882  21.931  0.00  0.00    +0.000 C 
ATOM     19  C   UNL     1      10.998   5.470  21.757  0.00  0.00    +0.000 C 
ATOM     20  C   UNL     1      11.658   5.874  21.469  0.00  0.00    +0.000 C 
ATOM     21  C   UNL     1      11.625   6.690  21.356  0.00  0.00    +0.000 C 
ENDBRANCH  15  16
ENDBRANCH  14  15
ENDBRANCH  10  11
ENDBRANCH   9  10
TORSDOF 9
ENDMDL
