REMARK  Name = 
REMARK  9 active torsions:
REMARK  status: ('A' for Active; 'I' for Inactive)
REMARK    1  A    between atoms: C_5  and  N_6
REMARK    2  A    between atoms: N_6  and  C_7
REMARK    3  A    between atoms: C_7  and  C_8
REMARK    4  A    between atoms: C_14  and  C_15
REMARK    5  A    between atoms: C_15  and  C_16
REMARK    6  A    between atoms: C_16  and  C_17
REMARK    7  A    between atoms: N_19  and  C_20
REMARK    8  A    between atoms: C_20  and  C_21
REMARK    9  A    between atoms: C_21  and  N_22
REMARK                            x       y       z     vdW  Elec       q    Type
REMARK                         _______ _______ _______ _____ _____    ______ ____
ROOT
ATOM      1  C   UNL     1      -3.068  -3.127   0.000  0.00  0.00    +0.000 C 
ATOM      2  C   UNL     1      -2.314  -2.791   0.000  0.00  0.00    +0.001 C 
ATOM      3  C   UNL     1      -2.059  -3.576   0.000  0.00  0.00    +0.000 C 
ATOM      4  C   UNL     1      -2.727  -2.077   0.000  0.00  0.00    +0.017 C 
ATOM      5  C   UNL     1      -2.175  -1.464   0.000  0.00  0.00    +0.073 C 
ATOM     14  C   UNL     1      -1.421  -1.799   0.000  0.00  0.00    +0.015 C 
ATOM     28  C   UNL     1      -0.667  -1.464   0.000  0.00  0.00    +0.004 C 
ATOM     29  C   UNL     1       0.000  -1.949   0.000  0.00  0.00    +0.030 C 
ATOM     30  C   UNL     1      -0.086  -2.769   0.000  0.00  0.00    +0.127 C 
ATOM     31  C   UNL     1       0.737  -2.712   0.000  0.00  0.00    +0.033 C 
ATOM     32  O   UNL     1       0.113  -3.570   0.000  0.00  0.00    -0.226 OA
ATOM     33  C   UNL     1      -0.840  -3.105   0.000  0.00  0.00    +0.030 C 
ATOM     34  C   UNL     1      -1.507  -2.620   0.000  0.00  0.00    +0.004 C 
ENDROOT
BRANCH   5   6
ATOM      6  N   UNL     1      -2.346  -0.657   0.000  0.00  0.00    -0.219 NA
BRANCH   6   7
ATOM      7  C   UNL     1      -3.131  -0.402   0.000  0.00  0.00    +0.089 C 
BRANCH   7   8
ATOM      8  C   UNL     1      -3.303   0.405   0.000  0.00  0.00    +0.017 C 
ATOM      9  C   UNL     1      -4.087   0.660   0.000  0.00  0.00    +0.001 C 
ATOM     10  C   UNL     1      -4.259   1.467   0.000  0.00  0.00    +0.000 C 
ATOM     11  C   UNL     1      -3.646   2.019   0.000  0.00  0.00    +0.000 C 
ATOM     12  C   UNL     1      -2.861   1.764   0.000  0.00  0.00    +0.000 C 
ATOM     13  C   UNL     1      -2.689   0.957   0.000  0.00  0.00    +0.001 C 
ENDBRANCH   7   8
ENDBRANCH   6   7
ENDBRANCH   5   6
BRANCH  14  15
ATOM     15  C   UNL     1      -1.421  -0.974   0.000  0.00  0.00    +0.011 C 
BRANCH  15  16
ATOM     16  C   UNL     1      -0.707  -0.562   0.000  0.00  0.00    +0.087 C 
BRANCH  16  17
ATOM     17  C   UNL     1       0.008  -0.974   0.000  0.00  0.00    +0.241 C 
ATOM     18  O   UNL     1       0.263  -1.759   0.000  0.00  0.00    -0.273 OA
ATOM     19  N   UNL     1       0.722  -0.562   0.000  0.00  0.00    -0.204 NA
BRANCH  19  20
ATOM     20  C   UNL     1       1.437  -0.974   0.000  0.00  0.00    +0.132 C 
BRANCH  20  21
ATOM     21  C   UNL     1       2.151  -0.562   0.000  0.00  0.00    +0.096 C 
BRANCH  21  22
ATOM     22  N   UNL     1       2.866  -0.974   0.000  0.00  0.00    -0.267 NA
ATOM     23  C   UNL     1       3.580  -0.562   0.000  0.00  0.00    +0.105 C 
ATOM     24  C   UNL     1       4.295  -0.974   0.000  0.00  0.00    +0.159 C 
ATOM     25  O   UNL     1       4.295  -1.799   0.000  0.00  0.00    -0.351 OA
ATOM     26  C   UNL     1       3.580  -2.212   0.000  0.00  0.00    +0.159 C 
ATOM     27  C   UNL     1       2.866  -1.799   0.000  0.00  0.00    +0.105 C 
ENDBRANCH  21  22
ENDBRANCH  20  21
ENDBRANCH  19  20
ENDBRANCH  16  17
ENDBRANCH  15  16
ENDBRANCH  14  15
TORSDOF 9
