MODEL 1
REMARK VINA RESULT:     -11.0      0.000      0.000
REMARK  Name = 
REMARK  5 active torsions:
REMARK  status: ('A' for Active; 'I' for Inactive)
REMARK    1  A    between atoms: C_5  and  S_8
REMARK    2  A    between atoms: S_8  and  N_11
REMARK    3  A    between atoms: C_16  and  C_17
REMARK    4  A    between atoms: N_19  and  C_20
REMARK    5  A    between atoms: N_29  and  C_30
REMARK                            x       y       z     vdW  Elec       q    Type
REMARK                         _______ _______ _______ _____ _____    ______ ____
ROOT
ATOM     11  N   UNL     1      -2.279   1.796  24.753  0.00  0.00    -0.145 NA
ATOM     12  C   UNL     1      -1.806   1.120  24.753  0.00  0.00    +0.118 C 
ATOM     13  C   UNL     1      -2.151   0.375  24.692  0.00  0.00    +0.114 C 
ATOM     14  N   UNL     1      -2.970   0.302  24.630  0.00  0.00    -0.259 N 
ATOM     15  C   UNL     1      -3.443   0.978  24.630  0.00  0.00    +0.122 C 
ATOM     16  C   UNL     1      -3.098   1.724  24.692  0.00  0.00    +0.177 C 
ATOM     27  C   UNL     1      -3.315  -0.444  24.569  0.00  0.00    +0.323 C 
ATOM     28  O   UNL     1      -4.135  -0.517  24.507  0.00  0.00    -0.251 OA
ATOM     29  N   UNL     1      -2.842  -1.120  24.568  0.00  0.00    -0.190 NA
ENDROOT
BRANCH  29  30
ATOM     30  C   UNL     1      -3.187  -1.865  24.507  0.00  0.00    +0.097 C 
ATOM     31  C   UNL     1      -3.106  -2.410  25.123  0.00  0.00    +0.022 C 
ATOM     32  C   UNL     1      -3.452  -3.156  25.061  0.00  0.00    +0.002 C 
ATOM     33  C   UNL     1      -3.878  -3.360  24.384  0.00  0.00    +0.000 C 
ATOM     34  C   UNL     1      -3.958  -2.816  23.769  0.00  0.00    +0.002 C 
ATOM     35  C   UNL     1      -3.612  -2.069  23.830  0.00  0.00    +0.022 C 
ENDBRANCH  29  30
BRANCH  11   8
ATOM      8  S   UNL     1      -1.934   2.542  24.815  0.00  0.00    +0.064 S 
ATOM      9  O   UNL     1      -1.955   2.484  25.638  0.00  0.00    -0.153 OA
ATOM     10  O   UNL     1      -1.912   2.601  23.992  0.00  0.00    -0.153 OA
BRANCH   8   5
ATOM      1  F   UNL     1      -0.552   5.529  25.062  0.00  0.00    -0.204 F 
ATOM      2  C   UNL     1      -0.898   4.783  25.000  0.00  0.00    +0.140 A 
ATOM      3  C   UNL     1      -1.218   4.419  25.668  0.00  0.00    +0.031 A 
ATOM      4  C   UNL     1      -1.564   3.673  25.606  0.00  0.00    +0.022 A 
ATOM      5  C   UNL     1      -1.588   3.289  24.877  0.00  0.00    +0.122 A 
ATOM      6  C   UNL     1      -1.268   3.651  24.209  0.00  0.00    +0.022 A 
ATOM      7  C   UNL     1      -0.923   4.398  24.271  0.00  0.00    +0.031 A 
ENDBRANCH   8   5
ENDBRANCH  11   8
BRANCH  16  17
ATOM     17  C   UNL     1      -3.573   2.399  24.692  0.00  0.00    +0.260 C 
ATOM     18  O   UNL     1      -3.453   2.988  24.127  0.00  0.00    -0.272 OA
ATOM     19  N   UNL     1      -4.168   2.486  25.258  0.00  0.00    -0.197 NA
BRANCH  19  20
ATOM     20  C   UNL     1      -4.641   3.161  25.258  0.00  0.00    +0.173 C 
ATOM     21  C   UNL     1      -4.632   3.670  24.609  0.00  0.00    +0.033 C 
ATOM     22  C   UNL     1      -5.106   4.346  24.608  0.00  0.00    +0.026 C 
ATOM     23  C   UNL     1      -5.589   4.512  25.256  0.00  0.00    +0.115 C 
ATOM     24  N   UNL     1      -5.597   4.002  25.905  0.00  0.00    -0.204 NA
ATOM     25  C   UNL     1      -5.124   3.327  25.906  0.00  0.00    +0.261 C 
ATOM     26  O   UNL     1      -5.133   2.818  26.555  0.00  0.00    -0.271 OA
ENDBRANCH  19  20
ENDBRANCH  16  17
TORSDOF 5
ENDMDL
MODEL 2
REMARK VINA RESULT:     -10.3      3.357      5.036
REMARK  Name = 
REMARK  5 active torsions:
REMARK  status: ('A' for Active; 'I' for Inactive)
REMARK    1  A    between atoms: C_5  and  S_8
REMARK    2  A    between atoms: S_8  and  N_11
REMARK    3  A    between atoms: C_16  and  C_17
REMARK    4  A    between atoms: N_19  and  C_20
REMARK    5  A    between atoms: N_29  and  C_30
REMARK                            x       y       z     vdW  Elec       q    Type
REMARK                         _______ _______ _______ _____ _____    ______ ____
ROOT
ATOM     11  N   UNL     1      -0.794  -0.173  24.341  0.00  0.00    -0.145 NA
ATOM     12  C   UNL     1      -0.264  -0.739  24.060  0.00  0.00    +0.118 C 
ATOM     13  C   UNL     1       0.457  -0.505  23.736  0.00  0.00    +0.114 C 
ATOM     14  N   UNL     1       0.649   0.296  23.693  0.00  0.00    -0.259 N 
ATOM     15  C   UNL     1       0.119   0.862  23.974  0.00  0.00    +0.122 C 
ATOM     16  C   UNL     1      -0.602   0.628  24.298  0.00  0.00    +0.177 C 
ATOM     27  C   UNL     1       1.371   0.531  23.370  0.00  0.00    +0.323 C 
ATOM     28  O   UNL     1       1.563   1.332  23.327  0.00  0.00    -0.251 OA
ATOM     29  N   UNL     1       1.901  -0.035  23.089  0.00  0.00    -0.190 NA
ENDROOT
BRANCH  29  30
ATOM     30  C   UNL     1       2.622   0.199  22.765  0.00  0.00    +0.097 C 
ATOM     31  C   UNL     1       2.743   0.154  21.950  0.00  0.00    +0.022 C 
ATOM     32  C   UNL     1       3.464   0.388  21.626  0.00  0.00    +0.002 C 
ATOM     33  C   UNL     1       4.066   0.669  22.117  0.00  0.00    +0.000 C 
ATOM     34  C   UNL     1       3.944   0.714  22.932  0.00  0.00    +0.002 C 
ATOM     35  C   UNL     1       3.223   0.479  23.256  0.00  0.00    +0.022 C 
ENDBRANCH  29  30
BRANCH  11   8
ATOM      8  S   UNL     1      -1.516  -0.407  24.664  0.00  0.00    +0.064 S 
ATOM      9  O   UNL     1      -1.183  -0.391  25.419  0.00  0.00    -0.153 OA
ATOM     10  O   UNL     1      -1.849  -0.424  23.910  0.00  0.00    -0.153 OA
BRANCH   8   5
ATOM      1  F   UNL     1      -4.403  -1.346  25.959  0.00  0.00    -0.204 F 
ATOM      2  C   UNL     1      -3.681  -1.111  25.635  0.00  0.00    +0.140 A 
ATOM      3  C   UNL     1      -3.616  -0.978  24.824  0.00  0.00    +0.031 A 
ATOM      4  C   UNL     1      -2.894  -0.744  24.500  0.00  0.00    +0.022 A 
ATOM      5  C   UNL     1      -2.238  -0.642  24.988  0.00  0.00    +0.122 A 
ATOM      6  C   UNL     1      -2.302  -0.774  25.799  0.00  0.00    +0.022 A 
ATOM      7  C   UNL     1      -3.024  -1.009  26.123  0.00  0.00    +0.031 A 
ENDBRANCH   8   5
ENDBRANCH  11   8
BRANCH  16  17
ATOM     17  C   UNL     1      -1.132   1.195  24.579  0.00  0.00    +0.260 C 
ATOM     18  O   UNL     1      -1.346   1.201  25.376  0.00  0.00    -0.272 OA
ATOM     19  N   UNL     1      -1.448   1.757  24.062  0.00  0.00    -0.197 NA
BRANCH  19  20
ATOM     20  C   UNL     1      -1.978   2.323  24.344  0.00  0.00    +0.173 C 
ATOM     21  C   UNL     1      -1.895   2.619  25.109  0.00  0.00    +0.033 C 
ATOM     22  C   UNL     1      -2.425   3.186  25.391  0.00  0.00    +0.026 C 
ATOM     23  C   UNL     1      -3.037   3.455  24.908  0.00  0.00    +0.115 C 
ATOM     24  N   UNL     1      -3.119   3.158  24.143  0.00  0.00    -0.204 NA
ATOM     25  C   UNL     1      -2.590   2.592  23.861  0.00  0.00    +0.261 C 
ATOM     26  O   UNL     1      -2.672   2.295  23.096  0.00  0.00    -0.271 OA
ENDBRANCH  19  20
ENDBRANCH  16  17
TORSDOF 5
ENDMDL
MODEL 3
REMARK VINA RESULT:      -9.8      2.350      5.963
REMARK  Name = 
REMARK  5 active torsions:
REMARK  status: ('A' for Active; 'I' for Inactive)
REMARK    1  A    between atoms: C_5  and  S_8
REMARK    2  A    between atoms: S_8  and  N_11
REMARK    3  A    between atoms: C_16  and  C_17
REMARK    4  A    between atoms: N_19  and  C_20
REMARK    5  A    between atoms: N_29  and  C_30
REMARK                            x       y       z     vdW  Elec       q    Type
REMARK                         _______ _______ _______ _____ _____    ______ ____
ROOT
ATOM     11  N   UNL     1      -2.959   0.763  24.524  0.00  0.00    -0.145 NA
ATOM     12  C   UNL     1      -3.356   1.458  24.322  0.00  0.00    +0.118 C 
ATOM     13  C   UNL     1      -3.000   2.189  24.454  0.00  0.00    +0.114 C 
ATOM     14  N   UNL     1      -2.247   2.229  24.788  0.00  0.00    -0.259 N 
ATOM     15  C   UNL     1      -1.850   1.534  24.990  0.00  0.00    +0.122 C 
ATOM     16  C   UNL     1      -2.205   0.803  24.858  0.00  0.00    +0.177 C 
ATOM     27  C   UNL     1      -1.891   2.961  24.919  0.00  0.00    +0.323 C 
ATOM     28  O   UNL     1      -1.138   3.000  25.253  0.00  0.00    -0.251 OA
ATOM     29  N   UNL     1      -2.288   3.655  24.717  0.00  0.00    -0.190 NA
ENDROOT
BRANCH  29  30
ATOM     30  C   UNL     1      -1.932   4.387  24.849  0.00  0.00    +0.097 C 
ATOM     31  C   UNL     1      -2.319   4.959  25.302  0.00  0.00    +0.022 C 
ATOM     32  C   UNL     1      -1.963   5.691  25.434  0.00  0.00    +0.002 C 
ATOM     33  C   UNL     1      -1.220   5.853  25.113  0.00  0.00    +0.000 C 
ATOM     34  C   UNL     1      -0.834   5.282  24.660  0.00  0.00    +0.002 C 
ATOM     35  C   UNL     1      -1.190   4.549  24.528  0.00  0.00    +0.022 C 
ENDBRANCH  29  30
BRANCH  11   8
ATOM      8  S   UNL     1      -3.315   0.031  24.393  0.00  0.00    +0.064 S 
ATOM      9  O   UNL     1      -3.571   0.014  25.177  0.00  0.00    -0.153 OA
ATOM     10  O   UNL     1      -3.058   0.047  23.609  0.00  0.00    -0.153 OA
BRANCH   8   5
ATOM      1  F   UNL     1      -4.738  -2.899  23.866  0.00  0.00    -0.204 F 
ATOM      2  C   UNL     1      -4.382  -2.167  23.998  0.00  0.00    +0.140 A 
ATOM      3  C   UNL     1      -4.053  -1.748  23.368  0.00  0.00    +0.031 A 
ATOM      4  C   UNL     1      -3.697  -1.016  23.499  0.00  0.00    +0.022 A 
ATOM      5  C   UNL     1      -3.670  -0.702  24.261  0.00  0.00    +0.122 A 
ATOM      6  C   UNL     1      -4.000  -1.119  24.891  0.00  0.00    +0.022 A 
ATOM      7  C   UNL     1      -4.355  -1.852  24.759  0.00  0.00    +0.031 A 
ENDBRANCH   8   5
ENDBRANCH  11   8
BRANCH  16  17
ATOM     17  C   UNL     1      -1.808   0.108  25.061  0.00  0.00    +0.260 C 
ATOM     18  O   UNL     1      -2.119  -0.393  25.638  0.00  0.00    -0.272 OA
ATOM     19  N   UNL     1      -1.098  -0.086  24.685  0.00  0.00    -0.197 NA
BRANCH  19  20
ATOM     20  C   UNL     1      -0.701  -0.780  24.888  0.00  0.00    +0.173 C 
ATOM     21  C   UNL     1      -0.821  -1.121  25.629  0.00  0.00    +0.033 C 
ATOM     22  C   UNL     1      -0.424  -1.815  25.832  0.00  0.00    +0.026 C 
ATOM     23  C   UNL     1       0.092  -2.168  25.294  0.00  0.00    +0.115 C 
ATOM     24  N   UNL     1       0.211  -1.827  24.552  0.00  0.00    -0.204 NA
ATOM     25  C   UNL     1      -0.185  -1.133  24.349  0.00  0.00    +0.261 C 
ATOM     26  O   UNL     1      -0.066  -0.792  23.608  0.00  0.00    -0.271 OA
ENDBRANCH  19  20
ENDBRANCH  16  17
TORSDOF 5
ENDMDL
MODEL 4
REMARK VINA RESULT:      -9.6      2.724      4.400
REMARK  Name = 
REMARK  5 active torsions:
REMARK  status: ('A' for Active; 'I' for Inactive)
REMARK    1  A    between atoms: C_5  and  S_8
REMARK    2  A    between atoms: S_8  and  N_11
REMARK    3  A    between atoms: C_16  and  C_17
REMARK    4  A    between atoms: N_19  and  C_20
REMARK    5  A    between atoms: N_29  and  C_30
REMARK                            x       y       z     vdW  Elec       q    Type
REMARK                         _______ _______ _______ _____ _____    ______ ____
ROOT
ATOM     11  N   UNL     1      -1.262   1.970  24.195  0.00  0.00    -0.145 NA
ATOM     12  C   UNL     1      -0.556   2.385  24.095  0.00  0.00    +0.118 C 
ATOM     13  C   UNL     1       0.119   1.993  23.832  0.00  0.00    +0.114 C 
ATOM     14  N   UNL     1       0.090   1.185  23.668  0.00  0.00    -0.259 N 
ATOM     15  C   UNL     1      -0.616   0.770  23.768  0.00  0.00    +0.122 C 
ATOM     16  C   UNL     1      -1.291   1.162  24.031  0.00  0.00    +0.177 C 
ATOM     27  C   UNL     1       0.766   0.793  23.404  0.00  0.00    +0.323 C 
ATOM     28  O   UNL     1       0.737  -0.015  23.240  0.00  0.00    -0.251 OA
ATOM     29  N   UNL     1       1.472   1.208  23.304  0.00  0.00    -0.190 NA
ENDROOT
BRANCH  29  30
ATOM     30  C   UNL     1       2.147   0.816  23.041  0.00  0.00    +0.097 C 
ATOM     31  C   UNL     1       2.895   1.112  23.225  0.00  0.00    +0.022 C 
ATOM     32  C   UNL     1       3.572   0.720  22.961  0.00  0.00    +0.002 C 
ATOM     33  C   UNL     1       3.500   0.030  22.513  0.00  0.00    +0.000 C 
ATOM     34  C   UNL     1       2.753  -0.266  22.329  0.00  0.00    +0.002 C 
ATOM     35  C   UNL     1       2.077   0.126  22.593  0.00  0.00    +0.022 C 
ENDBRANCH  29  30
BRANCH  11   8
ATOM      8  S   UNL     1      -1.938   2.363  24.459  0.00  0.00    +0.064 S 
ATOM      9  O   UNL     1      -1.695   2.257  25.240  0.00  0.00    -0.153 OA
ATOM     10  O   UNL     1      -2.181   2.468  23.678  0.00  0.00    -0.153 OA
BRANCH   8   5
ATOM      1  F   UNL     1      -4.642   3.933  25.514  0.00  0.00    -0.204 F 
ATOM      2  C   UNL     1      -3.966   3.540  25.250  0.00  0.00    +0.140 A 
ATOM      3  C   UNL     1      -3.861   3.393  24.445  0.00  0.00    +0.031 A 
ATOM      4  C   UNL     1      -3.185   3.001  24.181  0.00  0.00    +0.022 A 
ATOM      5  C   UNL     1      -2.614   2.755  24.722  0.00  0.00    +0.122 A 
ATOM      6  C   UNL     1      -2.718   2.902  25.527  0.00  0.00    +0.022 A 
ATOM      7  C   UNL     1      -3.394   3.294  25.791  0.00  0.00    +0.031 A 
ENDBRANCH   8   5
ENDBRANCH  11   8
BRANCH  16  17
ATOM     17  C   UNL     1      -1.997   0.747  24.131  0.00  0.00    +0.260 C 
ATOM     18  O   UNL     1      -2.672   0.972  23.712  0.00  0.00    -0.272 OA
ATOM     19  N   UNL     1      -2.029   0.105  24.650  0.00  0.00    -0.197 NA
BRANCH  19  20
ATOM     20  C   UNL     1      -2.735  -0.310  24.749  0.00  0.00    +0.173 C 
ATOM     21  C   UNL     1      -3.278  -0.351  24.130  0.00  0.00    +0.033 C 
ATOM     22  C   UNL     1      -3.985  -0.766  24.230  0.00  0.00    +0.026 C 
ATOM     23  C   UNL     1      -4.147  -1.140  24.947  0.00  0.00    +0.115 C 
ATOM     24  N   UNL     1      -3.602  -1.097  25.566  0.00  0.00    -0.204 NA
ATOM     25  C   UNL     1      -2.897  -0.683  25.467  0.00  0.00    +0.261 C 
ATOM     26  O   UNL     1      -2.353  -0.641  26.085  0.00  0.00    -0.271 OA
ENDBRANCH  19  20
ENDBRANCH  16  17
TORSDOF 5
ENDMDL
MODEL 5
REMARK VINA RESULT:      -8.8      1.295      2.856
REMARK  Name = 
REMARK  5 active torsions:
REMARK  status: ('A' for Active; 'I' for Inactive)
REMARK    1  A    between atoms: C_5  and  S_8
REMARK    2  A    between atoms: S_8  and  N_11
REMARK    3  A    between atoms: C_16  and  C_17
REMARK    4  A    between atoms: N_19  and  C_20
REMARK    5  A    between atoms: N_29  and  C_30
REMARK                            x       y       z     vdW  Elec       q    Type
REMARK                         _______ _______ _______ _____ _____    ______ ____
ROOT
ATOM     11  N   UNL     1      -4.290   1.649  24.902  0.00  0.00    -0.145 NA
ATOM     12  C   UNL     1      -4.816   1.020  24.986  0.00  0.00    +0.118 C 
ATOM     13  C   UNL     1      -4.555   0.246  24.874  0.00  0.00    +0.114 C 
ATOM     14  N   UNL     1      -3.767   0.100  24.678  0.00  0.00    -0.259 N 
ATOM     15  C   UNL     1      -3.241   0.730  24.594  0.00  0.00    +0.122 C 
ATOM     16  C   UNL     1      -3.502   1.504  24.706  0.00  0.00    +0.177 C 
ATOM     27  C   UNL     1      -3.506  -0.674  24.566  0.00  0.00    +0.323 C 
ATOM     28  O   UNL     1      -2.718  -0.820  24.370  0.00  0.00    -0.251 OA
ATOM     29  N   UNL     1      -4.032  -1.304  24.650  0.00  0.00    -0.190 NA
ENDROOT
BRANCH  29  30
ATOM     30  C   UNL     1      -3.771  -2.077  24.539  0.00  0.00    +0.097 C 
ATOM     31  C   UNL     1      -3.950  -2.476  23.838  0.00  0.00    +0.022 C 
ATOM     32  C   UNL     1      -3.688  -3.251  23.726  0.00  0.00    +0.002 C 
ATOM     33  C   UNL     1      -3.247  -3.627  24.314  0.00  0.00    +0.000 C 
ATOM     34  C   UNL     1      -3.068  -3.228  25.014  0.00  0.00    +0.002 C 
ATOM     35  C   UNL     1      -3.330  -2.453  25.126  0.00  0.00    +0.022 C 
ENDBRANCH  29  30
BRANCH  11   8
ATOM      8  S   UNL     1      -4.551   2.424  25.014  0.00  0.00    +0.064 S 
ATOM      9  O   UNL     1      -4.656   2.506  24.200  0.00  0.00    -0.153 OA
ATOM     10  O   UNL     1      -4.447   2.341  25.828  0.00  0.00    -0.153 OA
BRANCH   8   5
ATOM      1  F   UNL     1      -5.597   5.521  25.462  0.00  0.00    -0.204 F 
ATOM      2  C   UNL     1      -5.336   4.747  25.350  0.00  0.00    +0.140 A 
ATOM      3  C   UNL     1      -5.293   4.229  25.990  0.00  0.00    +0.031 A 
ATOM      4  C   UNL     1      -5.032   3.454  25.878  0.00  0.00    +0.022 A 
ATOM      5  C   UNL     1      -4.813   3.198  25.126  0.00  0.00    +0.122 A 
ATOM      6  C   UNL     1      -4.855   3.715  24.485  0.00  0.00    +0.022 A 
ATOM      7  C   UNL     1      -5.117   4.490  24.597  0.00  0.00    +0.031 A 
ENDBRANCH   8   5
ENDBRANCH  11   8
BRANCH  16  17
ATOM     17  C   UNL     1      -2.975   2.134  24.622  0.00  0.00    +0.260 C 
ATOM     18  O   UNL     1      -3.107   2.707  24.043  0.00  0.00    -0.272 OA
ATOM     19  N   UNL     1      -2.316   2.190  25.117  0.00  0.00    -0.197 NA
BRANCH  19  20
ATOM     20  C   UNL     1      -1.790   2.819  25.032  0.00  0.00    +0.173 C 
ATOM     21  C   UNL     1      -1.616   3.112  24.281  0.00  0.00    +0.033 C 
ATOM     22  C   UNL     1      -1.090   3.742  24.195  0.00  0.00    +0.026 C 
ATOM     23  C   UNL     1      -0.738   4.079  24.861  0.00  0.00    +0.115 C 
ATOM     24  N   UNL     1      -0.913   3.785  25.613  0.00  0.00    -0.204 NA
ATOM     25  C   UNL     1      -1.439   3.156  25.698  0.00  0.00    +0.261 C 
ATOM     26  O   UNL     1      -1.613   2.863  26.448  0.00  0.00    -0.271 OA
ENDBRANCH  19  20
ENDBRANCH  16  17
TORSDOF 5
ENDMDL
