MODEL 1
REMARK VINA RESULT:      -9.6      0.000      0.000
REMARK  Name = 
REMARK  6 active torsions:
REMARK  status: ('A' for Active; 'I' for Inactive)
REMARK    1  A    between atoms: C_2  and  C_4
REMARK    2  A    between atoms: C_6  and  C_7
REMARK    3  A    between atoms: C_7  and  C_8
REMARK    4  A    between atoms: C_11  and  C_13
REMARK    5  A    between atoms: C_22  and  C_23
REMARK    6  A    between atoms: C_23  and  N_24
REMARK                            x       y       z     vdW  Elec       q    Type
REMARK                         _______ _______ _______ _____ _____    ______ ____
ROOT
ATOM      4  C   UNL     1      -2.062   0.430  24.253  0.00  0.00    +0.006 C 
ATOM      5  C   UNL     1      -2.697   0.877  23.977  0.00  0.00    +0.005 C 
ATOM      6  C   UNL     1      -2.572   1.476  23.424  0.00  0.00    +0.027 C 
ATOM     19  C   UNL     1      -1.809   1.628  23.147  0.00  0.00    -0.048 C 
ATOM     20  C   UNL     1      -1.682   2.227  22.595  0.00  0.00    +0.026 C 
ATOM     21  C   UNL     1      -1.173   1.181  23.424  0.00  0.00    -0.034 C 
ATOM     22  C   UNL     1      -1.300   0.582  23.976  0.00  0.00    +0.037 C 
ENDROOT
BRANCH   4   2
ATOM      1  C   UNL     1      -2.444  -0.913  24.557  0.00  0.00    +0.000 C 
ATOM      2  C   UNL     1      -2.188  -0.169  24.805  0.00  0.00    +0.000 C 
ATOM      3  C   UNL     1      -2.058  -0.024  25.608  0.00  0.00    +0.000 C 
ENDBRANCH   4   2
BRANCH   6   7
ATOM      7  C   UNL     1      -3.207   1.923  23.148  0.00  0.00    +0.091 C 
BRANCH   7   8
ATOM      8  C   UNL     1      -3.708   2.303  23.684  0.00  0.00    +0.227 A 
ATOM      9  N   UNL     1      -3.708   3.109  23.860  0.00  0.00    -0.111 NA
ATOM     10  N   UNL     1      -4.297   3.246  24.422  0.00  0.00    -0.107 NA
ATOM     11  C   UNL     1      -4.660   2.526  24.592  0.00  0.00    +0.250 A 
ATOM     12  O   UNL     1      -4.296   1.942  24.135  0.00  0.00    -0.420 OA
BRANCH  11  13
ATOM     13  C   UNL     1      -5.279   2.408  25.124  0.00  0.00    +0.055 A 
ATOM     14  C   UNL     1      -5.882   1.874  24.945  0.00  0.00    +0.005 A 
ATOM     15  C   UNL     1      -6.502   1.756  25.477  0.00  0.00    +0.000 A 
ATOM     16  C   UNL     1      -6.517   2.173  26.189  0.00  0.00    +0.000 A 
ATOM     17  C   UNL     1      -5.915   2.707  26.369  0.00  0.00    +0.000 A 
ATOM     18  C   UNL     1      -5.296   2.824  25.836  0.00  0.00    +0.005 A 
ENDBRANCH  11  13
ENDBRANCH   7   8
ENDBRANCH   6   7
BRANCH  22  23
ATOM     23  C   UNL     1      -0.664   0.135  24.252  0.00  0.00    +0.076 C 
BRANCH  23  24
ATOM     24  N   UNL     1       0.081   0.224  23.912  0.00  0.00    -0.269 NA
ATOM     25  C   UNL     1       0.587   0.821  24.176  0.00  0.00    +0.094 C 
ATOM     26  C   UNL     1       1.333   0.911  23.836  0.00  0.00    +0.111 C 
ATOM     27  N   UNL     1       1.574   0.404  23.231  0.00  0.00    -0.275 N 
ATOM     28  C   UNL     1       1.069  -0.192  22.967  0.00  0.00    +0.111 C 
ATOM     29  C   UNL     1       0.323  -0.282  23.307  0.00  0.00    +0.094 C 
ATOM     30  C   UNL     1       2.321   0.494  22.890  0.00  0.00    +0.220 A 
ATOM     31  N   UNL     1       2.825   1.090  23.155  0.00  0.00    -0.212 NA
ATOM     32  C   UNL     1       3.572   1.180  22.815  0.00  0.00    +0.103 A 
ATOM     33  C   UNL     1       3.813   0.673  22.210  0.00  0.00    +0.041 A 
ATOM     34  C   UNL     1       3.308   0.077  21.946  0.00  0.00    +0.103 A 
ATOM     35  N   UNL     1       2.561  -0.013  22.286  0.00  0.00    -0.212 NA
ENDBRANCH  23  24
ENDBRANCH  22  23
TORSDOF 6
ENDMDL
MODEL 2
REMARK VINA RESULT:      -9.4      1.315      1.956
REMARK  Name = 
REMARK  6 active torsions:
REMARK  status: ('A' for Active; 'I' for Inactive)
REMARK    1  A    between atoms: C_2  and  C_4
REMARK    2  A    between atoms: C_6  and  C_7
REMARK    3  A    between atoms: C_7  and  C_8
REMARK    4  A    between atoms: C_11  and  C_13
REMARK    5  A    between atoms: C_22  and  C_23
REMARK    6  A    between atoms: C_23  and  N_24
REMARK                            x       y       z     vdW  Elec       q    Type
REMARK                         _______ _______ _______ _____ _____    ______ ____
ROOT
ATOM      4  C   UNL     1      -3.179  -0.889  25.138  0.00  0.00    +0.006 C 
ATOM      5  C   UNL     1      -3.900  -0.524  24.973  0.00  0.00    +0.005 C 
ATOM      6  C   UNL     1      -3.960   0.008  24.345  0.00  0.00    +0.027 C 
ATOM     19  C   UNL     1      -3.297   0.175  23.882  0.00  0.00    -0.048 C 
ATOM     20  C   UNL     1      -3.356   0.707  23.254  0.00  0.00    +0.026 C 
ATOM     21  C   UNL     1      -2.575  -0.190  24.047  0.00  0.00    -0.034 C 
ATOM     22  C   UNL     1      -2.517  -0.722  24.675  0.00  0.00    +0.037 C 
ENDROOT
BRANCH   4   2
ATOM      1  C   UNL     1      -2.881  -1.156  26.510  0.00  0.00    +0.000 C 
ATOM      2  C   UNL     1      -3.120  -1.420  25.765  0.00  0.00    +0.000 C 
ATOM      3  C   UNL     1      -3.300  -2.218  25.649  0.00  0.00    +0.000 C 
ENDBRANCH   4   2
BRANCH   6   7
ATOM      7  C   UNL     1      -4.680   0.373  24.180  0.00  0.00    +0.091 C 
BRANCH   7   8
ATOM      8  C   UNL     1      -4.958   0.978  24.668  0.00  0.00    +0.227 A 
ATOM      9  N   UNL     1      -5.562   0.911  25.226  0.00  0.00    -0.111 NA
ATOM     10  N   UNL     1      -5.658   1.647  25.586  0.00  0.00    -0.107 NA
ATOM     11  C   UNL     1      -5.113   2.168  25.251  0.00  0.00    +0.250 A 
ATOM     12  O   UNL     1      -4.680   1.754  24.684  0.00  0.00    -0.420 OA
BRANCH  11  13
ATOM     13  C   UNL     1      -5.016   2.963  25.449  0.00  0.00    +0.055 A 
ATOM     14  C   UNL     1      -4.268   3.253  25.642  0.00  0.00    +0.005 A 
ATOM     15  C   UNL     1      -4.171   4.048  25.840  0.00  0.00    +0.000 A 
ATOM     16  C   UNL     1      -4.823   4.553  25.844  0.00  0.00    +0.000 A 
ATOM     17  C   UNL     1      -5.571   4.265  25.651  0.00  0.00    +0.000 A 
ATOM     18  C   UNL     1      -5.667   3.469  25.454  0.00  0.00    +0.005 A 
ENDBRANCH  11  13
ENDBRANCH   7   8
ENDBRANCH   6   7
BRANCH  22  23
ATOM     23  C   UNL     1      -1.796  -1.086  24.840  0.00  0.00    +0.076 C 
BRANCH  23  24
ATOM     24  N   UNL     1      -1.107  -0.824  24.470  0.00  0.00    -0.269 NA
ATOM     25  C   UNL     1      -0.715  -0.155  24.754  0.00  0.00    +0.094 C 
ATOM     26  C   UNL     1      -0.026   0.107  24.384  0.00  0.00    +0.111 C 
ATOM     27  N   UNL     1       0.271  -0.300  23.730  0.00  0.00    -0.275 N 
ATOM     28  C   UNL     1      -0.120  -0.968  23.447  0.00  0.00    +0.111 C 
ATOM     29  C   UNL     1      -0.809  -1.230  23.817  0.00  0.00    +0.094 C 
ATOM     30  C   UNL     1       0.961  -0.037  23.360  0.00  0.00    +0.220 A 
ATOM     31  N   UNL     1       1.352   0.632  23.644  0.00  0.00    -0.212 NA
ATOM     32  C   UNL     1       2.041   0.894  23.274  0.00  0.00    +0.103 A 
ATOM     33  C   UNL     1       2.340   0.487  22.620  0.00  0.00    +0.041 A 
ATOM     34  C   UNL     1       1.948  -0.181  22.337  0.00  0.00    +0.103 A 
ATOM     35  N   UNL     1       1.259  -0.443  22.707  0.00  0.00    -0.212 NA
ENDBRANCH  23  24
ENDBRANCH  22  23
TORSDOF 6
ENDMDL
MODEL 3
REMARK VINA RESULT:      -8.9      3.170      5.204
REMARK  Name = 
REMARK  6 active torsions:
REMARK  status: ('A' for Active; 'I' for Inactive)
REMARK    1  A    between atoms: C_2  and  C_4
REMARK    2  A    between atoms: C_6  and  C_7
REMARK    3  A    between atoms: C_7  and  C_8
REMARK    4  A    between atoms: C_11  and  C_13
REMARK    5  A    between atoms: C_22  and  C_23
REMARK    6  A    between atoms: C_23  and  N_24
REMARK                            x       y       z     vdW  Elec       q    Type
REMARK                         _______ _______ _______ _____ _____    ______ ____
ROOT
ATOM      4  C   UNL     1      -4.839   2.565  25.073  0.00  0.00    +0.006 C 
ATOM      5  C   UNL     1      -4.371   3.227  24.924  0.00  0.00    +0.005 C 
ATOM      6  C   UNL     1      -3.812   3.211  24.318  0.00  0.00    +0.027 C 
ATOM     19  C   UNL     1      -3.722   2.530  23.860  0.00  0.00    -0.048 C 
ATOM     20  C   UNL     1      -3.163   2.512  23.253  0.00  0.00    +0.026 C 
ATOM     21  C   UNL     1      -4.190   1.867  24.009  0.00  0.00    -0.034 C 
ATOM     22  C   UNL     1      -4.749   1.885  24.615  0.00  0.00    +0.037 C 
ENDROOT
BRANCH   4   2
ATOM      1  C   UNL     1      -6.203   2.585  25.500  0.00  0.00    +0.000 C 
ATOM      2  C   UNL     1      -5.398   2.583  25.679  0.00  0.00    +0.000 C 
ATOM      3  C   UNL     1      -5.151   2.598  26.468  0.00  0.00    +0.000 C 
ENDBRANCH   4   2
BRANCH   6   7
ATOM      7  C   UNL     1      -3.344   3.873  24.169  0.00  0.00    +0.091 C 
BRANCH   7   8
ATOM      8  C   UNL     1      -2.654   3.997  24.605  0.00  0.00    +0.227 A 
ATOM      9  N   UNL     1      -2.381   4.724  24.883  0.00  0.00    -0.111 NA
ATOM     10  N   UNL     1      -1.674   4.592  25.288  0.00  0.00    -0.107 NA
ATOM     11  C   UNL     1      -1.511   3.783  25.260  0.00  0.00    +0.250 A 
ATOM     12  O   UNL     1      -2.118   3.416  24.837  0.00  0.00    -0.420 OA
BRANCH  11  13
ATOM     13  C   UNL     1      -0.858   3.408  25.596  0.00  0.00    +0.055 A 
ATOM     14  C   UNL     1      -0.915   3.075  26.348  0.00  0.00    +0.005 A 
ATOM     15  C   UNL     1      -0.262   2.699  26.685  0.00  0.00    +0.000 A 
ATOM     16  C   UNL     1       0.449   2.657  26.267  0.00  0.00    +0.000 A 
ATOM     17  C   UNL     1       0.507   2.990  25.515  0.00  0.00    +0.000 A 
ATOM     18  C   UNL     1      -0.148   3.366  25.179  0.00  0.00    +0.005 A 
ENDBRANCH  11  13
ENDBRANCH   7   8
ENDBRANCH   6   7
BRANCH  22  23
ATOM     23  C   UNL     1      -5.217   1.222  24.764  0.00  0.00    +0.076 C 
BRANCH  23  24
ATOM     24  N   UNL     1      -4.885   0.468  24.734  0.00  0.00    -0.269 NA
ATOM     25  C   UNL     1      -5.013  -0.013  24.075  0.00  0.00    +0.094 C 
ATOM     26  C   UNL     1      -4.681  -0.768  24.045  0.00  0.00    +0.111 C 
ATOM     27  N   UNL     1      -4.222  -1.041  24.673  0.00  0.00    -0.275 N 
ATOM     28  C   UNL     1      -4.094  -0.561  25.331  0.00  0.00    +0.111 C 
ATOM     29  C   UNL     1      -4.426   0.194  25.361  0.00  0.00    +0.094 C 
ATOM     30  C   UNL     1      -3.889  -1.797  24.643  0.00  0.00    +0.220 A 
ATOM     31  N   UNL     1      -4.018  -2.277  23.985  0.00  0.00    -0.212 NA
ATOM     32  C   UNL     1      -3.686  -3.032  23.955  0.00  0.00    +0.103 A 
ATOM     33  C   UNL     1      -3.226  -3.307  24.583  0.00  0.00    +0.041 A 
ATOM     34  C   UNL     1      -3.099  -2.825  25.241  0.00  0.00    +0.103 A 
ATOM     35  N   UNL     1      -3.430  -2.071  25.271  0.00  0.00    -0.212 NA
ENDBRANCH  23  24
ENDBRANCH  22  23
TORSDOF 6
ENDMDL
MODEL 4
REMARK VINA RESULT:      -8.7      2.593      4.840
REMARK  Name = 
REMARK  6 active torsions:
REMARK  status: ('A' for Active; 'I' for Inactive)
REMARK    1  A    between atoms: C_2  and  C_4
REMARK    2  A    between atoms: C_6  and  C_7
REMARK    3  A    between atoms: C_7  and  C_8
REMARK    4  A    between atoms: C_11  and  C_13
REMARK    5  A    between atoms: C_22  and  C_23
REMARK    6  A    between atoms: C_23  and  N_24
REMARK                            x       y       z     vdW  Elec       q    Type
REMARK                         _______ _______ _______ _____ _____    ______ ____
ROOT
ATOM      4  C   UNL     1       0.090  -0.087  23.919  0.00  0.00    +0.006 C 
ATOM      5  C   UNL     1      -0.128  -0.800  24.270  0.00  0.00    +0.005 C 
ATOM      6  C   UNL     1      -0.514  -0.800  25.000  0.00  0.00    +0.027 C 
ATOM     19  C   UNL     1      -0.680  -0.087  25.378  0.00  0.00    -0.048 C 
ATOM     20  C   UNL     1      -1.066  -0.086  26.107  0.00  0.00    +0.026 C 
ATOM     21  C   UNL     1      -0.462   0.628  25.027  0.00  0.00    -0.034 C 
ATOM     22  C   UNL     1      -0.076   0.627  24.297  0.00  0.00    +0.037 C 
ENDROOT
BRANCH   4   2
ATOM      1  C   UNL     1       0.039  -0.142  22.492  0.00  0.00    +0.000 C 
ATOM      2  C   UNL     1       0.475  -0.087  23.190  0.00  0.00    +0.000 C 
ATOM      3  C   UNL     1       1.299  -0.031  23.158  0.00  0.00    +0.000 C 
ENDBRANCH   4   2
BRANCH   6   7
ATOM      7  C   UNL     1      -0.732  -1.514  25.351  0.00  0.00    +0.091 C 
BRANCH   7   8
ATOM      8  C   UNL     1      -1.325  -1.977  25.010  0.00  0.00    +0.227 A 
ATOM      9  N   UNL     1      -1.255  -2.769  24.791  0.00  0.00    -0.111 NA
ATOM     10  N   UNL     1      -1.978  -3.011  24.474  0.00  0.00    -0.107 NA
ATOM     11  C   UNL     1      -2.494  -2.367  24.498  0.00  0.00    +0.250 A 
ATOM     12  O   UNL     1      -2.090  -1.728  24.829  0.00  0.00    -0.420 OA
BRANCH  11  13
ATOM     13  C   UNL     1      -3.276  -2.363  24.237  0.00  0.00    +0.055 A 
ATOM     14  C   UNL     1      -3.664  -1.647  24.108  0.00  0.00    +0.005 A 
ATOM     15  C   UNL     1      -4.447  -1.642  23.846  0.00  0.00    +0.000 A 
ATOM     16  C   UNL     1      -4.841  -2.355  23.714  0.00  0.00    +0.000 A 
ATOM     17  C   UNL     1      -4.454  -3.071  23.843  0.00  0.00    +0.000 A 
ATOM     18  C   UNL     1      -3.671  -3.075  24.104  0.00  0.00    +0.005 A 
ENDBRANCH  11  13
ENDBRANCH   7   8
ENDBRANCH   6   7
BRANCH  22  23
ATOM     23  C   UNL     1       0.142   1.341  23.947  0.00  0.00    +0.076 C 
BRANCH  23  24
ATOM     24  N   UNL     1      -0.249   2.037  24.150  0.00  0.00    -0.269 NA
ATOM     25  C   UNL     1      -1.055   2.121  23.988  0.00  0.00    +0.094 C 
ATOM     26  C   UNL     1      -1.446   2.818  24.191  0.00  0.00    +0.111 C 
ATOM     27  N   UNL     1      -1.033   3.431  24.557  0.00  0.00    -0.275 N 
ATOM     28  C   UNL     1      -0.229   3.348  24.719  0.00  0.00    +0.111 C 
ATOM     29  C   UNL     1       0.163   2.651  24.516  0.00  0.00    +0.094 C 
ATOM     30  C   UNL     1      -1.425   4.129  24.761  0.00  0.00    +0.220 A 
ATOM     31  N   UNL     1      -2.230   4.212  24.598  0.00  0.00    -0.212 NA
ATOM     32  C   UNL     1      -2.622   4.909  24.802  0.00  0.00    +0.103 A 
ATOM     33  C   UNL     1      -2.209   5.523  25.168  0.00  0.00    +0.041 A 
ATOM     34  C   UNL     1      -1.404   5.439  25.330  0.00  0.00    +0.103 A 
ATOM     35  N   UNL     1      -1.013   4.742  25.126  0.00  0.00    -0.212 NA
ENDBRANCH  23  24
ENDBRANCH  22  23
TORSDOF 6
ENDMDL
MODEL 5
REMARK VINA RESULT:      -8.7      1.575      6.824
REMARK  Name = 
REMARK  6 active torsions:
REMARK  status: ('A' for Active; 'I' for Inactive)
REMARK    1  A    between atoms: C_2  and  C_4
REMARK    2  A    between atoms: C_6  and  C_7
REMARK    3  A    between atoms: C_7  and  C_8
REMARK    4  A    between atoms: C_11  and  C_13
REMARK    5  A    between atoms: C_22  and  C_23
REMARK    6  A    between atoms: C_23  and  N_24
REMARK                            x       y       z     vdW  Elec       q    Type
REMARK                         _______ _______ _______ _____ _____    ______ ____
ROOT
ATOM      4  C   UNL     1      -0.409   1.965  24.271  0.00  0.00    +0.006 C 
ATOM      5  C   UNL     1       0.068   1.304  24.151  0.00  0.00    +0.005 C 
ATOM      6  C   UNL     1      -0.273   0.578  23.953  0.00  0.00    +0.027 C 
ATOM     19  C   UNL     1      -1.092   0.516  23.876  0.00  0.00    -0.048 C 
ATOM     20  C   UNL     1      -1.434  -0.208  23.679  0.00  0.00    +0.026 C 
ATOM     21  C   UNL     1      -1.570   1.178  23.997  0.00  0.00    -0.034 C 
ATOM     22  C   UNL     1      -1.228   1.903  24.194  0.00  0.00    +0.037 C 
ENDROOT
BRANCH   4   2
ATOM      1  C   UNL     1       0.048   3.263  23.887  0.00  0.00    +0.000 C 
ATOM      2  C   UNL     1      -0.068   2.689  24.468  0.00  0.00    +0.000 C 
ATOM      3  C   UNL     1       0.158   2.841  25.248  0.00  0.00    +0.000 C 
ENDBRANCH   4   2
BRANCH   6   7
ATOM      7  C   UNL     1       0.204  -0.083  23.833  0.00  0.00    +0.091 C 
BRANCH   7   8
ATOM      8  C   UNL     1       0.868  -0.030  23.345  0.00  0.00    +0.227 A 
ATOM      9  N   UNL     1       0.874  -0.121  22.525  0.00  0.00    -0.111 NA
ATOM     10  N   UNL     1       1.651  -0.024  22.265  0.00  0.00    -0.107 NA
ATOM     11  C   UNL     1       2.124   0.127  22.924  0.00  0.00    +0.250 A 
ATOM     12  O   UNL     1       1.639   0.123  23.592  0.00  0.00    -0.420 OA
BRANCH  11  13
ATOM     13  C   UNL     1       2.938   0.258  22.917  0.00  0.00    +0.055 A 
ATOM     14  C   UNL     1       3.235   1.000  22.713  0.00  0.00    +0.005 A 
ATOM     15  C   UNL     1       4.049   1.133  22.705  0.00  0.00    +0.000 A 
ATOM     16  C   UNL     1       4.567   0.521  22.904  0.00  0.00    +0.000 A 
ATOM     17  C   UNL     1       4.272  -0.221  23.109  0.00  0.00    +0.000 A 
ATOM     18  C   UNL     1       3.456  -0.352  23.115  0.00  0.00    +0.005 A 
ENDBRANCH  11  13
ENDBRANCH   7   8
ENDBRANCH   6   7
BRANCH  22  23
ATOM     23  C   UNL     1      -1.706   2.564  24.314  0.00  0.00    +0.076 C 
BRANCH  23  24
ATOM     24  N   UNL     1      -2.502   2.469  24.505  0.00  0.00    -0.269 NA
ATOM     25  C   UNL     1      -3.064   2.385  23.906  0.00  0.00    +0.094 C 
ATOM     26  C   UNL     1      -3.860   2.289  24.098  0.00  0.00    +0.111 C 
ATOM     27  N   UNL     1      -4.095   2.278  24.889  0.00  0.00    -0.275 N 
ATOM     28  C   UNL     1      -3.535   2.362  25.487  0.00  0.00    +0.111 C 
ATOM     29  C   UNL     1      -2.738   2.458  25.296  0.00  0.00    +0.094 C 
ATOM     30  C   UNL     1      -4.893   2.183  25.081  0.00  0.00    +0.220 A 
ATOM     31  N   UNL     1      -5.454   2.099  24.481  0.00  0.00    -0.212 NA
ATOM     32  C   UNL     1      -6.251   2.004  24.673  0.00  0.00    +0.103 A 
ATOM     33  C   UNL     1      -6.487   1.992  25.464  0.00  0.00    +0.041 A 
ATOM     34  C   UNL     1      -5.925   2.077  26.062  0.00  0.00    +0.103 A 
ATOM     35  N   UNL     1      -5.128   2.172  25.871  0.00  0.00    -0.212 NA
ENDBRANCH  23  24
ENDBRANCH  22  23
TORSDOF 6
ENDMDL
MODEL 6
REMARK VINA RESULT:      -8.3      1.725      2.628
REMARK  Name = 
REMARK  6 active torsions:
REMARK  status: ('A' for Active; 'I' for Inactive)
REMARK    1  A    between atoms: C_2  and  C_4
REMARK    2  A    between atoms: C_6  and  C_7
REMARK    3  A    between atoms: C_7  and  C_8
REMARK    4  A    between atoms: C_11  and  C_13
REMARK    5  A    between atoms: C_22  and  C_23
REMARK    6  A    between atoms: C_23  and  N_24
REMARK                            x       y       z     vdW  Elec       q    Type
REMARK                         _______ _______ _______ _____ _____    ______ ____
ROOT
ATOM      4  C   UNL     1      -1.725   2.223  24.939  0.00  0.00    +0.006 C 
ATOM      5  C   UNL     1      -2.501   2.025  24.744  0.00  0.00    +0.005 C 
ATOM      6  C   UNL     1      -2.695   1.827  23.967  0.00  0.00    +0.027 C 
ATOM     19  C   UNL     1      -2.111   1.827  23.384  0.00  0.00    -0.048 C 
ATOM     20  C   UNL     1      -2.303   1.629  22.607  0.00  0.00    +0.026 C 
ATOM     21  C   UNL     1      -1.333   2.025  23.579  0.00  0.00    -0.034 C 
ATOM     22  C   UNL     1      -1.141   2.223  24.356  0.00  0.00    +0.037 C 
ENDROOT
BRANCH   4   2
ATOM      1  C   UNL     1      -1.569   3.207  25.963  0.00  0.00    +0.000 C 
ATOM      2  C   UNL     1      -1.532   2.421  25.716  0.00  0.00    +0.000 C 
ATOM      3  C   UNL     1      -1.302   1.832  26.247  0.00  0.00    +0.000 C 
ENDBRANCH   4   2
BRANCH   6   7
ATOM      7  C   UNL     1      -3.471   1.629  23.772  0.00  0.00    +0.091 C 
BRANCH   7   8
ATOM      8  C   UNL     1      -3.811   0.942  24.079  0.00  0.00    +0.227 A 
ATOM      9  N   UNL     1      -4.502   0.903  24.528  0.00  0.00    -0.111 NA
ATOM     10  N   UNL     1      -4.638   0.111  24.717  0.00  0.00    -0.107 NA
ATOM     11  C   UNL     1      -4.031  -0.338  24.385  0.00  0.00    +0.250 A 
ATOM     12  O   UNL     1      -3.519   0.176  23.991  0.00  0.00    -0.420 OA
BRANCH  11  13
ATOM     13  C   UNL     1      -3.948  -1.157  24.438  0.00  0.00    +0.055 A 
ATOM     14  C   UNL     1      -4.257  -1.642  23.846  0.00  0.00    +0.005 A 
ATOM     15  C   UNL     1      -4.175  -2.461  23.898  0.00  0.00    +0.000 A 
ATOM     16  C   UNL     1      -3.784  -2.796  24.543  0.00  0.00    +0.000 A 
ATOM     17  C   UNL     1      -3.475  -2.312  25.136  0.00  0.00    +0.000 A 
ATOM     18  C   UNL     1      -3.558  -1.492  25.082  0.00  0.00    +0.005 A 
ENDBRANCH  11  13
ENDBRANCH   7   8
ENDBRANCH   6   7
BRANCH  22  23
ATOM     23  C   UNL     1      -0.364   2.421  24.551  0.00  0.00    +0.076 C 
BRANCH  23  24
ATOM     24  N   UNL     1       0.264   2.015  24.205  0.00  0.00    -0.269 NA
ATOM     25  C   UNL     1       0.921   2.431  23.926  0.00  0.00    +0.094 C 
ATOM     26  C   UNL     1       1.550   2.024  23.580  0.00  0.00    +0.111 C 
ATOM     27  N   UNL     1       1.521   1.202  23.512  0.00  0.00    -0.275 N 
ATOM     28  C   UNL     1       0.865   0.787  23.790  0.00  0.00    +0.111 C 
ATOM     29  C   UNL     1       0.237   1.194  24.136  0.00  0.00    +0.094 C 
ATOM     30  C   UNL     1       2.151   0.795  23.165  0.00  0.00    +0.220 A 
ATOM     31  N   UNL     1       2.807   1.211  22.887  0.00  0.00    -0.212 NA
ATOM     32  C   UNL     1       3.436   0.804  22.541  0.00  0.00    +0.103 A 
ATOM     33  C   UNL     1       3.408  -0.018  22.472  0.00  0.00    +0.041 A 
ATOM     34  C   UNL     1       2.752  -0.433  22.750  0.00  0.00    +0.103 A 
ATOM     35  N   UNL     1       2.123  -0.026  23.097  0.00  0.00    -0.212 NA
ENDBRANCH  23  24
ENDBRANCH  22  23
TORSDOF 6
ENDMDL
MODEL 7
REMARK VINA RESULT:      -8.3      2.138      5.752
REMARK  Name = 
REMARK  6 active torsions:
REMARK  status: ('A' for Active; 'I' for Inactive)
REMARK    1  A    between atoms: C_2  and  C_4
REMARK    2  A    between atoms: C_6  and  C_7
REMARK    3  A    between atoms: C_7  and  C_8
REMARK    4  A    between atoms: C_11  and  C_13
REMARK    5  A    between atoms: C_22  and  C_23
REMARK    6  A    between atoms: C_23  and  N_24
REMARK                            x       y       z     vdW  Elec       q    Type
REMARK                         _______ _______ _______ _____ _____    ______ ____
ROOT
ATOM      4  C   UNL     1      -0.505   2.049  25.254  0.00  0.00    +0.006 C 
ATOM      5  C   UNL     1      -0.243   1.346  24.911  0.00  0.00    +0.005 C 
ATOM      6  C   UNL     1      -0.573   1.084  24.202  0.00  0.00    +0.027 C 
ATOM     19  C   UNL     1      -1.167   1.525  23.836  0.00  0.00    -0.048 C 
ATOM     20  C   UNL     1      -1.498   1.263  23.127  0.00  0.00    +0.026 C 
ATOM     21  C   UNL     1      -1.430   2.228  24.179  0.00  0.00    -0.034 C 
ATOM     22  C   UNL     1      -1.099   2.490  24.888  0.00  0.00    +0.037 C 
ENDROOT
BRANCH   4   2
ATOM      1  C   UNL     1      -0.374   1.942  26.672  0.00  0.00    +0.000 C 
ATOM      2  C   UNL     1      -0.175   2.311  25.962  0.00  0.00    +0.000 C 
ATOM      3  C   UNL     1       0.357   2.943  25.960  0.00  0.00    +0.000 C 
ENDBRANCH   4   2
BRANCH   6   7
ATOM      7  C   UNL     1      -0.311   0.381  23.859  0.00  0.00    +0.091 C 
BRANCH   7   8
ATOM      8  C   UNL     1      -0.557  -0.345  24.166  0.00  0.00    +0.227 A 
ATOM      9  N   UNL     1      -0.066  -0.929  24.479  0.00  0.00    -0.111 NA
ATOM     10  N   UNL     1      -0.542  -1.559  24.720  0.00  0.00    -0.107 NA
ATOM     11  C   UNL     1      -1.326  -1.363  24.556  0.00  0.00    +0.250 A 
ATOM     12  O   UNL     1      -1.335  -0.612  24.214  0.00  0.00    -0.420 OA
BRANCH  11  13
ATOM     13  C   UNL     1      -1.986  -1.834  24.708  0.00  0.00    +0.055 A 
ATOM     14  C   UNL     1      -2.540  -1.599  25.273  0.00  0.00    +0.005 A 
ATOM     15  C   UNL     1      -3.200  -2.069  25.425  0.00  0.00    +0.000 A 
ATOM     16  C   UNL     1      -3.306  -2.776  25.012  0.00  0.00    +0.000 A 
ATOM     17  C   UNL     1      -2.753  -3.012  24.448  0.00  0.00    +0.000 A 
ATOM     18  C   UNL     1      -2.092  -2.540  24.296  0.00  0.00    +0.005 A 
ENDBRANCH  11  13
ENDBRANCH   7   8
ENDBRANCH   6   7
BRANCH  22  23
ATOM     23  C   UNL     1      -1.362   3.193  25.230  0.00  0.00    +0.076 C 
BRANCH  23  24
ATOM     24  N   UNL     1      -2.169   3.346  25.288  0.00  0.00    -0.269 NA
ATOM     25  C   UNL     1      -2.476   4.058  25.005  0.00  0.00    +0.094 C 
ATOM     26  C   UNL     1      -3.284   4.212  25.063  0.00  0.00    +0.111 C 
ATOM     27  N   UNL     1      -3.786   3.653  25.406  0.00  0.00    -0.275 N 
ATOM     28  C   UNL     1      -3.480   2.942  25.689  0.00  0.00    +0.111 C 
ATOM     29  C   UNL     1      -2.672   2.788  25.630  0.00  0.00    +0.094 C 
ATOM     30  C   UNL     1      -4.596   3.807  25.464  0.00  0.00    +0.220 A 
ATOM     31  N   UNL     1      -4.901   4.519  25.181  0.00  0.00    -0.212 NA
ATOM     32  C   UNL     1      -5.710   4.673  25.239  0.00  0.00    +0.103 A 
ATOM     33  C   UNL     1      -6.212   4.114  25.582  0.00  0.00    +0.041 A 
ATOM     34  C   UNL     1      -5.906   3.403  25.865  0.00  0.00    +0.103 A 
ATOM     35  N   UNL     1      -5.097   3.249  25.806  0.00  0.00    -0.212 NA
ENDBRANCH  23  24
ENDBRANCH  22  23
TORSDOF 6
ENDMDL
