REMARK  Name = 
REMARK  3 active torsions:
REMARK  status: ('A' for Active; 'I' for Inactive)
REMARK    1  A    between atoms: N_9  and  C_10
REMARK    2  A    between atoms: C_10  and  C_11
REMARK    3  A    between atoms: C_20  and  C_21
REMARK                            x       y       z     vdW  Elec       q    Type
REMARK                         _______ _______ _______ _____ _____    ______ ____
ROOT
ATOM      1  O   UNL     1       0.679  -3.514   0.000  0.00  0.00    -0.267 OA
ATOM      2  C   UNL     1       1.157  -2.841   0.000  0.00  0.00    +0.261 A 
ATOM      3  N   UNL     1       0.813  -2.091   0.000  0.00  0.00    -0.299 N 
ATOM      4  C   UNL     1       1.629  -1.912   0.000  0.00  0.00    +0.110 C 
ATOM      5  C   UNL     1       1.582  -0.925   0.000  0.00  0.00    +0.039 C 
ATOM      6  C   UNL     1       1.713  -0.121   0.000  0.00  0.00    +0.011 C 
ATOM      7  C   UNL     1       1.163  -0.557   0.000  0.00  0.00    +0.054 C 
ATOM      8  C   UNL     1       0.244  -0.558   0.000  0.00  0.00    +0.078 C 
ATOM      9  N   UNL     1       0.117  -1.360   0.000  0.00  0.00    -0.268 NA
ATOM     16  C   UNL     1       0.622  -0.936   0.000  0.00  0.00    +0.074 C 
ATOM     17  C   UNL     1       1.290  -1.419   0.000  0.00  0.00    +0.041 A 
ATOM     18  C   UNL     1       2.111  -1.496   0.000  0.00  0.00    +0.013 A 
ATOM     19  C   UNL     1       2.455  -2.245   0.000  0.00  0.00    +0.006 A 
ATOM     20  C   UNL     1       1.978  -2.918   0.000  0.00  0.00    +0.059 A 
ENDROOT
BRANCH  20  21
ATOM     21  C   UNL     1       2.322  -3.668   0.000  0.00  0.00    +0.043 A 
ATOM     22  C   UNL     1       3.144  -3.745   0.000  0.00  0.00    +0.102 A 
ATOM     23  N   UNL     1       3.488  -4.495   0.000  0.00  0.00    -0.222 NA
ATOM     24  C   UNL     1       3.010  -5.168   0.000  0.00  0.00    +0.199 A 
ATOM     25  N   UNL     1       2.189  -5.091   0.000  0.00  0.00    -0.222 NA
ATOM     26  C   UNL     1       1.845  -4.341   0.000  0.00  0.00    +0.102 A 
ENDBRANCH  20  21
BRANCH   9  10
ATOM     10  C   UNL     1      -0.288  -2.078   0.000  0.00  0.00    +0.106 C 
BRANCH  10  11
ATOM     11  C   UNL     1      -1.113  -2.086   0.000  0.00  0.00    +0.023 A 
ATOM     12  C   UNL     1      -1.592  -2.758   0.000  0.00  0.00    +0.004 A 
ATOM     13  C   UNL     1      -2.379  -2.510   0.000  0.00  0.00    +0.007 A 
ATOM     14  C   UNL     1      -2.387  -1.685   0.000  0.00  0.00    +0.035 A 
ATOM     15  S   UNL     1      -1.604  -1.423   0.000  0.00  0.00    -0.089 S 
ENDBRANCH  10  11
ENDBRANCH   9  10
TORSDOF 3
