REMARK  Name = 
REMARK  4 active torsions:
REMARK  status: ('A' for Active; 'I' for Inactive)
REMARK    1  A    between atoms: C_2  and  C_17
REMARK    2  A    between atoms: C_8  and  O_10
REMARK    3  A    between atoms: O_10  and  C_11
REMARK    4  A    between atoms: C_20  and  C_23
REMARK                            x       y       z     vdW  Elec       q    Type
REMARK                         _______ _______ _______ _____ _____    ______ ____
ROOT
ATOM      1  O   UNL     1       3.667   6.260   0.000  0.00  0.00    -0.270 OA
ATOM      2  C   UNL     1       4.472   6.076   0.000  0.00  0.00    +0.249 C 
ATOM      3  N   UNL     1       4.715   5.288   0.000  0.00  0.00    -0.270 N 
ATOM      4  C   UNL     1       5.531   5.165   0.000  0.00  0.00    +0.126 C 
ATOM      5  C   UNL     1       5.943   4.450   0.000  0.00  0.00    +0.164 C 
ATOM      6  O   UNL     1       5.642   3.682   0.000  0.00  0.00    -0.348 OA
ATOM      7  C   UNL     1       4.853   3.439   0.000  0.00  0.00    +0.187 C 
ATOM      8  C   UNL     1       4.172   3.904   0.000  0.00  0.00    +0.217 C 
ATOM      9  C   UNL     1       4.110   4.727   0.000  0.00  0.00    +0.140 C 
ENDROOT
BRANCH   2  17
ATOM     17  C   UNL     1       5.033   6.681   0.000  0.00  0.00    +0.054 A 
ATOM     18  C   UNL     1       4.790   7.469   0.000  0.00  0.00    +0.005 A 
ATOM     19  C   UNL     1       5.351   8.074   0.000  0.00  0.00    +0.010 A 
ATOM     20  C   UNL     1       6.155   7.890   0.000  0.00  0.00    +0.068 A 
ATOM     21  C   UNL     1       6.398   7.102   0.000  0.00  0.00    +0.010 A 
ATOM     22  C   UNL     1       5.837   6.497   0.000  0.00  0.00    +0.005 A 
BRANCH  20  23
ATOM     23  C   UNL     1       6.716   8.495   0.000  0.00  0.00    +0.100 C 
ATOM     24  N   UNL     1       7.277   9.100   0.000  0.00  0.00    -0.191 NA
ENDBRANCH  20  23
ENDBRANCH   2  17
BRANCH   8  10
ATOM     10  O   UNL     1       3.457   3.491   0.000  0.00  0.00    -0.459 OA
BRANCH  10  11
ATOM     11  C   UNL     1       3.457   2.666   0.000  0.00  0.00    +0.245 A 
ATOM     12  C   UNL     1       4.172   2.254   0.000  0.00  0.00    +0.156 A 
ATOM     13  N   UNL     1       4.172   1.429   0.000  0.00  0.00    -0.236 NA
ATOM     14  C   UNL     1       3.457   1.016   0.000  0.00  0.00    +0.120 A 
ATOM     15  C   UNL     1       2.743   1.429   0.000  0.00  0.00    +0.123 A 
ATOM     16  N   UNL     1       2.743   2.254   0.000  0.00  0.00    -0.207 NA
ENDBRANCH  10  11
ENDBRANCH   8  10
TORSDOF 4
