MODEL 1
REMARK VINA RESULT:     -12.0      0.000      0.000
REMARK  Name = 
REMARK  7 active torsions:
REMARK  status: ('A' for Active; 'I' for Inactive)
REMARK    1  A    between atoms: O_2  and  C_3
REMARK    2  A    between atoms: C_3  and  C_5
REMARK    3  A    between atoms: C_11  and  C_13
REMARK    4  A    between atoms: C_13  and  O_14
REMARK    5  A    between atoms: O_14  and  C_15
REMARK    6  A    between atoms: N_21  and  C_22
REMARK    7  A    between atoms: C_22  and  C_23
REMARK                            x       y       z     vdW  Elec       q    Type
REMARK                         _______ _______ _______ _____ _____    ______ ____
ROOT
ATOM      5  C   UNL     1      -0.642   0.897  24.915  0.00  0.00    +0.181 C 
ATOM      6  C   UNL     1      -0.383   0.129  24.766  0.00  0.00    +0.078 C 
ATOM      7  C   UNL     1      -0.906  -0.505  24.840  0.00  0.00    +0.076 A 
ATOM      8  C   UNL     1      -1.689  -0.370  25.062  0.00  0.00    +0.072 A 
ATOM      9  C   UNL     1      -1.949   0.400  25.211  0.00  0.00    +0.139 C 
ATOM     10  N   UNL     1      -1.425   1.032  25.137  0.00  0.00    -0.262 N 
ATOM     11  C   UNL     1      -1.685   1.801  25.286  0.00  0.00    +0.271 C 
ATOM     12  O   UNL     1      -2.468   1.936  25.508  0.00  0.00    -0.271 OA
ATOM     21  N   UNL     1      -2.075  -1.098  25.090  0.00  0.00    -0.307 N 
ATOM     29  C   UNL     1      -1.532  -1.683  24.885  0.00  0.00    +0.178 A 
ATOM     30  N   UNL     1      -0.809  -1.316  24.730  0.00  0.00    -0.229 NA
ENDROOT
BRANCH   5   3
ATOM      3  C   UNL     1      -0.119   1.530  24.841  0.00  0.00    +0.336 C 
ATOM      4  O   UNL     1       0.199   1.883  25.516  0.00  0.00    -0.248 OA
BRANCH   3   2
ATOM      1  C   UNL     1       0.879   1.874  23.878  0.00  0.00    +0.256 C 
ATOM      2  O   UNL     1       0.086   1.812  24.093  0.00  0.00    -0.443 OA
ENDBRANCH   3   2
ENDBRANCH   5   3
BRANCH  11  13
ATOM     13  C   UNL     1      -1.161   2.435  25.212  0.00  0.00    +0.290 C 
BRANCH  13  14
ATOM     14  O   UNL     1      -1.181   3.052  25.760  0.00  0.00    -0.466 OA
BRANCH  14  15
ATOM     15  C   UNL     1      -1.319   3.825  25.505  0.00  0.00    +0.139 A 
ATOM     16  C   UNL     1      -2.070   4.157  25.586  0.00  0.00    +0.037 A 
ATOM     17  C   UNL     1      -2.208   4.930  25.331  0.00  0.00    +0.003 A 
ATOM     18  C   UNL     1      -1.595   5.370  24.995  0.00  0.00    +0.000 A 
ATOM     19  C   UNL     1      -0.845   5.036  24.915  0.00  0.00    +0.003 A 
ATOM     20  C   UNL     1      -0.707   4.264  25.169  0.00  0.00    +0.037 A 
ENDBRANCH  14  15
ENDBRANCH  13  14
ENDBRANCH  11  13
BRANCH  21  22
ATOM     22  C   UNL     1      -2.867  -1.219  25.288  0.00  0.00    +0.134 C 
BRANCH  22  23
ATOM     23  C   UNL     1      -3.344  -1.694  24.811  0.00  0.00    +0.000 A 
ATOM     24  C   UNL     1      -3.327  -2.515  24.898  0.00  0.00    -0.002 A 
ATOM     25  C   UNL     1      -3.804  -2.990  24.421  0.00  0.00    -0.000 A 
ATOM     26  C   UNL     1      -4.297  -2.644  23.856  0.00  0.00    -0.000 A 
ATOM     27  C   UNL     1      -4.314  -1.824  23.769  0.00  0.00    -0.000 A 
ATOM     28  C   UNL     1      -3.837  -1.349  24.247  0.00  0.00    -0.002 A 
ENDBRANCH  22  23
ENDBRANCH  21  22
TORSDOF 7
ENDMDL
MODEL 2
REMARK VINA RESULT:     -11.8      1.374      5.273
REMARK  Name = 
REMARK  7 active torsions:
REMARK  status: ('A' for Active; 'I' for Inactive)
REMARK    1  A    between atoms: O_2  and  C_3
REMARK    2  A    between atoms: C_3  and  C_5
REMARK    3  A    between atoms: C_11  and  C_13
REMARK    4  A    between atoms: C_13  and  O_14
REMARK    5  A    between atoms: O_14  and  C_15
REMARK    6  A    between atoms: N_21  and  C_22
REMARK    7  A    between atoms: C_22  and  C_23
REMARK                            x       y       z     vdW  Elec       q    Type
REMARK                         _______ _______ _______ _____ _____    ______ ____
ROOT
ATOM      5  C   UNL     1      -1.221   0.247  25.308  0.00  0.00    +0.181 C 
ATOM      6  C   UNL     1      -0.543   0.681  25.486  0.00  0.00    +0.078 C 
ATOM      7  C   UNL     1      -0.497   1.479  25.280  0.00  0.00    +0.076 A 
ATOM      8  C   UNL     1      -1.130   1.842  24.894  0.00  0.00    +0.072 A 
ATOM      9  C   UNL     1      -1.809   1.407  24.715  0.00  0.00    +0.139 C 
ATOM     10  N   UNL     1      -1.854   0.610  24.922  0.00  0.00    -0.262 N 
ATOM     11  C   UNL     1      -2.532   0.177  24.743  0.00  0.00    +0.271 C 
ATOM     12  O   UNL     1      -3.165   0.540  24.358  0.00  0.00    -0.271 OA
ATOM     21  N   UNL     1      -0.928   2.630  24.760  0.00  0.00    -0.307 N 
ATOM     29  C   UNL     1      -0.171   2.754  25.062  0.00  0.00    +0.178 A 
ATOM     30  N   UNL     1       0.095   2.043  25.383  0.00  0.00    -0.229 NA
ENDROOT
BRANCH   5   3
ATOM      3  C   UNL     1      -1.267  -0.550  25.514  0.00  0.00    +0.336 C 
ATOM      4  O   UNL     1      -1.690  -0.778  26.184  0.00  0.00    -0.248 OA
BRANCH   3   2
ATOM      1  C   UNL     1      -0.403  -1.682  25.404  0.00  0.00    +0.256 C 
ATOM      2  O   UNL     1      -0.890  -1.119  25.051  0.00  0.00    -0.443 OA
ENDBRANCH   3   2
ENDBRANCH   5   3
BRANCH  11  13
ATOM     13  C   UNL     1      -2.578  -0.621  24.950  0.00  0.00    +0.290 C 
BRANCH  13  14
ATOM     14  O   UNL     1      -3.305  -0.953  25.154  0.00  0.00    -0.466 OA
BRANCH  14  15
ATOM     15  C   UNL     1      -3.585  -1.615  24.747  0.00  0.00    +0.139 A 
ATOM     16  C   UNL     1      -3.444  -2.371  25.046  0.00  0.00    +0.037 A 
ATOM     17  C   UNL     1      -3.724  -3.033  24.640  0.00  0.00    +0.003 A 
ATOM     18  C   UNL     1      -4.143  -2.939  23.936  0.00  0.00    +0.000 A 
ATOM     19  C   UNL     1      -4.282  -2.182  23.638  0.00  0.00    +0.003 A 
ATOM     20  C   UNL     1      -4.003  -1.521  24.043  0.00  0.00    +0.037 A 
ENDBRANCH  14  15
ENDBRANCH  13  14
ENDBRANCH  11  13
BRANCH  21  22
ATOM     22  C   UNL     1      -1.401   3.195  24.388  0.00  0.00    +0.134 C 
BRANCH  22  23
ATOM     23  C   UNL     1      -1.453   3.958  24.698  0.00  0.00    +0.000 A 
ATOM     24  C   UNL     1      -0.878   4.520  24.510  0.00  0.00    -0.002 A 
ATOM     25  C   UNL     1      -0.930   5.282  24.820  0.00  0.00    -0.000 A 
ATOM     26  C   UNL     1      -1.557   5.483  25.319  0.00  0.00    -0.000 A 
ATOM     27  C   UNL     1      -2.131   4.922  25.507  0.00  0.00    -0.000 A 
ATOM     28  C   UNL     1      -2.079   4.159  25.196  0.00  0.00    -0.002 A 
ENDBRANCH  22  23
ENDBRANCH  21  22
TORSDOF 7
ENDMDL
MODEL 3
REMARK VINA RESULT:     -11.7      1.725      2.754
REMARK  Name = 
REMARK  7 active torsions:
REMARK  status: ('A' for Active; 'I' for Inactive)
REMARK    1  A    between atoms: O_2  and  C_3
REMARK    2  A    between atoms: C_3  and  C_5
REMARK    3  A    between atoms: C_11  and  C_13
REMARK    4  A    between atoms: C_13  and  O_14
REMARK    5  A    between atoms: O_14  and  C_15
REMARK    6  A    between atoms: N_21  and  C_22
REMARK    7  A    between atoms: C_22  and  C_23
REMARK                            x       y       z     vdW  Elec       q    Type
REMARK                         _______ _______ _______ _____ _____    ______ ____
ROOT
ATOM      5  C   UNL     1      -4.044   2.319  25.146  0.00  0.00    +0.181 C 
ATOM      6  C   UNL     1      -4.725   1.856  25.129  0.00  0.00    +0.078 C 
ATOM      7  C   UNL     1      -4.685   1.071  24.877  0.00  0.00    +0.076 A 
ATOM      8  C   UNL     1      -3.962   0.750  24.643  0.00  0.00    +0.072 A 
ATOM      9  C   UNL     1      -3.279   1.214  24.660  0.00  0.00    +0.139 C 
ATOM     10  N   UNL     1      -3.321   1.998  24.912  0.00  0.00    -0.262 N 
ATOM     11  C   UNL     1      -2.638   2.461  24.929  0.00  0.00    +0.271 C 
ATOM     12  O   UNL     1      -1.915   2.140  24.695  0.00  0.00    -0.271 OA
ATOM     21  N   UNL     1      -4.091  -0.034  24.423  0.00  0.00    -0.307 N 
ATOM     29  C   UNL     1      -4.893  -0.198  24.521  0.00  0.00    +0.178 A 
ATOM     30  N   UNL     1      -5.260   0.485  24.802  0.00  0.00    -0.229 NA
ENDROOT
BRANCH   5   3
ATOM      3  C   UNL     1      -4.084   3.103  25.398  0.00  0.00    +0.336 C 
ATOM      4  O   UNL     1      -3.791   3.314  26.140  0.00  0.00    -0.248 OA
BRANCH   3   2
ATOM      1  C   UNL     1      -5.006   4.177  25.198  0.00  0.00    +0.256 C 
ATOM      2  O   UNL     1      -4.417   3.678  24.908  0.00  0.00    -0.443 OA
ENDBRANCH   3   2
ENDBRANCH   5   3
BRANCH  11  13
ATOM     13  C   UNL     1      -2.679   3.246  25.181  0.00  0.00    +0.290 C 
BRANCH  13  14
ATOM     14  O   UNL     1      -2.061   3.570  25.621  0.00  0.00    -0.466 OA
BRANCH  14  15
ATOM     15  C   UNL     1      -1.628   4.205  25.318  0.00  0.00    +0.139 A 
ATOM     16  C   UNL     1      -1.933   4.970  25.362  0.00  0.00    +0.037 A 
ATOM     17  C   UNL     1      -1.500   5.604  25.059  0.00  0.00    +0.003 A 
ATOM     18  C   UNL     1      -0.763   5.473  24.713  0.00  0.00    +0.000 A 
ATOM     19  C   UNL     1      -0.459   4.707  24.670  0.00  0.00    +0.003 A 
ATOM     20  C   UNL     1      -0.891   4.073  24.972  0.00  0.00    +0.037 A 
ENDBRANCH  14  15
ENDBRANCH  13  14
ENDBRANCH  11  13
BRANCH  21  22
ATOM     22  C   UNL     1      -3.518  -0.562  24.152  0.00  0.00    +0.134 C 
BRANCH  22  23
ATOM     23  C   UNL     1      -3.606  -1.371  24.286  0.00  0.00    +0.000 A 
ATOM     24  C   UNL     1      -3.266  -1.719  24.953  0.00  0.00    -0.002 A 
ATOM     25  C   UNL     1      -3.354  -2.528  25.087  0.00  0.00    -0.000 A 
ATOM     26  C   UNL     1      -3.783  -2.990  24.554  0.00  0.00    -0.000 A 
ATOM     27  C   UNL     1      -4.123  -2.643  23.888  0.00  0.00    -0.000 A 
ATOM     28  C   UNL     1      -4.034  -1.834  23.754  0.00  0.00    -0.002 A 
ENDBRANCH  22  23
ENDBRANCH  21  22
TORSDOF 7
ENDMDL
MODEL 4
REMARK VINA RESULT:     -10.8      1.851      5.812
REMARK  Name = 
REMARK  7 active torsions:
REMARK  status: ('A' for Active; 'I' for Inactive)
REMARK    1  A    between atoms: O_2  and  C_3
REMARK    2  A    between atoms: C_3  and  C_5
REMARK    3  A    between atoms: C_11  and  C_13
REMARK    4  A    between atoms: C_13  and  O_14
REMARK    5  A    between atoms: O_14  and  C_15
REMARK    6  A    between atoms: N_21  and  C_22
REMARK    7  A    between atoms: C_22  and  C_23
REMARK                            x       y       z     vdW  Elec       q    Type
REMARK                         _______ _______ _______ _____ _____    ______ ____
ROOT
ATOM      5  C   UNL     1      -4.132   1.725  24.953  0.00  0.00    +0.181 C 
ATOM      6  C   UNL     1      -4.396   2.489  25.115  0.00  0.00    +0.078 C 
ATOM      7  C   UNL     1      -3.857   3.075  25.332  0.00  0.00    +0.076 A 
ATOM      8  C   UNL     1      -3.053   2.895  25.387  0.00  0.00    +0.072 A 
ATOM      9  C   UNL     1      -2.789   2.130  25.225  0.00  0.00    +0.139 C 
ATOM     10  N   UNL     1      -3.329   1.545  25.008  0.00  0.00    -0.262 N 
ATOM     11  C   UNL     1      -3.065   0.781  24.845  0.00  0.00    +0.271 C 
ATOM     12  O   UNL     1      -2.261   0.602  24.900  0.00  0.00    -0.271 OA
ATOM     21  N   UNL     1      -2.654   3.580  25.612  0.00  0.00    -0.307 N 
ATOM     29  C   UNL     1      -3.210   4.184  25.697  0.00  0.00    +0.178 A 
ATOM     30  N   UNL     1      -3.953   3.871  25.524  0.00  0.00    -0.229 NA
ENDROOT
BRANCH   5   3
ATOM      3  C   UNL     1      -4.671   1.140  24.736  0.00  0.00    +0.336 C 
ATOM      4  O   UNL     1      -4.708   0.883  23.953  0.00  0.00    -0.248 OA
BRANCH   3   2
ATOM      1  C   UNL     1      -5.992   0.878  25.214  0.00  0.00    +0.256 C 
ATOM      2  O   UNL     1      -5.175   0.812  25.301  0.00  0.00    -0.443 OA
ENDBRANCH   3   2
ENDBRANCH   5   3
BRANCH  11  13
ATOM     13  C   UNL     1      -3.605   0.196  24.628  0.00  0.00    +0.290 C 
BRANCH  13  14
ATOM     14  O   UNL     1      -3.385  -0.387  24.087  0.00  0.00    -0.466 OA
BRANCH  14  15
ATOM     15  C   UNL     1      -3.530  -1.182  24.257  0.00  0.00    +0.139 A 
ATOM     16  C   UNL     1      -4.032  -1.622  23.771  0.00  0.00    +0.037 A 
ATOM     17  C   UNL     1      -4.177  -2.417  23.940  0.00  0.00    +0.003 A 
ATOM     18  C   UNL     1      -3.820  -2.771  24.594  0.00  0.00    +0.000 A 
ATOM     19  C   UNL     1      -3.319  -2.330  25.079  0.00  0.00    +0.003 A 
ATOM     20  C   UNL     1      -3.174  -1.537  24.911  0.00  0.00    +0.037 A 
ENDBRANCH  14  15
ENDBRANCH  13  14
ENDBRANCH  11  13
BRANCH  21  22
ATOM     22  C   UNL     1      -1.840   3.650  25.732  0.00  0.00    +0.134 C 
BRANCH  22  23
ATOM     23  C   UNL     1      -1.406   4.204  25.302  0.00  0.00    +0.000 A 
ATOM     24  C   UNL     1      -0.813   3.953  24.786  0.00  0.00    -0.002 A 
ATOM     25  C   UNL     1      -0.378   4.507  24.356  0.00  0.00    -0.000 A 
ATOM     26  C   UNL     1      -0.538   5.312  24.442  0.00  0.00    -0.000 A 
ATOM     27  C   UNL     1      -1.130   5.563  24.957  0.00  0.00    -0.000 A 
ATOM     28  C   UNL     1      -1.564   5.009  25.387  0.00  0.00    -0.002 A 
ENDBRANCH  22  23
ENDBRANCH  21  22
TORSDOF 7
ENDMDL
