REMARK  Name = 
REMARK  5 active torsions:
REMARK  status: ('A' for Active; 'I' for Inactive)
REMARK    1  A    between atoms: C_3  and  C_4
REMARK    2  A    between atoms: C_4  and  N_5
REMARK    3  A    between atoms: C_6  and  C_8
REMARK    4  A    between atoms: C_14  and  C_15
REMARK    5  A    between atoms: C_15  and  C_16
REMARK                            x       y       z     vdW  Elec       q    Type
REMARK                         _______ _______ _______ _____ _____    ______ ____
ROOT
ATOM      1  O   UNL     1       1.429  -4.125   0.000  0.00  0.00    -0.218 OA
ATOM      2  C   UNL     1       1.429  -4.950   0.000  0.00  0.00    +0.213 C 
ATOM      3  C   UNL     1       2.096  -5.435   0.000  0.00  0.00    +0.170 C 
ATOM     13  O   UNL     1       1.841  -6.220   0.000  0.00  0.00    -0.351 OA
ATOM     14  C   UNL     1       1.016  -6.220   0.000  0.00  0.00    +0.157 C 
ATOM     30  C   UNL     1       0.761  -5.435   0.000  0.00  0.00    +0.212 C 
ATOM     31  O   UNL     1      -0.023  -5.180   0.000  0.00  0.00    -0.218 OA
ENDROOT
BRANCH   3   4
ATOM      4  C   UNL     1       2.881  -5.180   0.000  0.00  0.00    +0.148 C 
BRANCH   4   5
ATOM      5  N   UNL     1       3.053  -4.373   0.000  0.00  0.00    -0.196 NA
ATOM      6  C   UNL     1       3.837  -4.118   0.000  0.00  0.00    +0.300 C 
ATOM      7  O   UNL     1       4.450  -4.670   0.000  0.00  0.00    -0.265 OA
BRANCH   6   8
ATOM      8  C   UNL     1       4.009  -3.311   0.000  0.00  0.00    +0.200 A 
ATOM      9  C   UNL     1       3.457  -2.698   0.000  0.00  0.00    +0.046 A 
ATOM     10  C   UNL     1       3.869  -1.984   0.000  0.00  0.00    +0.044 A 
ATOM     11  C   UNL     1       4.676  -2.155   0.000  0.00  0.00    +0.180 A 
ATOM     12  O   UNL     1       4.762  -2.975   0.000  0.00  0.00    -0.446 OA
ENDBRANCH   6   8
ENDBRANCH   4   5
ENDBRANCH   3   4
BRANCH  14  15
ATOM     15  C   UNL     1       0.531  -6.887   0.000  0.00  0.00    +0.117 C 
BRANCH  15  16
ATOM     16  C   UNL     1       0.867  -7.641   0.000  0.00  0.00    +0.228 C 
ATOM     17  O   UNL     1       1.688  -7.727   0.000  0.00  0.00    -0.275 OA
ATOM     18  N   UNL     1       0.382  -8.308   0.000  0.00  0.00    -0.276 N 
ATOM     19  C   UNL     1       0.718  -9.062   0.000  0.00  0.00    +0.115 C 
ATOM     20  C   UNL     1       0.233  -9.729   0.000  0.00  0.00    +0.114 C 
ATOM     21  N   UNL     1      -0.588  -9.643   0.000  0.00  0.00    -0.290 N 
ATOM     22  C   UNL     1      -0.923  -8.889   0.000  0.00  0.00    +0.114 C 
ATOM     23  C   UNL     1      -0.438  -8.222   0.000  0.00  0.00    +0.115 C 
ATOM     24  C   UNL     1      -1.073 -10.310   0.000  0.00  0.00    +0.132 A 
ATOM     25  N   UNL     1      -0.737 -11.064   0.000  0.00  0.00    -0.229 NA
ATOM     26  C   UNL     1      -1.222 -11.732   0.000  0.00  0.00    +0.100 A 
ATOM     27  C   UNL     1      -2.042 -11.645   0.000  0.00  0.00    +0.021 A 
ATOM     28  C   UNL     1      -2.378 -10.892   0.000  0.00  0.00    +0.004 A 
ATOM     29  C   UNL     1      -1.893 -10.224   0.000  0.00  0.00    +0.034 A 
ENDBRANCH  15  16
ENDBRANCH  14  15
TORSDOF 5
