MODEL 1
REMARK VINA RESULT:      -8.9      0.000      0.000
REMARK  Name = 
REMARK  8 active torsions:
REMARK  status: ('A' for Active; 'I' for Inactive)
REMARK    1  A    between atoms: C_3  and  C_4
REMARK    2  A    between atoms: C_4  and  O_5
REMARK    3  A    between atoms: O_5  and  C_6
REMARK    4  A    between atoms: C_9  and  C_12
REMARK    5  A    between atoms: N_14  and  C_15
REMARK    6  A    between atoms: N_25  and  C_26
REMARK    7  A    between atoms: C_29  and  O_30
REMARK    8  A    between atoms: O_30  and  C_31
REMARK                            x       y       z     vdW  Elec       q    Type
REMARK                         _______ _______ _______ _____ _____    ______ ____
ROOT
ATOM     15  C   UNL     1      -1.570  -0.981  24.633  0.00  0.00    +0.146 C 
ATOM     16  C   UNL     1      -2.133  -0.381  24.689  0.00  0.00    +0.119 C 
ATOM     17  N   UNL     1      -2.938  -0.444  24.854  0.00  0.00    -0.261 N 
ATOM     18  C   UNL     1      -3.381  -1.125  25.003  0.00  0.00    +0.095 C 
ATOM     19  C   UNL     1      -3.127  -1.908  25.024  0.00  0.00    +0.024 C 
ATOM     20  C   UNL     1      -2.367  -2.207  24.901  0.00  0.00    +0.037 C 
ATOM     21  C   UNL     1      -1.674  -1.794  24.727  0.00  0.00    +0.174 C 
ATOM     22  O   UNL     1      -0.997  -2.255  24.635  0.00  0.00    -0.221 OA
ATOM     23  C   UNL     1      -3.357   0.267  24.873  0.00  0.00    +0.328 C 
ATOM     24  O   UNL     1      -4.167   0.265  25.033  0.00  0.00    -0.250 OA
ATOM     25  N   UNL     1      -2.967   0.979  24.731  0.00  0.00    -0.162 NA
ENDROOT
BRANCH  25  26
ATOM     26  C   UNL     1      -3.386   1.690  24.749  0.00  0.00    +0.075 A 
ATOM     27  C   UNL     1      -3.326   2.187  25.405  0.00  0.00    +0.020 A 
ATOM     28  C   UNL     1      -3.745   2.898  25.424  0.00  0.00    +0.039 A 
ATOM     29  C   UNL     1      -4.223   3.111  24.786  0.00  0.00    +0.147 A 
ATOM     35  C   UNL     1      -4.282   2.614  24.131  0.00  0.00    +0.039 A 
ATOM     36  C   UNL     1      -3.864   1.903  24.112  0.00  0.00    +0.020 A 
BRANCH  29  30
ATOM     30  O   UNL     1      -4.642   3.822  24.804  0.00  0.00    -0.404 OA
BRANCH  30  31
ATOM     31  C   UNL     1      -5.248   3.929  25.352  0.00  0.00    +0.575 C 
ATOM     32  F   UNL     1      -5.856   4.035  25.901  0.00  0.00    -0.133 F 
ATOM     33  F   UNL     1      -5.754   3.480  24.880  0.00  0.00    -0.133 F 
ATOM     34  F   UNL     1      -4.742   4.378  25.824  0.00  0.00    -0.133 F 
ENDBRANCH  30  31
ENDBRANCH  29  30
ENDBRANCH  25  26
BRANCH  15  14
ATOM     12  C   UNL     1      -0.629  -0.414  23.719  0.00  0.00    +0.265 C 
ATOM     13  O   UNL     1      -1.224  -0.337  23.154  0.00  0.00    -0.268 OA
ATOM     14  N   UNL     1      -0.801  -0.737  24.459  0.00  0.00    -0.199 NA
BRANCH  12   9
ATOM      6  C   UNL     1       1.677   0.318  23.197  0.00  0.00    +0.139 A 
ATOM      7  C   UNL     1       1.253   0.687  23.801  0.00  0.00    +0.037 A 
ATOM      8  C   UNL     1       0.485   0.443  23.975  0.00  0.00    +0.008 A 
ATOM      9  C   UNL     1       0.140  -0.170  23.545  0.00  0.00    +0.055 A 
ATOM     10  C   UNL     1       0.563  -0.540  22.941  0.00  0.00    +0.008 A 
ATOM     11  C   UNL     1       1.332  -0.295  22.767  0.00  0.00    +0.037 A 
BRANCH   6   5
ATOM      5  O   UNL     1       2.446   0.563  23.023  0.00  0.00    -0.470 OA
BRANCH   5   4
ATOM      4  C   UNL     1       3.028   0.003  22.857  0.00  0.00    +0.236 C 
BRANCH   4   3
ATOM      1  C   UNL     1       3.872   1.501  22.343  0.00  0.00    +0.075 C 
ATOM      2  C   UNL     1       4.210   0.871  22.754  0.00  0.00    +0.154 A 
ATOM      3  C   UNL     1       3.823   0.182  22.990  0.00  0.00    +0.071 A 
ATOM     37  C   UNL     1       4.369  -0.296  23.384  0.00  0.00    +0.100 A 
ATOM     38  C   UNL     1       4.216  -1.037  23.712  0.00  0.00    +0.055 C 
ATOM     39  N   UNL     1       5.094   0.098  23.390  0.00  0.00    -0.082 NA
ATOM     40  O   UNL     1       4.995   0.819  23.001  0.00  0.00    -0.358 OA
ENDBRANCH   4   3
ENDBRANCH   5   4
ENDBRANCH   6   5
ENDBRANCH  12   9
ENDBRANCH  15  14
TORSDOF 8
ENDMDL
MODEL 2
REMARK VINA RESULT:      -8.2      4.011      5.275
REMARK  Name = 
REMARK  8 active torsions:
REMARK  status: ('A' for Active; 'I' for Inactive)
REMARK    1  A    between atoms: C_3  and  C_4
REMARK    2  A    between atoms: C_4  and  O_5
REMARK    3  A    between atoms: O_5  and  C_6
REMARK    4  A    between atoms: C_9  and  C_12
REMARK    5  A    between atoms: N_14  and  C_15
REMARK    6  A    between atoms: N_25  and  C_26
REMARK    7  A    between atoms: C_29  and  O_30
REMARK    8  A    between atoms: O_30  and  C_31
REMARK                            x       y       z     vdW  Elec       q    Type
REMARK                         _______ _______ _______ _____ _____    ______ ____
ROOT
ATOM     15  C   UNL     1      -2.637   3.079  25.178  0.00  0.00    +0.146 C 
ATOM     16  C   UNL     1      -2.984   2.362  24.964  0.00  0.00    +0.119 C 
ATOM     17  N   UNL     1      -3.617   2.229  24.453  0.00  0.00    -0.261 N 
ATOM     18  C   UNL     1      -4.060   2.781  24.028  0.00  0.00    +0.095 C 
ATOM     19  C   UNL     1      -3.979   3.601  24.011  0.00  0.00    +0.024 C 
ATOM     20  C   UNL     1      -3.436   4.073  24.414  0.00  0.00    +0.037 C 
ATOM     21  C   UNL     1      -2.838   3.841  24.933  0.00  0.00    +0.174 C 
ATOM     22  O   UNL     1      -2.382   4.451  25.250  0.00  0.00    -0.221 OA
ATOM     23  C   UNL     1      -3.836   1.440  24.352  0.00  0.00    +0.328 C 
ATOM     24  O   UNL     1      -4.463   1.246  23.851  0.00  0.00    -0.250 OA
ATOM     25  N   UNL     1      -3.428   0.844  24.751  0.00  0.00    -0.162 NA
ENDROOT
BRANCH  25  26
ATOM     26  C   UNL     1      -3.647   0.055  24.650  0.00  0.00    +0.075 A 
ATOM     27  C   UNL     1      -3.687  -0.268  23.891  0.00  0.00    +0.020 A 
ATOM     28  C   UNL     1      -3.906  -1.057  23.790  0.00  0.00    +0.039 A 
ATOM     29  C   UNL     1      -4.085  -1.523  24.448  0.00  0.00    +0.147 A 
ATOM     35  C   UNL     1      -4.045  -1.199  25.205  0.00  0.00    +0.039 A 
ATOM     36  C   UNL     1      -3.826  -0.410  25.306  0.00  0.00    +0.020 A 
BRANCH  29  30
ATOM     30  O   UNL     1      -4.304  -2.312  24.347  0.00  0.00    -0.404 OA
BRANCH  30  31
ATOM     31  C   UNL     1      -3.725  -2.894  24.276  0.00  0.00    +0.575 C 
ATOM     32  F   UNL     1      -3.145  -3.477  24.205  0.00  0.00    -0.133 F 
ATOM     33  F   UNL     1      -3.681  -2.951  25.097  0.00  0.00    -0.133 F 
ATOM     34  F   UNL     1      -3.769  -2.838  23.454  0.00  0.00    -0.133 F 
ENDBRANCH  30  31
ENDBRANCH  29  30
ENDBRANCH  25  26
BRANCH  15  14
ATOM     12  C   UNL     1      -1.285   2.712  25.460  0.00  0.00    +0.265 C 
ATOM     13  O   UNL     1      -1.195   2.447  24.684  0.00  0.00    -0.268 OA
ATOM     14  N   UNL     1      -2.006   3.028  25.707  0.00  0.00    -0.199 NA
BRANCH  12   9
ATOM      6  C   UNL     1       0.608   2.559  27.047  0.00  0.00    +0.139 A 
ATOM      7  C   UNL     1       0.544   3.208  26.542  0.00  0.00    +0.037 A 
ATOM      8  C   UNL     1      -0.087   3.260  26.013  0.00  0.00    +0.008 A 
ATOM      9  C   UNL     1      -0.654   2.661  25.989  0.00  0.00    +0.055 A 
ATOM     10  C   UNL     1      -0.590   2.011  26.493  0.00  0.00    +0.008 A 
ATOM     11  C   UNL     1       0.041   1.961  27.023  0.00  0.00    +0.037 A 
BRANCH   6   5
ATOM      5  O   UNL     1       1.239   2.508  27.576  0.00  0.00    -0.470 OA
BRANCH   5   4
ATOM      4  C   UNL     1       1.217   2.928  28.286  0.00  0.00    +0.236 C 
BRANCH   4   3
ATOM      1  C   UNL     1       3.012   2.915  28.283  0.00  0.00    +0.075 C 
ATOM      2  C   UNL     1       2.526   2.695  28.913  0.00  0.00    +0.154 A 
ATOM      3  C   UNL     1       1.701   2.701  28.914  0.00  0.00    +0.071 A 
ATOM     37  C   UNL     1       1.445   2.441  29.655  0.00  0.00    +0.100 A 
ATOM     38  C   UNL     1       0.661   2.361  29.895  0.00  0.00    +0.055 C 
ATOM     39  N   UNL     1       2.112   2.274  30.111  0.00  0.00    -0.082 NA
ATOM     40  O   UNL     1       2.780   2.431  29.652  0.00  0.00    -0.358 OA
ENDBRANCH   4   3
ENDBRANCH   5   4
ENDBRANCH   6   5
ENDBRANCH  12   9
ENDBRANCH  15  14
TORSDOF 8
ENDMDL
MODEL 3
REMARK VINA RESULT:      -7.5      2.375      3.616
REMARK  Name = 
REMARK  8 active torsions:
REMARK  status: ('A' for Active; 'I' for Inactive)
REMARK    1  A    between atoms: C_3  and  C_4
REMARK    2  A    between atoms: C_4  and  O_5
REMARK    3  A    between atoms: O_5  and  C_6
REMARK    4  A    between atoms: C_9  and  C_12
REMARK    5  A    between atoms: N_14  and  C_15
REMARK    6  A    between atoms: N_25  and  C_26
REMARK    7  A    between atoms: C_29  and  O_30
REMARK    8  A    between atoms: O_30  and  C_31
REMARK                            x       y       z     vdW  Elec       q    Type
REMARK                         _______ _______ _______ _____ _____    ______ ____
ROOT
ATOM     15  C   UNL     1      -0.952   2.136  24.628  0.00  0.00    +0.146 C 
ATOM     16  C   UNL     1      -1.569   1.590  24.652  0.00  0.00    +0.119 C 
ATOM     17  N   UNL     1      -2.366   1.722  24.818  0.00  0.00    -0.261 N 
ATOM     18  C   UNL     1      -2.743   2.433  25.002  0.00  0.00    +0.095 C 
ATOM     19  C   UNL     1      -2.415   3.187  25.065  0.00  0.00    +0.024 C 
ATOM     20  C   UNL     1      -1.630   3.417  24.959  0.00  0.00    +0.037 C 
ATOM     21  C   UNL     1      -0.978   2.950  24.765  0.00  0.00    +0.174 C 
ATOM     22  O   UNL     1      -0.259   3.347  24.699  0.00  0.00    -0.221 OA
ATOM     23  C   UNL     1      -2.851   1.055  24.798  0.00  0.00    +0.328 C 
ATOM     24  O   UNL     1      -3.658   1.126  24.956  0.00  0.00    -0.250 OA
ATOM     25  N   UNL     1      -2.530   0.316  24.620  0.00  0.00    -0.162 NA
ENDROOT
BRANCH  25  26
ATOM     26  C   UNL     1      -3.015  -0.351  24.600  0.00  0.00    +0.075 A 
ATOM     27  C   UNL     1      -3.501  -0.488  23.947  0.00  0.00    +0.020 A 
ATOM     28  C   UNL     1      -3.986  -1.155  23.927  0.00  0.00    +0.039 A 
ATOM     29  C   UNL     1      -3.985  -1.685  24.560  0.00  0.00    +0.147 A 
ATOM     35  C   UNL     1      -3.499  -1.548  25.212  0.00  0.00    +0.039 A 
ATOM     36  C   UNL     1      -3.014  -0.880  25.232  0.00  0.00    +0.020 A 
BRANCH  29  30
ATOM     30  O   UNL     1      -4.470  -2.353  24.540  0.00  0.00    -0.404 OA
BRANCH  30  31
ATOM     31  C   UNL     1      -4.205  -3.043  24.177  0.00  0.00    +0.575 C 
ATOM     32  F   UNL     1      -3.940  -3.735  23.814  0.00  0.00    -0.133 F 
ATOM     33  F   UNL     1      -3.822  -3.263  24.874  0.00  0.00    -0.133 F 
ATOM     34  F   UNL     1      -4.588  -2.824  23.480  0.00  0.00    -0.133 F 
ENDBRANCH  30  31
ENDBRANCH  29  30
ENDBRANCH  25  26
BRANCH  15  14
ATOM     12  C   UNL     1      -0.083   1.466  23.713  0.00  0.00    +0.265 C 
ATOM     13  O   UNL     1      -0.699   1.411  23.168  0.00  0.00    -0.268 OA
ATOM     14  N   UNL     1      -0.208   1.828  24.444  0.00  0.00    -0.199 NA
BRANCH  12   9
ATOM      6  C   UNL     1       2.146   0.543  23.158  0.00  0.00    +0.139 A 
ATOM      7  C   UNL     1       2.082   1.291  23.501  0.00  0.00    +0.037 A 
ATOM      8  C   UNL     1       1.340   1.599  23.686  0.00  0.00    +0.008 A 
ATOM      9  C   UNL     1       0.661   1.158  23.528  0.00  0.00    +0.055 A 
ATOM     10  C   UNL     1       0.723   0.411  23.185  0.00  0.00    +0.008 A 
ATOM     11  C   UNL     1       1.467   0.103  23.001  0.00  0.00    +0.037 A 
BRANCH   6   5
ATOM      5  O   UNL     1       2.889   0.236  22.973  0.00  0.00    -0.470 OA
BRANCH   5   4
ATOM      4  C   UNL     1       3.470   0.183  23.557  0.00  0.00    +0.236 C 
BRANCH   4   3
ATOM      1  C   UNL     1       4.653   1.212  22.685  0.00  0.00    +0.075 C 
ATOM      2  C   UNL     1       4.784   0.443  22.952  0.00  0.00    +0.154 A 
ATOM      3  C   UNL     1       4.241  -0.030  23.353  0.00  0.00    +0.071 A 
ATOM     37  C   UNL     1       4.603  -0.754  23.514  0.00  0.00    +0.100 A 
ATOM     38  C   UNL     1       4.258  -1.392  23.908  0.00  0.00    +0.055 C 
ATOM     39  N   UNL     1       5.371  -0.728  23.213  0.00  0.00    -0.082 NA
ATOM     40  O   UNL     1       5.482   0.012  22.866  0.00  0.00    -0.358 OA
ENDBRANCH   4   3
ENDBRANCH   5   4
ENDBRANCH   6   5
ENDBRANCH  12   9
ENDBRANCH  15  14
TORSDOF 8
ENDMDL
