REMARK  Name = 
REMARK  8 active torsions:
REMARK  status: ('A' for Active; 'I' for Inactive)
REMARK    1  A    between atoms: O_2  and  C_3
REMARK    2  A    between atoms: C_6  and  O_7
REMARK    3  A    between atoms: C_9  and  S_11
REMARK    4  A    between atoms: S_11  and  N_14
REMARK    5  A    between atoms: N_14  and  C_15
REMARK    6  A    between atoms: C_15  and  C_16
REMARK    7  A    between atoms: C_23  and  C_24
REMARK    8  A    between atoms: C_26  and  C_31
REMARK                            x       y       z     vdW  Elec       q    Type
REMARK                         _______ _______ _______ _____ _____    ______ ____
ROOT
ATOM     16  C   UNL     1       1.814  -2.106   0.000  0.00  0.00    +0.077 C 
ATOM     17  C   UNL     1       1.661  -1.343   0.000  0.00  0.00    +0.018 C 
ATOM     18  C   UNL     1       0.923  -1.010   0.000  0.00  0.00    +0.010 C 
ATOM     19  C   UNL     1       0.961  -0.114   0.000  0.00  0.00    +0.018 C 
ATOM     20  C   UNL     1       1.205  -0.720   0.000  0.00  0.00    +0.072 C 
ATOM     21  N   UNL     1       1.065  -1.759   0.000  0.00  0.00    -0.272 NA
ATOM     22  C   UNL     1       0.226  -2.118   0.000  0.00  0.00    +0.078 C 
ATOM     23  C   UNL     1       0.119  -1.362   0.000  0.00  0.00    +0.056 C 
ENDROOT
BRANCH  23  24
ATOM     24  C   UNL     1      -0.602  -0.960   0.000  0.00  0.00    +0.063 A 
ATOM     25  C   UNL     1      -1.310  -1.384   0.000  0.00  0.00    +0.037 A 
ATOM     26  C   UNL     1      -2.030  -0.982   0.000  0.00  0.00    +0.118 A 
ATOM     27  N   UNL     1      -2.043  -0.157   0.000  0.00  0.00    -0.228 NA
ATOM     28  C   UNL     1      -1.335   0.266   0.000  0.00  0.00    +0.139 A 
ATOM     29  C   UNL     1      -1.347   1.091   0.000  0.00  0.00    +0.074 C 
ATOM     30  N   UNL     1      -0.614  -0.136   0.000  0.00  0.00    -0.235 NA
BRANCH  26  31
ATOM     31  C   UNL     1      -2.739  -1.405   0.000  0.00  0.00    +0.163 A 
ATOM     32  C   UNL     1      -2.812  -2.227   0.000  0.00  0.00    +0.042 A 
ATOM     33  C   UNL     1      -3.617  -2.410   0.000  0.00  0.00    +0.044 A 
ATOM     34  C   UNL     1      -4.040  -1.702   0.000  0.00  0.00    +0.180 A 
ATOM     35  O   UNL     1      -3.497  -1.081   0.000  0.00  0.00    -0.449 OA
ENDBRANCH  26  31
ENDBRANCH  23  24
BRANCH  16  15
ATOM     15  C   UNL     1       2.324  -2.754   0.000  0.00  0.00    +0.131 C 
BRANCH  15  14
ATOM     14  N   UNL     1       2.018  -3.520   0.000  0.00  0.00    -0.076 NA
BRANCH  14  11
ATOM     11  S   UNL     1       2.529  -4.168   0.000  0.00  0.00    +0.080 S 
ATOM     12  O   UNL     1       3.177  -3.658   0.000  0.00  0.00    -0.151 OA
ATOM     13  O   UNL     1       1.881  -4.678   0.000  0.00  0.00    -0.151 OA
BRANCH  11   9
ATOM      3  C   UNL     1       4.366  -5.346   0.000  0.00  0.00    +0.140 A 
ATOM      4  C   UNL     1       4.060  -6.112   0.000  0.00  0.00    +0.040 A 
ATOM      5  C   UNL     1       3.244  -6.230   0.000  0.00  0.00    +0.041 A 
ATOM      6  C   UNL     1       2.733  -5.582   0.000  0.00  0.00    +0.157 A 
ATOM      9  C   UNL     1       3.039  -4.816   0.000  0.00  0.00    +0.160 A 
ATOM     10  C   UNL     1       3.856  -4.698   0.000  0.00  0.00    +0.060 A 
BRANCH   3   2
ATOM      1  C   UNL     1       5.693  -5.876   0.000  0.00  0.00    +0.252 C 
ATOM      2  O   UNL     1       5.183  -5.228   0.000  0.00  0.00    -0.471 OA
ENDBRANCH   3   2
BRANCH   6   7
ATOM      7  O   UNL     1       1.917  -5.700   0.000  0.00  0.00    -0.470 OA
ATOM      8  C   UNL     1       1.406  -5.052   0.000  0.00  0.00    +0.253 C 
ENDBRANCH   6   7
ENDBRANCH  11   9
ENDBRANCH  14  11
ENDBRANCH  15  14
ENDBRANCH  16  15
TORSDOF 8
