MODEL 1
REMARK VINA RESULT:     -10.3      0.000      0.000
REMARK  Name = 
REMARK  5 active torsions:
REMARK  status: ('A' for Active; 'I' for Inactive)
REMARK    1  A    between atoms: C_2  and  C_4
REMARK    2  A    between atoms: C_2  and  C_8
REMARK    3  A    between atoms: C_4  and  C_5
REMARK    4  A    between atoms: C_8  and  C_9
REMARK    5  A    between atoms: C_23  and  C_26
REMARK                            x       y       z     vdW  Elec       q    Type
REMARK                         _______ _______ _______ _____ _____    ______ ____
ROOT
ATOM      9  C   UNL     1       0.339  -0.085  23.646  0.00  0.00    +0.226 C 
ATOM     10  O   UNL     1       0.618  -0.786  23.980  0.00  0.00    -0.275 OA
ATOM     11  N   UNL     1      -0.403   0.206  23.856  0.00  0.00    -0.276 N 
ATOM     12  C   UNL     1      -0.867  -0.203  24.402  0.00  0.00    +0.115 C 
ATOM     13  C   UNL     1      -1.610   0.088  24.613  0.00  0.00    +0.116 C 
ATOM     14  N   UNL     1      -1.888   0.790  24.278  0.00  0.00    -0.266 N 
ATOM     15  C   UNL     1      -1.423   1.199  23.732  0.00  0.00    +0.174 C 
ATOM     16  C   UNL     1      -0.681   0.907  23.522  0.00  0.00    +0.123 C 
ATOM     17  C   UNL     1      -1.595   1.902  23.336  0.00  0.00    +0.265 C 
ATOM     18  O   UNL     1      -1.012   2.173  22.821  0.00  0.00    -0.271 OA
ATOM     19  N   UNL     1      -2.273   2.369  23.388  0.00  0.00    -0.178 NA
ATOM     20  C   UNL     1      -2.947   2.249  23.848  0.00  0.00    +0.078 A 
ATOM     21  C   UNL     1      -3.109   1.632  24.371  0.00  0.00    +0.069 A 
ATOM     22  C   UNL     1      -3.825   1.616  24.782  0.00  0.00    +0.006 A 
ATOM     23  C   UNL     1      -4.378   2.218  24.669  0.00  0.00    +0.002 A 
ATOM     24  C   UNL     1      -4.215   2.835  24.147  0.00  0.00    +0.001 A 
ATOM     25  C   UNL     1      -3.500   2.851  23.736  0.00  0.00    +0.017 A 
ATOM     33  C   UNL     1      -2.638   0.982  24.562  0.00  0.00    +0.251 C 
ATOM     34  O   UNL     1      -2.959   0.456  25.110  0.00  0.00    -0.270 OA
ENDROOT
BRANCH  23  26
ATOM     26  C   UNL     1      -5.094   2.203  25.079  0.00  0.00    +0.027 A 
ATOM     27  C   UNL     1      -5.712   1.728  24.812  0.00  0.00    +0.002 A 
ATOM     28  C   UNL     1      -6.428   1.712  25.223  0.00  0.00    +0.000 A 
ATOM     29  C   UNL     1      -6.524   2.173  25.901  0.00  0.00    +0.002 A 
ATOM     30  C   UNL     1      -5.906   2.649  26.168  0.00  0.00    +0.030 A 
ATOM     31  C   UNL     1      -5.190   2.664  25.758  0.00  0.00    +0.140 A 
ATOM     32  F   UNL     1      -4.571   3.140  26.025  0.00  0.00    -0.204 F 
ENDBRANCH  23  26
BRANCH   9   8
ATOM      8  C   UNL     1       0.804   0.325  23.100  0.00  0.00    +0.086 C 
BRANCH   8   2
ATOM      1  C   UNL     1       1.882   0.558  23.480  0.00  0.00    +0.001 C 
ATOM      2  C   UNL     1       1.560   0.051  22.914  0.00  0.00    +0.019 C 
ATOM      3  C   UNL     1       1.238  -0.455  22.348  0.00  0.00    +0.001 C 
BRANCH   2   4
ATOM      4  C   UNL     1       2.315  -0.222  22.728  0.00  0.00    +0.115 C 
BRANCH   4   5
ATOM      5  C   UNL     1       2.789   0.200  22.201  0.00  0.00    +0.365 C 
ATOM      6  O   UNL     1       3.328   0.756  22.486  0.00  0.00    -0.246 OA
ATOM      7  O   UNL     1       2.724   0.067  21.390  0.00  0.00    -0.246 OA
ENDBRANCH   4   5
ENDBRANCH   2   4
ENDBRANCH   8   2
ENDBRANCH   9   8
TORSDOF 5
ENDMDL
MODEL 2
REMARK VINA RESULT:      -9.4      1.404      2.098
REMARK  Name = 
REMARK  5 active torsions:
REMARK  status: ('A' for Active; 'I' for Inactive)
REMARK    1  A    between atoms: C_2  and  C_4
REMARK    2  A    between atoms: C_2  and  C_8
REMARK    3  A    between atoms: C_4  and  C_5
REMARK    4  A    between atoms: C_8  and  C_9
REMARK    5  A    between atoms: C_23  and  C_26
REMARK                            x       y       z     vdW  Elec       q    Type
REMARK                         _______ _______ _______ _____ _____    ______ ____
ROOT
ATOM      9  C   UNL     1       2.025   0.242  22.902  0.00  0.00    +0.226 C 
ATOM     10  O   UNL     1       2.148  -0.364  22.356  0.00  0.00    -0.275 OA
ATOM     11  N   UNL     1       1.259   0.430  23.143  0.00  0.00    -0.276 N 
ATOM     12  C   UNL     1       0.616   0.012  22.839  0.00  0.00    +0.115 C 
ATOM     13  C   UNL     1      -0.150   0.199  23.080  0.00  0.00    +0.116 C 
ATOM     14  N   UNL     1      -0.273   0.806  23.627  0.00  0.00    -0.266 N 
ATOM     15  C   UNL     1       0.369   1.224  23.931  0.00  0.00    +0.174 C 
ATOM     16  C   UNL     1       1.135   1.036  23.689  0.00  0.00    +0.123 C 
ATOM     17  C   UNL     1       0.368   1.843  24.476  0.00  0.00    +0.265 C 
ATOM     18  O   UNL     1       1.109   2.149  24.671  0.00  0.00    -0.271 OA
ATOM     19  N   UNL     1      -0.276   2.197  24.852  0.00  0.00    -0.178 NA
ATOM     20  C   UNL     1      -1.077   2.019  24.775  0.00  0.00    +0.078 A 
ATOM     21  C   UNL     1      -1.434   1.443  24.304  0.00  0.00    +0.069 A 
ATOM     22  C   UNL     1      -2.254   1.355  24.308  0.00  0.00    +0.006 A 
ATOM     23  C   UNL     1      -2.718   1.844  24.785  0.00  0.00    +0.002 A 
ATOM     24  C   UNL     1      -2.362   2.420  25.256  0.00  0.00    +0.001 A 
ATOM     25  C   UNL     1      -1.542   2.507  25.251  0.00  0.00    +0.017 A 
ATOM     33  C   UNL     1      -1.076   0.903  23.792  0.00  0.00    +0.251 C 
ATOM     34  O   UNL     1      -1.588   0.393  23.395  0.00  0.00    -0.270 OA
ENDROOT
BRANCH  23  26
ATOM     26  C   UNL     1      -3.539   1.757  24.789  0.00  0.00    +0.027 A 
ATOM     27  C   UNL     1      -3.883   1.114  25.175  0.00  0.00    +0.002 A 
ATOM     28  C   UNL     1      -4.703   1.027  25.180  0.00  0.00    +0.000 A 
ATOM     29  C   UNL     1      -5.179   1.584  24.799  0.00  0.00    +0.002 A 
ATOM     30  C   UNL     1      -4.835   2.226  24.413  0.00  0.00    +0.030 A 
ATOM     31  C   UNL     1      -4.015   2.314  24.408  0.00  0.00    +0.140 A 
ATOM     32  F   UNL     1      -3.670   2.956  24.023  0.00  0.00    -0.204 F 
ENDBRANCH  23  26
BRANCH   9   8
ATOM      8  C   UNL     1       2.668   0.660  23.206  0.00  0.00    +0.086 C 
BRANCH   8   2
ATOM      1  C   UNL     1       3.406  -0.225  23.384  0.00  0.00    +0.001 C 
ATOM      2  C   UNL     1       3.433   0.480  22.956  0.00  0.00    +0.019 C 
ATOM      3  C   UNL     1       3.459   1.185  22.529  0.00  0.00    +0.001 C 
BRANCH   2   4
ATOM      4  C   UNL     1       4.198   0.300  22.706  0.00  0.00    +0.115 C 
BRANCH   4   5
ATOM      5  C   UNL     1       4.829   0.356  23.234  0.00  0.00    +0.365 C 
ATOM      6  O   UNL     1       4.961   1.058  23.646  0.00  0.00    -0.246 OA
ATOM      7  O   UNL     1       5.327  -0.291  23.350  0.00  0.00    -0.246 OA
ENDBRANCH   4   5
ENDBRANCH   2   4
ENDBRANCH   8   2
ENDBRANCH   9   8
TORSDOF 5
ENDMDL
MODEL 3
REMARK VINA RESULT:      -9.1      1.854      6.466
REMARK  Name = 
REMARK  5 active torsions:
REMARK  status: ('A' for Active; 'I' for Inactive)
REMARK    1  A    between atoms: C_2  and  C_4
REMARK    2  A    between atoms: C_2  and  C_8
REMARK    3  A    between atoms: C_4  and  C_5
REMARK    4  A    between atoms: C_8  and  C_9
REMARK    5  A    between atoms: C_23  and  C_26
REMARK                            x       y       z     vdW  Elec       q    Type
REMARK                         _______ _______ _______ _____ _____    ______ ____
ROOT
ATOM      9  C   UNL     1      -3.896   2.449  24.537  0.00  0.00    +0.226 C 
ATOM     10  O   UNL     1      -4.139   3.196  24.285  0.00  0.00    -0.275 OA
ATOM     11  N   UNL     1      -3.157   2.158  24.314  0.00  0.00    -0.276 N 
ATOM     12  C   UNL     1      -2.661   2.614  23.838  0.00  0.00    +0.115 C 
ATOM     13  C   UNL     1      -1.922   2.324  23.613  0.00  0.00    +0.116 C 
ATOM     14  N   UNL     1      -1.679   1.576  23.866  0.00  0.00    -0.266 N 
ATOM     15  C   UNL     1      -2.175   1.121  24.342  0.00  0.00    +0.174 C 
ATOM     16  C   UNL     1      -2.914   1.411  24.566  0.00  0.00    +0.123 C 
ATOM     17  C   UNL     1      -2.041   0.367  24.652  0.00  0.00    +0.265 C 
ATOM     18  O   UNL     1      -2.651   0.056  25.112  0.00  0.00    -0.271 OA
ATOM     19  N   UNL     1      -1.378  -0.115  24.562  0.00  0.00    -0.178 NA
ATOM     20  C   UNL     1      -0.686   0.036  24.140  0.00  0.00    +0.078 A 
ATOM     21  C   UNL     1      -0.484   0.706  23.704  0.00  0.00    +0.069 A 
ATOM     22  C   UNL     1       0.244   0.746  23.319  0.00  0.00    +0.006 A 
ATOM     23  C   UNL     1       0.773   0.114  23.371  0.00  0.00    +0.002 A 
ATOM     24  C   UNL     1       0.571  -0.557  23.807  0.00  0.00    +0.001 A 
ATOM     25  C   UNL     1      -0.157  -0.596  24.191  0.00  0.00    +0.017 A 
ATOM     33  C   UNL     1      -0.927   1.392  23.582  0.00  0.00    +0.251 C 
ATOM     34  O   UNL     1      -0.570   1.970  23.114  0.00  0.00    -0.270 OA
ENDROOT
BRANCH  23  26
ATOM     26  C   UNL     1       1.502   0.153  22.987  0.00  0.00    +0.027 A 
ATOM     27  C   UNL     1       2.143   0.518  23.355  0.00  0.00    +0.002 A 
ATOM     28  C   UNL     1       2.872   0.557  22.971  0.00  0.00    +0.000 A 
ATOM     29  C   UNL     1       2.960   0.230  22.218  0.00  0.00    +0.002 A 
ATOM     30  C   UNL     1       2.318  -0.135  21.850  0.00  0.00    +0.030 A 
ATOM     31  C   UNL     1       1.589  -0.174  22.234  0.00  0.00    +0.140 A 
ATOM     32  F   UNL     1       0.948  -0.540  21.866  0.00  0.00    -0.204 F 
ENDBRANCH  23  26
BRANCH   9   8
ATOM      8  C   UNL     1      -4.392   1.993  25.014  0.00  0.00    +0.086 C 
BRANCH   8   2
ATOM      1  C   UNL     1      -4.738   2.748  25.834  0.00  0.00    +0.001 C 
ATOM      2  C   UNL     1      -5.120   2.294  25.259  0.00  0.00    +0.019 C 
ATOM      3  C   UNL     1      -5.500   1.841  24.685  0.00  0.00    +0.001 C 
BRANCH   2   4
ATOM      4  C   UNL     1      -5.847   2.595  25.504  0.00  0.00    +0.115 C 
BRANCH   4   5
ATOM      5  C   UNL     1      -6.239   2.257  26.146  0.00  0.00    +0.365 C 
ATOM      6  O   UNL     1      -6.654   1.551  26.050  0.00  0.00    -0.246 OA
ATOM      7  O   UNL     1      -6.215   2.625  26.884  0.00  0.00    -0.246 OA
ENDBRANCH   4   5
ENDBRANCH   2   4
ENDBRANCH   8   2
ENDBRANCH   9   8
TORSDOF 5
ENDMDL
MODEL 4
REMARK VINA RESULT:      -8.2      2.952      4.666
REMARK  Name = 
REMARK  5 active torsions:
REMARK  status: ('A' for Active; 'I' for Inactive)
REMARK    1  A    between atoms: C_2  and  C_4
REMARK    2  A    between atoms: C_2  and  C_8
REMARK    3  A    between atoms: C_4  and  C_5
REMARK    4  A    between atoms: C_8  and  C_9
REMARK    5  A    between atoms: C_23  and  C_26
REMARK                            x       y       z     vdW  Elec       q    Type
REMARK                         _______ _______ _______ _____ _____    ______ ____
ROOT
ATOM      9  C   UNL     1      -1.130   3.203  25.121  0.00  0.00    +0.226 C 
ATOM     10  O   UNL     1      -0.329   3.278  25.303  0.00  0.00    -0.275 OA
ATOM     11  N   UNL     1      -1.464   2.455  25.029  0.00  0.00    -0.276 N 
ATOM     12  C   UNL     1      -0.998   1.781  25.118  0.00  0.00    +0.115 C 
ATOM     13  C   UNL     1      -1.331   1.032  25.025  0.00  0.00    +0.116 C 
ATOM     14  N   UNL     1      -2.133   0.958  24.843  0.00  0.00    -0.266 N 
ATOM     15  C   UNL     1      -2.599   1.632  24.754  0.00  0.00    +0.174 C 
ATOM     16  C   UNL     1      -2.265   2.380  24.847  0.00  0.00    +0.123 C 
ATOM     17  C   UNL     1      -3.404   1.680  24.574  0.00  0.00    +0.265 C 
ATOM     18  O   UNL     1      -3.713   2.443  24.522  0.00  0.00    -0.271 OA
ATOM     19  N   UNL     1      -3.939   1.067  24.440  0.00  0.00    -0.178 NA
ATOM     20  C   UNL     1      -3.802   0.253  24.451  0.00  0.00    +0.078 A 
ATOM     21  C   UNL     1      -3.097  -0.148  24.601  0.00  0.00    +0.069 A 
ATOM     22  C   UNL     1      -3.079  -0.973  24.585  0.00  0.00    +0.006 A 
ATOM     23  C   UNL     1      -3.769  -1.396  24.420  0.00  0.00    +0.002 A 
ATOM     24  C   UNL     1      -4.474  -0.995  24.271  0.00  0.00    +0.001 A 
ATOM     25  C   UNL     1      -4.491  -0.171  24.287  0.00  0.00    +0.017 A 
ATOM     33  C   UNL     1      -2.354   0.166  24.775  0.00  0.00    +0.251 C 
ATOM     34  O   UNL     1      -1.752  -0.386  24.897  0.00  0.00    -0.270 OA
ENDROOT
BRANCH  23  26
ATOM     26  C   UNL     1      -3.752  -2.221  24.405  0.00  0.00    +0.027 A 
ATOM     27  C   UNL     1      -3.475  -2.640  25.058  0.00  0.00    +0.002 A 
ATOM     28  C   UNL     1      -3.459  -3.465  25.043  0.00  0.00    +0.000 A 
ATOM     29  C   UNL     1      -3.720  -3.870  24.372  0.00  0.00    +0.002 A 
ATOM     30  C   UNL     1      -3.997  -3.451  23.719  0.00  0.00    +0.030 A 
ATOM     31  C   UNL     1      -4.013  -2.626  23.734  0.00  0.00    +0.140 A 
ATOM     32  F   UNL     1      -4.290  -2.207  23.081  0.00  0.00    -0.204 F 
ENDBRANCH  23  26
BRANCH   9   8
ATOM      8  C   UNL     1      -1.598   3.878  25.032  0.00  0.00    +0.086 C 
BRANCH   8   2
ATOM      1  C   UNL     1      -1.698   4.806  25.731  0.00  0.00    +0.001 C 
ATOM      2  C   UNL     1      -1.252   4.626  25.061  0.00  0.00    +0.019 C 
ATOM      3  C   UNL     1      -0.806   4.446  24.391  0.00  0.00    +0.001 C 
BRANCH   2   4
ATOM      4  C   UNL     1      -0.906   5.374  25.090  0.00  0.00    +0.115 C 
BRANCH   4   5
ATOM      5  C   UNL     1      -1.320   6.031  24.812  0.00  0.00    +0.365 C 
ATOM      6  O   UNL     1      -1.261   6.252  24.020  0.00  0.00    -0.246 OA
ATOM      7  O   UNL     1      -1.793   6.468  25.328  0.00  0.00    -0.246 OA
ENDBRANCH   4   5
ENDBRANCH   2   4
ENDBRANCH   8   2
ENDBRANCH   9   8
TORSDOF 5
ENDMDL
MODEL 5
REMARK VINA RESULT:      -8.0      2.971      4.695
REMARK  Name = 
REMARK  5 active torsions:
REMARK  status: ('A' for Active; 'I' for Inactive)
REMARK    1  A    between atoms: C_2  and  C_4
REMARK    2  A    between atoms: C_2  and  C_8
REMARK    3  A    between atoms: C_4  and  C_5
REMARK    4  A    between atoms: C_8  and  C_9
REMARK    5  A    between atoms: C_23  and  C_26
REMARK                            x       y       z     vdW  Elec       q    Type
REMARK                         _______ _______ _______ _____ _____    ______ ____
ROOT
ATOM      9  C   UNL     1      -3.822  -0.855  24.545  0.00  0.00    +0.226 C 
ATOM     10  O   UNL     1      -4.585  -0.955  24.245  0.00  0.00    -0.275 OA
ATOM     11  N   UNL     1      -3.499  -0.099  24.605  0.00  0.00    -0.276 N 
ATOM     12  C   UNL     1      -3.938   0.558  24.366  0.00  0.00    +0.115 C 
ATOM     13  C   UNL     1      -3.615   1.315  24.426  0.00  0.00    +0.116 C 
ATOM     14  N   UNL     1      -2.852   1.414  24.725  0.00  0.00    -0.266 N 
ATOM     15  C   UNL     1      -2.414   0.758  24.964  0.00  0.00    +0.174 C 
ATOM     16  C   UNL     1      -2.737   0.002  24.904  0.00  0.00    +0.123 C 
ATOM     17  C   UNL     1      -1.650   0.736  25.276  0.00  0.00    +0.265 C 
ATOM     18  O   UNL     1      -1.361  -0.014  25.463  0.00  0.00    -0.271 OA
ATOM     19  N   UNL     1      -1.136   1.364  25.425  0.00  0.00    -0.178 NA
ATOM     20  C   UNL     1      -1.260   2.170  25.300  0.00  0.00    +0.078 A 
ATOM     21  C   UNL     1      -1.927   2.547  24.994  0.00  0.00    +0.069 A 
ATOM     22  C   UNL     1      -1.937   3.368  24.913  0.00  0.00    +0.006 A 
ATOM     23  C   UNL     1      -1.279   3.812  25.139  0.00  0.00    +0.002 A 
ATOM     24  C   UNL     1      -0.612   3.435  25.444  0.00  0.00    +0.001 A 
ATOM     25  C   UNL     1      -0.602   2.615  25.525  0.00  0.00    +0.017 A 
ATOM     33  C   UNL     1      -2.636   2.210  24.739  0.00  0.00    +0.251 C 
ATOM     34  O   UNL     1      -3.203   2.740  24.459  0.00  0.00    -0.270 OA
ENDROOT
BRANCH  23  26
ATOM     26  C   UNL     1      -1.288   4.633  25.058  0.00  0.00    +0.027 A 
ATOM     27  C   UNL     1      -1.876   5.077  25.428  0.00  0.00    +0.002 A 
ATOM     28  C   UNL     1      -1.885   5.898  25.347  0.00  0.00    +0.000 A 
ATOM     29  C   UNL     1      -1.305   6.275  24.896  0.00  0.00    +0.002 A 
ATOM     30  C   UNL     1      -0.717   5.831  24.527  0.00  0.00    +0.030 A 
ATOM     31  C   UNL     1      -0.708   5.010  24.607  0.00  0.00    +0.140 A 
ATOM     32  F   UNL     1      -0.119   4.566  24.237  0.00  0.00    -0.204 F 
ENDBRANCH  23  26
BRANCH   9   8
ATOM      8  C   UNL     1      -3.383  -1.512  24.784  0.00  0.00    +0.086 C 
BRANCH   8   2
ATOM      1  C   UNL     1      -3.601  -2.459  25.429  0.00  0.00    +0.001 C 
ATOM      2  C   UNL     1      -3.661  -2.273  24.627  0.00  0.00    +0.019 C 
ATOM      3  C   UNL     1      -3.720  -2.086  23.826  0.00  0.00    +0.001 C 
BRANCH   2   4
ATOM      4  C   UNL     1      -3.938  -3.033  24.471  0.00  0.00    +0.115 C 
BRANCH   4   5
ATOM      5  C   UNL     1      -3.438  -3.593  24.128  0.00  0.00    +0.365 C 
ATOM      6  O   UNL     1      -2.637  -3.606  24.326  0.00  0.00    -0.246 OA
ATOM      7  O   UNL     1      -3.739  -4.139  23.588  0.00  0.00    -0.246 OA
ENDBRANCH   4   5
ENDBRANCH   2   4
ENDBRANCH   8   2
ENDBRANCH   9   8
TORSDOF 5
ENDMDL
MODEL 6
REMARK VINA RESULT:      -6.8     15.230     16.704
REMARK  Name = 
REMARK  5 active torsions:
REMARK  status: ('A' for Active; 'I' for Inactive)
REMARK    1  A    between atoms: C_2  and  C_4
REMARK    2  A    between atoms: C_2  and  C_8
REMARK    3  A    between atoms: C_4  and  C_5
REMARK    4  A    between atoms: C_8  and  C_9
REMARK    5  A    between atoms: C_23  and  C_26
REMARK                            x       y       z     vdW  Elec       q    Type
REMARK                         _______ _______ _______ _____ _____    ______ ____
ROOT
ATOM      9  C   UNL     1      -7.054 -10.071  16.330  0.00  0.00    +0.226 C 
ATOM     10  O   UNL     1      -6.564 -10.232  16.973  0.00  0.00    -0.275 OA
ATOM     11  N   UNL     1      -6.735 -10.011  15.572  0.00  0.00    -0.276 N 
ATOM     12  C   UNL     1      -5.924 -10.111  15.457  0.00  0.00    +0.115 C 
ATOM     13  C   UNL     1      -5.604 -10.051  14.699  0.00  0.00    +0.116 C 
ATOM     14  N   UNL     1      -6.096  -9.889  14.056  0.00  0.00    -0.266 N 
ATOM     15  C   UNL     1      -6.906  -9.789  14.171  0.00  0.00    +0.174 C 
ATOM     16  C   UNL     1      -7.226  -9.849  14.929  0.00  0.00    +0.123 C 
ATOM     17  C   UNL     1      -7.489  -9.626  13.610  0.00  0.00    +0.265 C 
ATOM     18  O   UNL     1      -8.257  -9.556  13.902  0.00  0.00    -0.271 OA
ATOM     19  N   UNL     1      -7.405  -9.523  12.796  0.00  0.00    -0.178 NA
ATOM     20  C   UNL     1      -6.717  -9.558  12.341  0.00  0.00    +0.078 A 
ATOM     21  C   UNL     1      -5.944  -9.705  12.588  0.00  0.00    +0.069 A 
ATOM     22  C   UNL     1      -5.329  -9.716  12.038  0.00  0.00    +0.006 A 
ATOM     23  C   UNL     1      -5.489  -9.581  11.239  0.00  0.00    +0.002 A 
ATOM     24  C   UNL     1      -6.262  -9.434  10.993  0.00  0.00    +0.001 A 
ATOM     25  C   UNL     1      -6.876  -9.423  11.543  0.00  0.00    +0.017 A 
ATOM     33  C   UNL     1      -5.667  -9.852  13.352  0.00  0.00    +0.251 C 
ATOM     34  O   UNL     1      -4.855  -9.979  13.420  0.00  0.00    -0.270 OA
ENDROOT
BRANCH  23  26
ATOM     26  C   UNL     1      -4.875  -9.592  10.689  0.00  0.00    +0.027 A 
ATOM     27  C   UNL     1      -4.612 -10.309  10.378  0.00  0.00    +0.002 A 
ATOM     28  C   UNL     1      -3.998 -10.320   9.827  0.00  0.00    +0.000 A 
ATOM     29  C   UNL     1      -3.647  -9.612   9.587  0.00  0.00    +0.002 A 
ATOM     30  C   UNL     1      -3.910  -8.895   9.897  0.00  0.00    +0.030 A 
ATOM     31  C   UNL     1      -4.524  -8.884  10.448  0.00  0.00    +0.140 A 
ATOM     32  F   UNL     1      -4.787  -8.167  10.758  0.00  0.00    -0.204 F 
ENDBRANCH  23  26
BRANCH   9   8
ATOM      8  C   UNL     1      -7.866  -9.970  16.445  0.00  0.00    +0.086 C 
BRANCH   8   2
ATOM      1  C   UNL     1      -8.400 -10.780  17.094  0.00  0.00    +0.001 C 
ATOM      2  C   UNL     1      -8.180  -9.992  17.208  0.00  0.00    +0.019 C 
ATOM      3  C   UNL     1      -7.960  -9.206  17.321  0.00  0.00    +0.001 C 
BRANCH   2   4
ATOM      4  C   UNL     1      -8.494 -10.014  17.970  0.00  0.00    +0.115 C 
BRANCH   4   5
ATOM      5  C   UNL     1      -9.308  -9.940  18.083  0.00  0.00    +0.365 C 
ATOM      6  O   UNL     1      -9.678  -9.214  17.960  0.00  0.00    -0.246 OA
ATOM      7  O   UNL     1      -9.752 -10.595  18.319  0.00  0.00    -0.246 OA
ENDBRANCH   4   5
ENDBRANCH   2   4
ENDBRANCH   8   2
ENDBRANCH   9   8
TORSDOF 5
ENDMDL
MODEL 7
REMARK VINA RESULT:      -6.5     15.351     16.051
REMARK  Name = 
REMARK  5 active torsions:
REMARK  status: ('A' for Active; 'I' for Inactive)
REMARK    1  A    between atoms: C_2  and  C_4
REMARK    2  A    between atoms: C_2  and  C_8
REMARK    3  A    between atoms: C_4  and  C_5
REMARK    4  A    between atoms: C_8  and  C_9
REMARK    5  A    between atoms: C_23  and  C_26
REMARK                            x       y       z     vdW  Elec       q    Type
REMARK                         _______ _______ _______ _____ _____    ______ ____
ROOT
ATOM      9  C   UNL     1      -4.416 -10.092  11.899  0.00  0.00    +0.226 C 
ATOM     10  O   UNL     1      -3.611 -10.250  11.992  0.00  0.00    -0.275 OA
ATOM     11  N   UNL     1      -4.913 -10.082  12.557  0.00  0.00    -0.276 N 
ATOM     12  C   UNL     1      -4.606 -10.229  13.308  0.00  0.00    +0.115 C 
ATOM     13  C   UNL     1      -5.103 -10.218  13.967  0.00  0.00    +0.116 C 
ATOM     14  N   UNL     1      -5.908 -10.060  13.873  0.00  0.00    -0.266 N 
ATOM     15  C   UNL     1      -6.215  -9.913  13.121  0.00  0.00    +0.174 C 
ATOM     16  C   UNL     1      -5.717  -9.924  12.464  0.00  0.00    +0.123 C 
ATOM     17  C   UNL     1      -6.994  -9.746  12.908  0.00  0.00    +0.265 C 
ATOM     18  O   UNL     1      -7.126  -9.624  12.103  0.00  0.00    -0.271 OA
ATOM     19  N   UNL     1      -7.659  -9.684  13.393  0.00  0.00    -0.178 NA
ATOM     20  C   UNL     1      -7.708  -9.774  14.212  0.00  0.00    +0.078 A 
ATOM     21  C   UNL     1      -7.106  -9.949  14.747  0.00  0.00    +0.069 A 
ATOM     22  C   UNL     1      -7.274 -10.016  15.552  0.00  0.00    +0.006 A 
ATOM     23  C   UNL     1      -8.048  -9.908  15.821  0.00  0.00    +0.002 A 
ATOM     24  C   UNL     1      -8.650  -9.733  15.285  0.00  0.00    +0.001 A 
ATOM     25  C   UNL     1      -8.480  -9.666  14.481  0.00  0.00    +0.017 A 
ATOM     33  C   UNL     1      -6.304 -10.076  14.596  0.00  0.00    +0.251 C 
ATOM     34  O   UNL     1      -5.837 -10.241  15.256  0.00  0.00    -0.270 OA
ENDROOT
BRANCH  23  26
ATOM     26  C   UNL     1      -8.217  -9.974  16.626  0.00  0.00    +0.027 A 
ATOM     27  C   UNL     1      -8.372 -10.715  16.955  0.00  0.00    +0.002 A 
ATOM     28  C   UNL     1      -8.542 -10.781  17.759  0.00  0.00    +0.000 A 
ATOM     29  C   UNL     1      -8.557 -10.106  18.235  0.00  0.00    +0.002 A 
ATOM     30  C   UNL     1      -8.403  -9.366  17.906  0.00  0.00    +0.030 A 
ATOM     31  C   UNL     1      -8.233  -9.300  17.101  0.00  0.00    +0.140 A 
ATOM     32  F   UNL     1      -8.078  -8.559  16.772  0.00  0.00    -0.204 F 
ENDBRANCH  23  26
BRANCH   9   8
ATOM      8  C   UNL     1      -4.723  -9.945  11.147  0.00  0.00    +0.086 C 
BRANCH   8   2
ATOM      1  C   UNL     1      -4.134  -9.097  10.603  0.00  0.00    +0.001 C 
ATOM      2  C   UNL     1      -4.219  -9.911  10.495  0.00  0.00    +0.019 C 
ATOM      3  C   UNL     1      -4.304 -10.725  10.387  0.00  0.00    +0.001 C 
BRANCH   2   4
ATOM      4  C   UNL     1      -3.715  -9.878   9.843  0.00  0.00    +0.115 C 
BRANCH   4   5
ATOM      5  C   UNL     1      -4.007  -9.646   9.107  0.00  0.00    +0.365 C 
ATOM      6  O   UNL     1      -4.339 -10.206   8.600  0.00  0.00    -0.246 OA
ATOM      7  O   UNL     1      -3.967  -8.855   8.878  0.00  0.00    -0.246 OA
ENDBRANCH   4   5
ENDBRANCH   2   4
ENDBRANCH   8   2
ENDBRANCH   9   8
TORSDOF 5
ENDMDL
