REMARK  Name = 
REMARK  9 active torsions:
REMARK  status: ('A' for Active; 'I' for Inactive)
REMARK    1  A    between atoms: C_2  and  C_4
REMARK    2  A    between atoms: C_6  and  C_7
REMARK    3  A    between atoms: C_7  and  C_8
REMARK    4  A    between atoms: C_21  and  C_22
REMARK    5  A    between atoms: C_22  and  N_23
REMARK    6  A    between atoms: C_24  and  C_26
REMARK    7  A    between atoms: C_26  and  C_27
REMARK    8  A    between atoms: C_27  and  C_30
REMARK    9  A    between atoms: C_30  and  C_31
REMARK                            x       y       z     vdW  Elec       q    Type
REMARK                         _______ _______ _______ _____ _____    ______ ____
ROOT
ATOM      4  C   UNL     1      -3.103  -2.127   0.000  0.00  0.00    +0.006 C 
ATOM      5  C   UNL     1      -2.691  -1.412   0.000  0.00  0.00    +0.005 C 
ATOM      6  C   UNL     1      -1.866  -1.412   0.000  0.00  0.00    +0.026 C 
ATOM     18  C   UNL     1      -1.453  -2.127   0.000  0.00  0.00    -0.048 C 
ATOM     19  C   UNL     1      -0.628  -2.127   0.000  0.00  0.00    +0.026 C 
ATOM     20  C   UNL     1      -1.866  -2.841   0.000  0.00  0.00    -0.033 C 
ATOM     21  C   UNL     1      -2.691  -2.841   0.000  0.00  0.00    +0.043 C 
ENDROOT
BRANCH   4   2
ATOM      1  C   UNL     1      -4.341  -2.841   0.000  0.00  0.00    +0.000 C 
ATOM      2  C   UNL     1      -3.928  -2.127   0.000  0.00  0.00    +0.000 C 
ATOM      3  C   UNL     1      -4.341  -1.412   0.000  0.00  0.00    +0.000 C 
ENDBRANCH   4   2
BRANCH   6   7
ATOM      7  C   UNL     1      -1.453  -0.698   0.000  0.00  0.00    +0.070 C 
BRANCH   7   8
ATOM      8  C   UNL     1      -0.628  -0.698   0.000  0.00  0.00    +0.139 A 
ATOM      9  N   UNL     1      -0.143  -1.365   0.000  0.00  0.00    -0.229 NA
ATOM     10  C   UNL     1       0.641  -1.110   0.000  0.00  0.00    +0.100 A 
ATOM     11  C   UNL     1       0.641  -0.285   0.000  0.00  0.00    +0.096 A 
ATOM     12  N   UNL     1      -0.143  -0.030   0.000  0.00  0.00    -0.230 NA
ATOM     13  C   UNL     1       1.356   0.127   0.000  0.00  0.00    -0.003 A 
ATOM     14  C   UNL     1       1.356   0.952   0.000  0.00  0.00    +0.033 C 
ATOM     15  C   UNL     1       2.070  -0.285   0.000  0.00  0.00    -0.003 A 
ATOM     16  C   UNL     1       2.070  -1.110   0.000  0.00  0.00    +0.001 A 
ATOM     17  C   UNL     1       1.356  -1.523   0.000  0.00  0.00    +0.021 A 
ENDBRANCH   7   8
ENDBRANCH   6   7
BRANCH  21  22
ATOM     22  C   UNL     1      -3.103  -3.556   0.000  0.00  0.00    +0.119 C 
BRANCH  22  23
ATOM     23  N   UNL     1      -3.928  -3.556   0.000  0.00  0.00    -0.205 NA
ATOM     24  C   UNL     1      -4.341  -4.270   0.000  0.00  0.00    +0.241 C 
ATOM     25  O   UNL     1      -3.928  -4.985   0.000  0.00  0.00    -0.273 OA
BRANCH  24  26
ATOM     26  C   UNL     1      -5.166  -4.270   0.000  0.00  0.00    +0.087 C 
BRANCH  26  27
ATOM     27  C   UNL     1      -5.578  -4.985   0.000  0.00  0.00    +0.019 C 
ATOM     28  C   UNL     1      -6.293  -4.572   0.000  0.00  0.00    +0.001 C 
ATOM     29  C   UNL     1      -4.864  -5.397   0.000  0.00  0.00    +0.001 C 
BRANCH  27  30
ATOM     30  C   UNL     1      -5.991  -5.699   0.000  0.00  0.00    +0.115 C 
BRANCH  30  31
ATOM     31  C   UNL     1      -6.816  -5.699   0.000  0.00  0.00    +0.365 C 
ATOM     32  O   UNL     1      -7.228  -6.414   0.000  0.00  0.00    -0.246 OA
ATOM     33  O   UNL     1      -7.228  -4.985   0.000  0.00  0.00    -0.246 OA
ENDBRANCH  30  31
ENDBRANCH  27  30
ENDBRANCH  26  27
ENDBRANCH  24  26
ENDBRANCH  22  23
ENDBRANCH  21  22
TORSDOF 9
