MODEL 1
REMARK VINA RESULT:     -10.1      0.000      0.000
REMARK  Name = 
REMARK  4 active torsions:
REMARK  status: ('A' for Active; 'I' for Inactive)
REMARK    1  A    between atoms: N_7  and  C_8
REMARK    2  A    between atoms: C_8  and  C_9
REMARK    3  A    between atoms: C_9  and  C_10
REMARK    4  A    between atoms: C_10  and  C_11
REMARK                            x       y       z     vdW  Elec       q    Type
REMARK                         _______ _______ _______ _____ _____    ______ ____
ROOT
ATOM      1  O   UNL     1      -1.589   4.179  25.015  0.00  0.00    -0.251 OA
ATOM      2  C   UNL     1      -2.328   3.865  25.206  0.00  0.00    +0.323 C 
ATOM      3  N   UNL     1      -2.875   4.195  25.728  0.00  0.00    -0.187 NA
ATOM      4  C   UNL     1      -3.535   3.700  25.754  0.00  0.00    +0.138 C 
ATOM      5  C   UNL     1      -3.395   3.064  25.247  0.00  0.00    +0.115 C 
ATOM      6  C   UNL     1      -3.851   2.405  25.050  0.00  0.00    +0.094 C 
ATOM      7  N   UNL     1      -3.562   1.849  24.514  0.00  0.00    -0.270 NA
ATOM     17  C   UNL     1      -2.816   1.951  24.176  0.00  0.00    +0.094 C 
ATOM     18  C   UNL     1      -2.360   2.609  24.373  0.00  0.00    +0.112 C 
ATOM     19  N   UNL     1      -2.650   3.166  24.909  0.00  0.00    -0.260 N 
ENDROOT
BRANCH   7   8
ATOM      8  C   UNL     1      -4.017   1.190  24.317  0.00  0.00    +0.073 C 
BRANCH   8   9
ATOM      9  C   UNL     1      -3.779   0.437  24.554  0.00  0.00    +0.022 C 
BRANCH   9  10
ATOM     10  C   UNL     1      -4.323  -0.183  24.570  0.00  0.00    +0.028 C 
BRANCH  10  11
ATOM     11  C   UNL     1      -4.059  -0.963  24.608  0.00  0.00    -0.022 A 
ATOM     12  C   UNL     1      -4.177  -1.471  23.969  0.00  0.00    -0.004 A 
ATOM     13  C   UNL     1      -3.913  -2.251  24.007  0.00  0.00    -0.000 A 
ATOM     14  C   UNL     1      -3.531  -2.524  24.685  0.00  0.00    -0.000 A 
ATOM     15  C   UNL     1      -3.413  -2.018  25.325  0.00  0.00    -0.000 A 
ATOM     16  C   UNL     1      -3.677  -1.236  25.286  0.00  0.00    -0.004 A 
ENDBRANCH  10  11
ENDBRANCH   9  10
ENDBRANCH   8   9
ENDBRANCH   7   8
TORSDOF 4
ENDMDL
MODEL 2
REMARK VINA RESULT:      -9.7      1.877      2.119
REMARK  Name = 
REMARK  4 active torsions:
REMARK  status: ('A' for Active; 'I' for Inactive)
REMARK    1  A    between atoms: N_7  and  C_8
REMARK    2  A    between atoms: C_8  and  C_9
REMARK    3  A    between atoms: C_9  and  C_10
REMARK    4  A    between atoms: C_10  and  C_11
REMARK                            x       y       z     vdW  Elec       q    Type
REMARK                         _______ _______ _______ _____ _____    ______ ____
ROOT
ATOM      1  O   UNL     1       0.922   2.122  24.259  0.00  0.00    -0.251 OA
ATOM      2  C   UNL     1       0.305   2.046  24.802  0.00  0.00    +0.323 C 
ATOM      3  N   UNL     1       0.305   2.325  25.579  0.00  0.00    -0.187 NA
ATOM      4  C   UNL     1      -0.420   2.129  25.920  0.00  0.00    +0.138 C 
ATOM      5  C   UNL     1      -0.868   1.730  25.355  0.00  0.00    +0.115 C 
ATOM      6  C   UNL     1      -1.627   1.405  25.379  0.00  0.00    +0.094 C 
ATOM      7  N   UNL     1      -1.937   1.031  24.713  0.00  0.00    -0.270 NA
ATOM     17  C   UNL     1      -1.489   0.980  24.022  0.00  0.00    +0.094 C 
ATOM     18  C   UNL     1      -0.731   1.303  23.997  0.00  0.00    +0.112 C 
ATOM     19  N   UNL     1      -0.420   1.678  24.664  0.00  0.00    -0.260 N 
ENDROOT
BRANCH   7   8
ATOM      8  C   UNL     1      -2.696   0.707  24.737  0.00  0.00    +0.073 C 
BRANCH   8   9
ATOM      9  C   UNL     1      -2.799  -0.108  24.665  0.00  0.00    +0.022 C 
BRANCH   9  10
ATOM     10  C   UNL     1      -3.546  -0.441  24.777  0.00  0.00    +0.028 C 
BRANCH  10  11
ATOM     11  C   UNL     1      -3.670  -1.240  24.613  0.00  0.00    -0.022 A 
ATOM     12  C   UNL     1      -4.114  -1.462  23.954  0.00  0.00    -0.004 A 
ATOM     13  C   UNL     1      -4.239  -2.260  23.790  0.00  0.00    -0.000 A 
ATOM     14  C   UNL     1      -3.919  -2.837  24.284  0.00  0.00    -0.000 A 
ATOM     15  C   UNL     1      -3.475  -2.617  24.944  0.00  0.00    -0.000 A 
ATOM     16  C   UNL     1      -3.351  -1.817  25.108  0.00  0.00    -0.004 A 
ENDBRANCH  10  11
ENDBRANCH   9  10
ENDBRANCH   8   9
ENDBRANCH   7   8
TORSDOF 4
ENDMDL
MODEL 3
REMARK VINA RESULT:      -9.0      2.347      4.776
REMARK  Name = 
REMARK  4 active torsions:
REMARK  status: ('A' for Active; 'I' for Inactive)
REMARK    1  A    between atoms: N_7  and  C_8
REMARK    2  A    between atoms: C_8  and  C_9
REMARK    3  A    between atoms: C_9  and  C_10
REMARK    4  A    between atoms: C_10  and  C_11
REMARK                            x       y       z     vdW  Elec       q    Type
REMARK                         _______ _______ _______ _____ _____    ______ ____
ROOT
ATOM      1  O   UNL     1      -2.932  -2.927  25.336  0.00  0.00    -0.251 OA
ATOM      2  C   UNL     1      -3.378  -2.490  24.796  0.00  0.00    +0.323 C 
ATOM      3  N   UNL     1      -3.938  -2.794  24.273  0.00  0.00    -0.187 NA
ATOM      4  C   UNL     1      -4.249  -2.165  23.838  0.00  0.00    +0.138 C 
ATOM      5  C   UNL     1      -3.879  -1.473  24.093  0.00  0.00    +0.115 C 
ATOM      6  C   UNL     1      -3.963  -0.685  23.863  0.00  0.00    +0.094 C 
ATOM      7  N   UNL     1      -3.510  -0.099  24.224  0.00  0.00    -0.270 NA
ATOM     17  C   UNL     1      -2.972  -0.300  24.816  0.00  0.00    +0.094 C 
ATOM     18  C   UNL     1      -2.887  -1.087  25.047  0.00  0.00    +0.112 C 
ATOM     19  N   UNL     1      -3.341  -1.674  24.685  0.00  0.00    -0.260 N 
ENDROOT
BRANCH   7   8
ATOM      8  C   UNL     1      -3.593   0.689  23.994  0.00  0.00    +0.073 C 
BRANCH   8   9
ATOM      9  C   UNL     1      -3.980   1.225  24.487  0.00  0.00    +0.022 C 
BRANCH   9  10
ATOM     10  C   UNL     1      -4.205   1.964  24.199  0.00  0.00    +0.028 C 
BRANCH  10  11
ATOM     11  C   UNL     1      -4.515   2.531  24.711  0.00  0.00    -0.022 A 
ATOM     12  C   UNL     1      -4.044   3.157  24.970  0.00  0.00    -0.004 A 
ATOM     13  C   UNL     1      -4.355   3.723  25.482  0.00  0.00    -0.000 A 
ATOM     14  C   UNL     1      -5.137   3.663  25.737  0.00  0.00    -0.000 A 
ATOM     15  C   UNL     1      -5.609   3.038  25.480  0.00  0.00    -0.000 A 
ATOM     16  C   UNL     1      -5.297   2.471  24.967  0.00  0.00    -0.004 A 
ENDBRANCH  10  11
ENDBRANCH   9  10
ENDBRANCH   8   9
ENDBRANCH   7   8
TORSDOF 4
ENDMDL
MODEL 4
REMARK VINA RESULT:      -8.8      2.440      4.152
REMARK  Name = 
REMARK  4 active torsions:
REMARK  status: ('A' for Active; 'I' for Inactive)
REMARK    1  A    between atoms: N_7  and  C_8
REMARK    2  A    between atoms: C_8  and  C_9
REMARK    3  A    between atoms: C_9  and  C_10
REMARK    4  A    between atoms: C_10  and  C_11
REMARK                            x       y       z     vdW  Elec       q    Type
REMARK                         _______ _______ _______ _____ _____    ______ ____
ROOT
ATOM      1  O   UNL     1      -0.592  -1.741  25.402  0.00  0.00    -0.251 OA
ATOM      2  C   UNL     1      -0.725  -1.044  24.979  0.00  0.00    +0.323 C 
ATOM      3  N   UNL     1      -0.144  -0.548  24.668  0.00  0.00    -0.187 NA
ATOM      4  C   UNL     1      -0.522   0.081  24.291  0.00  0.00    +0.138 C 
ATOM      5  C   UNL     1      -1.336  -0.027  24.368  0.00  0.00    +0.115 C 
ATOM      6  C   UNL     1      -1.980   0.418  24.107  0.00  0.00    +0.094 C 
ATOM      7  N   UNL     1      -2.748   0.168  24.270  0.00  0.00    -0.270 NA
ATOM     17  C   UNL     1      -2.873  -0.528  24.696  0.00  0.00    +0.094 C 
ATOM     18  C   UNL     1      -2.230  -0.973  24.958  0.00  0.00    +0.112 C 
ATOM     19  N   UNL     1      -1.461  -0.722  24.794  0.00  0.00    -0.260 N 
ENDROOT
BRANCH   7   8
ATOM      8  C   UNL     1      -3.392   0.612  24.009  0.00  0.00    +0.073 C 
BRANCH   8   9
ATOM      9  C   UNL     1      -3.749   1.158  24.513  0.00  0.00    +0.022 C 
BRANCH   9  10
ATOM     10  C   UNL     1      -4.336   1.662  24.227  0.00  0.00    +0.028 C 
BRANCH  10  11
ATOM     11  C   UNL     1      -4.716   2.186  24.738  0.00  0.00    -0.022 A 
ATOM     12  C   UNL     1      -5.406   1.957  25.127  0.00  0.00    -0.004 A 
ATOM     13  C   UNL     1      -5.785   2.481  25.639  0.00  0.00    -0.000 A 
ATOM     14  C   UNL     1      -5.474   3.235  25.761  0.00  0.00    -0.000 A 
ATOM     15  C   UNL     1      -4.784   3.466  25.373  0.00  0.00    -0.000 A 
ATOM     16  C   UNL     1      -4.404   2.940  24.861  0.00  0.00    -0.004 A 
ENDBRANCH  10  11
ENDBRANCH   9  10
ENDBRANCH   8   9
ENDBRANCH   7   8
TORSDOF 4
ENDMDL
MODEL 5
REMARK VINA RESULT:      -8.7      2.641      3.614
REMARK  Name = 
REMARK  4 active torsions:
REMARK  status: ('A' for Active; 'I' for Inactive)
REMARK    1  A    between atoms: N_7  and  C_8
REMARK    2  A    between atoms: C_8  and  C_9
REMARK    3  A    between atoms: C_9  and  C_10
REMARK    4  A    between atoms: C_10  and  C_11
REMARK                            x       y       z     vdW  Elec       q    Type
REMARK                         _______ _______ _______ _____ _____    ______ ____
ROOT
ATOM      1  O   UNL     1       0.890   1.968  24.498  0.00  0.00    -0.251 OA
ATOM      2  C   UNL     1       0.218   1.578  24.220  0.00  0.00    +0.323 C 
ATOM      3  N   UNL     1       0.177   0.786  23.991  0.00  0.00    -0.187 NA
ATOM      4  C   UNL     1      -0.597   0.630  23.752  0.00  0.00    +0.138 C 
ATOM      5  C   UNL     1      -1.034   1.324  23.833  0.00  0.00    +0.115 C 
ATOM      6  C   UNL     1      -1.826   1.500  23.681  0.00  0.00    +0.094 C 
ATOM      7  N   UNL     1      -2.114   2.260  23.818  0.00  0.00    -0.270 NA
ATOM     17  C   UNL     1      -1.610   2.846  24.107  0.00  0.00    +0.094 C 
ATOM     18  C   UNL     1      -0.819   2.671  24.259  0.00  0.00    +0.112 C 
ATOM     19  N   UNL     1      -0.530   1.910  24.122  0.00  0.00    -0.260 N 
ENDROOT
BRANCH   7   8
ATOM      8  C   UNL     1      -2.906   2.435  23.665  0.00  0.00    +0.073 C 
BRANCH   8   9
ATOM      9  C   UNL     1      -3.465   2.373  24.267  0.00  0.00    +0.022 C 
BRANCH   9  10
ATOM     10  C   UNL     1      -4.247   2.601  24.130  0.00  0.00    +0.028 C 
BRANCH  10  11
ATOM     11  C   UNL     1      -4.815   2.500  24.719  0.00  0.00    -0.022 A 
ATOM     12  C   UNL     1      -4.944   3.096  25.275  0.00  0.00    -0.004 A 
ATOM     13  C   UNL     1      -5.513   2.996  25.863  0.00  0.00    -0.000 A 
ATOM     14  C   UNL     1      -5.953   2.300  25.897  0.00  0.00    -0.000 A 
ATOM     15  C   UNL     1      -5.826   1.703  25.341  0.00  0.00    -0.000 A 
ATOM     16  C   UNL     1      -5.256   1.804  24.752  0.00  0.00    -0.004 A 
ENDBRANCH  10  11
ENDBRANCH   9  10
ENDBRANCH   8   9
ENDBRANCH   7   8
TORSDOF 4
ENDMDL
