MODEL 1
REMARK VINA RESULT:     -15.6      0.000      0.000
REMARK  Name = 
REMARK  4 active torsions:
REMARK  status: ('A' for Active; 'I' for Inactive)
REMARK    1  A    between atoms: C_5  and  C_6
REMARK    2  A    between atoms: N_17  and  S_19
REMARK    3  A    between atoms: S_19  and  C_22
REMARK    4  A    between atoms: C_27  and  C_28
REMARK                            x       y       z     vdW  Elec       q    Type
REMARK                         _______ _______ _______ _____ _____    ______ ____
ROOT
ATOM      1  O   UNL     1      -4.275   2.204  24.958  0.00  0.00    -0.267 OA
ATOM      2  C   UNL     1      -4.164   1.389  24.893  0.00  0.00    +0.261 A 
ATOM      3  C   UNL     1      -4.768   0.872  25.114  0.00  0.00    +0.061 A 
ATOM      4  C   UNL     1      -4.657   0.057  25.050  0.00  0.00    +0.006 A 
ATOM      5  C   UNL     1      -3.943  -0.241  24.765  0.00  0.00    +0.012 A 
ATOM     12  C   UNL     1      -3.339   0.275  24.544  0.00  0.00    +0.041 A 
ATOM     13  C   UNL     1      -2.482   0.271  24.212  0.00  0.00    +0.056 C 
ATOM     14  C   UNL     1      -1.975  -0.166  24.004  0.00  0.00    +0.011 C 
ATOM     15  C   UNL     1      -2.087   0.638  24.069  0.00  0.00    +0.041 C 
ATOM     16  C   UNL     1      -2.032   1.624  24.073  0.00  0.00    +0.098 C 
ATOM     17  N   UNL     1      -2.790   1.806  24.372  0.00  0.00    -0.155 NA
ATOM     18  C   UNL     1      -2.413   1.224  24.210  0.00  0.00    +0.102 C 
ATOM     30  C   UNL     1      -2.982   0.652  24.416  0.00  0.00    +0.110 C 
ATOM     31  N   UNL     1      -3.450   1.091  24.609  0.00  0.00    -0.299 N 
ENDROOT
BRANCH   5   6
ATOM      6  C   UNL     1      -3.832  -1.056  24.701  0.00  0.00    +0.001 A 
ATOM      7  C   UNL     1      -4.066  -1.452  24.016  0.00  0.00    +0.000 A 
ATOM      8  C   UNL     1      -3.955  -2.267  23.951  0.00  0.00    +0.000 A 
ATOM      9  C   UNL     1      -3.611  -2.687  24.573  0.00  0.00    +0.000 A 
ATOM     10  C   UNL     1      -3.378  -2.292  25.258  0.00  0.00    +0.000 A 
ATOM     11  C   UNL     1      -3.488  -1.476  25.322  0.00  0.00    +0.000 A 
ENDBRANCH   5   6
BRANCH  17  19
ATOM     19  S   UNL     1      -3.426   2.264  24.630  0.00  0.00    +0.064 S 
ATOM     20  O   UNL     1      -3.182   2.162  25.412  0.00  0.00    -0.153 OA
ATOM     21  O   UNL     1      -3.670   2.367  23.848  0.00  0.00    -0.153 OA
BRANCH  19  22
ATOM     22  C   UNL     1      -4.062   2.722  24.889  0.00  0.00    +0.132 A 
ATOM     23  C   UNL     1      -4.833   2.443  24.803  0.00  0.00    +0.021 A 
ATOM     24  C   UNL     1      -5.469   2.901  25.061  0.00  0.00    +0.001 A 
ATOM     25  C   UNL     1      -5.334   3.638  25.405  0.00  0.00    +0.001 A 
ATOM     26  C   UNL     1      -4.563   3.917  25.492  0.00  0.00    +0.012 A 
ATOM     27  C   UNL     1      -3.927   3.459  25.233  0.00  0.00    +0.087 A 
BRANCH  27  28
ATOM     28  C   UNL     1      -3.156   3.739  25.319  0.00  0.00    +0.102 C 
ATOM     29  N   UNL     1      -2.384   4.019  25.405  0.00  0.00    -0.191 NA
ENDBRANCH  27  28
ENDBRANCH  19  22
ENDBRANCH  17  19
TORSDOF 4
ENDMDL
MODEL 2
REMARK VINA RESULT:     -15.2      0.974      2.181
REMARK  Name = 
REMARK  4 active torsions:
REMARK  status: ('A' for Active; 'I' for Inactive)
REMARK    1  A    between atoms: C_5  and  C_6
REMARK    2  A    between atoms: N_17  and  S_19
REMARK    3  A    between atoms: S_19  and  C_22
REMARK    4  A    between atoms: C_27  and  C_28
REMARK                            x       y       z     vdW  Elec       q    Type
REMARK                         _______ _______ _______ _____ _____    ______ ____
ROOT
ATOM      1  O   UNL     1      -2.220   2.587  24.780  0.00  0.00    -0.267 OA
ATOM      2  C   UNL     1      -2.519   1.820  24.728  0.00  0.00    +0.261 A 
ATOM      3  C   UNL     1      -2.005   1.185  24.610  0.00  0.00    +0.061 A 
ATOM      4  C   UNL     1      -2.304   0.417  24.558  0.00  0.00    +0.006 A 
ATOM      5  C   UNL     1      -3.115   0.285  24.624  0.00  0.00    +0.012 A 
ATOM     12  C   UNL     1      -3.629   0.920  24.742  0.00  0.00    +0.041 A 
ATOM     13  C   UNL     1      -4.522   1.104  24.849  0.00  0.00    +0.056 C 
ATOM     14  C   UNL     1      -5.150   0.791  24.878  0.00  0.00    +0.011 C 
ATOM     15  C   UNL     1      -4.852   1.547  24.929  0.00  0.00    +0.041 C 
ATOM     16  C   UNL     1      -4.688   2.518  25.015  0.00  0.00    +0.098 C 
ATOM     17  N   UNL     1      -3.856   2.527  24.934  0.00  0.00    -0.155 NA
ATOM     18  C   UNL     1      -4.380   2.045  24.935  0.00  0.00    +0.102 C 
ATOM     30  C   UNL     1      -3.916   1.364  24.817  0.00  0.00    +0.110 C 
ATOM     31  N   UNL     1      -3.330   1.687  24.794  0.00  0.00    -0.299 N 
ENDROOT
BRANCH   5   6
ATOM      6  C   UNL     1      -3.414  -0.483  24.572  0.00  0.00    +0.001 A 
ATOM      7  C   UNL     1      -3.699  -0.767  23.852  0.00  0.00    +0.000 A 
ATOM      8  C   UNL     1      -3.998  -1.534  23.800  0.00  0.00    +0.000 A 
ATOM      9  C   UNL     1      -4.011  -2.018  24.468  0.00  0.00    +0.000 A 
ATOM     10  C   UNL     1      -3.725  -1.734  25.188  0.00  0.00    +0.000 A 
ATOM     11  C   UNL     1      -3.427  -0.967  25.240  0.00  0.00    +0.000 A 
ENDBRANCH   5   6
BRANCH  17  19
ATOM     19  S   UNL     1      -3.091   2.832  24.891  0.00  0.00    +0.064 S 
ATOM     20  O   UNL     1      -3.217   3.039  24.102  0.00  0.00    -0.153 OA
ATOM     21  O   UNL     1      -2.964   2.625  25.680  0.00  0.00    -0.153 OA
BRANCH  19  22
ATOM     22  C   UNL     1      -2.325   3.137  24.848  0.00  0.00    +0.132 A 
ATOM     23  C   UNL     1      -1.784   2.819  24.313  0.00  0.00    +0.021 A 
ATOM     24  C   UNL     1      -1.019   3.124  24.270  0.00  0.00    +0.001 A 
ATOM     25  C   UNL     1      -0.795   3.747  24.762  0.00  0.00    +0.001 A 
ATOM     26  C   UNL     1      -1.335   4.064  25.298  0.00  0.00    +0.012 A 
ATOM     27  C   UNL     1      -2.101   3.759  25.341  0.00  0.00    +0.087 A 
BRANCH  27  28
ATOM     28  C   UNL     1      -2.641   4.077  25.877  0.00  0.00    +0.102 C 
ATOM     29  N   UNL     1      -3.182   4.396  26.413  0.00  0.00    -0.191 NA
ENDBRANCH  27  28
ENDBRANCH  19  22
ENDBRANCH  17  19
TORSDOF 4
ENDMDL
