MODEL 1
REMARK VINA RESULT:      -8.0      0.000      0.000
REMARK  Name = 
REMARK  5 active torsions:
REMARK  status: ('A' for Active; 'I' for Inactive)
REMARK    1  A    between atoms: N_2  and  C_4
REMARK    2  A    between atoms: C_7  and  C_10
REMARK    3  A    between atoms: N_15  and  C_16
REMARK    4  A    between atoms: C_20  and  N_24
REMARK    5  A    between atoms: C_25  and  C_27
REMARK                            x       y       z     vdW  Elec       q    Type
REMARK                         _______ _______ _______ _____ _____    ______ ____
ROOT
ATOM     16  C   UNL     1      -0.214   1.217  23.860  0.00  0.00    +0.154 C 
ATOM     17  C   UNL     1      -0.639   1.233  23.153  0.00  0.00    +0.166 C 
ATOM     18  O   UNL     1      -1.442   1.255  23.340  0.00  0.00    -0.350 OA
ATOM     19  C   UNL     1      -1.513   1.252  24.161  0.00  0.00    +0.166 C 
ATOM     20  C   UNL     1      -2.053   1.264  24.786  0.00  0.00    +0.155 C 
ATOM     21  C   UNL     1      -1.627   1.248  25.492  0.00  0.00    +0.166 C 
ATOM     22  O   UNL     1      -0.824   1.226  25.305  0.00  0.00    -0.350 OA
ATOM     23  C   UNL     1      -0.754   1.229  24.483  0.00  0.00    +0.166 C 
ENDROOT
BRANCH  16  15
ATOM     10  C   UNL     1       2.319   0.220  22.985  0.00  0.00    +0.086 A 
ATOM     11  C   UNL     1       1.941  -0.230  22.406  0.00  0.00    +0.040 A 
ATOM     12  C   UNL     1       1.119  -0.207  22.336  0.00  0.00    +0.103 A 
ATOM     13  N   UNL     1       0.675   0.268  22.843  0.00  0.00    -0.211 NA
ATOM     14  C   UNL     1       1.053   0.719  23.422  0.00  0.00    +0.237 A 
ATOM     15  N   UNL     1       0.608   1.193  23.930  0.00  0.00    -0.200 NA
ATOM     34  N   UNL     1       1.874   0.695  23.493  0.00  0.00    -0.212 NA
BRANCH  10   7
ATOM      4  C   UNL     1       4.784   0.149  23.196  0.00  0.00    +0.048 A 
ATOM      5  C   UNL     1       4.327  -0.485  23.463  0.00  0.00    +0.015 A 
ATOM      6  C   UNL     1       3.506  -0.461  23.393  0.00  0.00    +0.003 A 
ATOM      7  C   UNL     1       3.140   0.196  23.055  0.00  0.00    +0.018 A 
ATOM      8  C   UNL     1       3.595   0.830  22.788  0.00  0.00    +0.003 A 
ATOM      9  C   UNL     1       4.417   0.806  22.859  0.00  0.00    +0.015 A 
BRANCH   4   2
ATOM      1  C   UNL     1       5.972   0.455  23.927  0.00  0.00    +0.112 C 
ATOM      2  N   UNL     1       5.605   0.125  23.266  0.00  0.00    -0.304 N 
ATOM      3  C   UNL     1       6.060  -0.229  22.676  0.00  0.00    +0.112 C 
ENDBRANCH   4   2
ENDBRANCH  10   7
ENDBRANCH  16  15
BRANCH  20  24
ATOM     24  N   UNL     1      -2.875   1.288  24.715  0.00  0.00    -0.198 NA
ATOM     25  C   UNL     1      -3.306   1.866  25.116  0.00  0.00    +0.265 C 
ATOM     26  O   UNL     1      -2.917   2.419  25.587  0.00  0.00    -0.268 OA
BRANCH  25  27
ATOM     27  C   UNL     1      -4.128   1.889  25.045  0.00  0.00    +0.055 A 
ATOM     28  C   UNL     1      -4.519   2.615  25.016  0.00  0.00    +0.004 A 
ATOM     29  C   UNL     1      -5.341   2.640  24.945  0.00  0.00    -0.004 A 
ATOM     30  C   UNL     1      -5.771   1.937  24.903  0.00  0.00    -0.022 A 
ATOM     31  C   UNL     1      -6.593   1.961  24.833  0.00  0.00    +0.031 C 
ATOM     32  C   UNL     1      -5.381   1.212  24.933  0.00  0.00    -0.004 A 
ATOM     33  C   UNL     1      -4.559   1.187  25.003  0.00  0.00    +0.004 A 
ENDBRANCH  25  27
ENDBRANCH  20  24
TORSDOF 5
ENDMDL
MODEL 2
REMARK VINA RESULT:      -7.8      1.319      7.712
REMARK  Name = 
REMARK  5 active torsions:
REMARK  status: ('A' for Active; 'I' for Inactive)
REMARK    1  A    between atoms: N_2  and  C_4
REMARK    2  A    between atoms: C_7  and  C_10
REMARK    3  A    between atoms: N_15  and  C_16
REMARK    4  A    between atoms: C_20  and  N_24
REMARK    5  A    between atoms: C_25  and  C_27
REMARK                            x       y       z     vdW  Elec       q    Type
REMARK                         _______ _______ _______ _____ _____    ______ ____
ROOT
ATOM     16  C   UNL     1      -0.303   1.555  24.021  0.00  0.00    +0.154 C 
ATOM     17  C   UNL     1       0.167   2.140  24.362  0.00  0.00    +0.166 C 
ATOM     18  O   UNL     1       0.956   1.935  24.241  0.00  0.00    -0.350 OA
ATOM     19  C   UNL     1       0.975   1.224  23.825  0.00  0.00    +0.166 C 
ATOM     20  C   UNL     1       1.473   0.657  23.493  0.00  0.00    +0.155 C 
ATOM     21  C   UNL     1       1.003   0.071  23.151  0.00  0.00    +0.166 C 
ATOM     22  O   UNL     1       0.213   0.277  23.272  0.00  0.00    -0.350 OA
ATOM     23  C   UNL     1       0.196   0.989  23.689  0.00  0.00    +0.166 C 
ENDROOT
BRANCH  16  15
ATOM     10  C   UNL     1      -2.806   2.359  25.143  0.00  0.00    +0.086 A 
ATOM     11  C   UNL     1      -2.408   2.793  25.721  0.00  0.00    +0.040 A 
ATOM     12  C   UNL     1      -1.583   2.809  25.729  0.00  0.00    +0.103 A 
ATOM     13  N   UNL     1      -1.156   2.391  25.159  0.00  0.00    -0.211 NA
ATOM     14  C   UNL     1      -1.555   1.957  24.582  0.00  0.00    +0.237 A 
ATOM     15  N   UNL     1      -1.129   1.539  24.012  0.00  0.00    -0.200 NA
ATOM     34  N   UNL     1      -2.380   1.941  24.574  0.00  0.00    -0.212 NA
BRANCH  10   7
ATOM      4  C   UNL     1      -5.281   2.313  25.119  0.00  0.00    +0.048 A 
ATOM      5  C   UNL     1      -4.854   1.607  25.088  0.00  0.00    +0.015 A 
ATOM      6  C   UNL     1      -4.030   1.622  25.096  0.00  0.00    +0.003 A 
ATOM      7  C   UNL     1      -3.631   2.343  25.135  0.00  0.00    +0.018 A 
ATOM      8  C   UNL     1      -4.057   3.049  25.167  0.00  0.00    +0.003 A 
ATOM      9  C   UNL     1      -4.882   3.034  25.159  0.00  0.00    +0.015 A 
BRANCH   4   2
ATOM      1  C   UNL     1      -6.532   2.795  25.611  0.00  0.00    +0.112 C 
ATOM      2  N   UNL     1      -6.105   2.297  25.111  0.00  0.00    -0.304 N 
ATOM      3  C   UNL     1      -6.504   1.783  24.603  0.00  0.00    +0.112 C 
ENDBRANCH   4   2
ENDBRANCH  10   7
ENDBRANCH  16  15
BRANCH  20  24
ATOM     24  N   UNL     1       2.298   0.673  23.501  0.00  0.00    -0.198 NA
ATOM     25  C   UNL     1       2.726   0.091  23.101  0.00  0.00    +0.265 C 
ATOM     26  O   UNL     1       2.329  -0.506  22.693  0.00  0.00    -0.268 OA
BRANCH  25  27
ATOM     27  C   UNL     1       3.551   0.107  23.109  0.00  0.00    +0.055 A 
ATOM     28  C   UNL     1       3.972  -0.510  23.459  0.00  0.00    +0.004 A 
ATOM     29  C   UNL     1       4.797  -0.495  23.468  0.00  0.00    -0.004 A 
ATOM     30  C   UNL     1       5.201   0.139  23.126  0.00  0.00    -0.022 A 
ATOM     31  C   UNL     1       6.026   0.155  23.134  0.00  0.00    +0.031 C 
ATOM     32  C   UNL     1       4.779   0.756  22.777  0.00  0.00    -0.004 A 
ATOM     33  C   UNL     1       3.954   0.741  22.768  0.00  0.00    +0.004 A 
ENDBRANCH  25  27
ENDBRANCH  20  24
TORSDOF 5
ENDMDL
MODEL 3
REMARK VINA RESULT:      -5.6     17.600     19.342
REMARK  Name = 
REMARK  5 active torsions:
REMARK  status: ('A' for Active; 'I' for Inactive)
REMARK    1  A    between atoms: N_2  and  C_4
REMARK    2  A    between atoms: C_7  and  C_10
REMARK    3  A    between atoms: N_15  and  C_16
REMARK    4  A    between atoms: C_20  and  N_24
REMARK    5  A    between atoms: C_25  and  C_27
REMARK                            x       y       z     vdW  Elec       q    Type
REMARK                         _______ _______ _______ _____ _____    ______ ____
ROOT
ATOM     16  C   UNL     1      17.300  -5.759  27.282  0.00  0.00    +0.154 C 
ATOM     17  C   UNL     1      17.404  -5.013  27.616  0.00  0.00    +0.166 C 
ATOM     18  O   UNL     1      17.405  -4.459  27.005  0.00  0.00    -0.350 OA
ATOM     19  C   UNL     1      17.303  -4.863  26.294  0.00  0.00    +0.166 C 
ATOM     20  C   UNL     1      17.241  -4.771  25.476  0.00  0.00    +0.155 C 
ATOM     21  C   UNL     1      17.138  -5.518  25.142  0.00  0.00    +0.166 C 
ATOM     22  O   UNL     1      17.136  -6.072  25.753  0.00  0.00    -0.350 OA
ATOM     23  C   UNL     1      17.238  -5.667  26.465  0.00  0.00    +0.166 C 
ENDROOT
BRANCH  16  15
ATOM     10  C   UNL     1      16.254  -7.332  29.427  0.00  0.00    +0.086 A 
ATOM     11  C   UNL     1      15.800  -6.690  29.677  0.00  0.00    +0.040 A 
ATOM     12  C   UNL     1      15.835  -5.975  29.265  0.00  0.00    +0.103 A 
ATOM     13  N   UNL     1      16.324  -5.903  28.604  0.00  0.00    -0.211 NA
ATOM     14  C   UNL     1      16.777  -6.546  28.354  0.00  0.00    +0.237 A 
ATOM     15  N   UNL     1      17.265  -6.474  27.693  0.00  0.00    -0.200 NA
ATOM     34  N   UNL     1      16.742  -7.260  28.766  0.00  0.00    -0.212 NA
BRANCH  10   7
ATOM      4  C   UNL     1      16.147  -9.475  30.661  0.00  0.00    +0.048 A 
ATOM      5  C   UNL     1      16.687  -8.893  30.889  0.00  0.00    +0.015 A 
ATOM      6  C   UNL     1      16.722  -8.180  30.477  0.00  0.00    +0.003 A 
ATOM      7  C   UNL     1      16.218  -8.046  29.838  0.00  0.00    +0.018 A 
ATOM      8  C   UNL     1      15.679  -8.627  29.610  0.00  0.00    +0.003 A 
ATOM      9  C   UNL     1      15.643  -9.341  30.022  0.00  0.00    +0.015 A 
BRANCH   4   2
ATOM      1  C   UNL     1      16.788 -10.657  31.145  0.00  0.00    +0.112 C 
ATOM      2  N   UNL     1      16.112 -10.189  31.072  0.00  0.00    -0.304 N 
ATOM      3  C   UNL     1      15.401 -10.436  31.411  0.00  0.00    +0.112 C 
ENDBRANCH   4   2
ENDBRANCH  10   7
ENDBRANCH  16  15
BRANCH  20  24
ATOM     24  N   UNL     1      17.276  -4.056  25.064  0.00  0.00    -0.198 NA
ATOM     25  C   UNL     1      16.913  -3.987  24.327  0.00  0.00    +0.265 C 
ATOM     26  O   UNL     1      16.514  -4.631  24.001  0.00  0.00    -0.268 OA
BRANCH  25  27
ATOM     27  C   UNL     1      16.948  -3.272  23.916  0.00  0.00    +0.055 A 
ATOM     28  C   UNL     1      16.562  -2.606  24.212  0.00  0.00    +0.004 A 
ATOM     29  C   UNL     1      16.596  -1.891  23.801  0.00  0.00    -0.004 A 
ATOM     30  C   UNL     1      17.018  -1.844  23.093  0.00  0.00    -0.022 A 
ATOM     31  C   UNL     1      17.053  -1.129  22.682  0.00  0.00    +0.031 C 
ATOM     32  C   UNL     1      17.404  -2.510  22.797  0.00  0.00    -0.004 A 
ATOM     33  C   UNL     1      17.369  -3.224  23.208  0.00  0.00    +0.004 A 
ENDBRANCH  25  27
ENDBRANCH  20  24
TORSDOF 5
ENDMDL
MODEL 4
REMARK VINA RESULT:      -4.9     16.997     18.777
REMARK  Name = 
REMARK  5 active torsions:
REMARK  status: ('A' for Active; 'I' for Inactive)
REMARK    1  A    between atoms: N_2  and  C_4
REMARK    2  A    between atoms: C_7  and  C_10
REMARK    3  A    between atoms: N_15  and  C_16
REMARK    4  A    between atoms: C_20  and  N_24
REMARK    5  A    between atoms: C_25  and  C_27
REMARK                            x       y       z     vdW  Elec       q    Type
REMARK                         _______ _______ _______ _____ _____    ______ ____
ROOT
ATOM     16  C   UNL     1      16.702  -6.713  26.243  0.00  0.00    +0.154 C 
ATOM     17  C   UNL     1      17.404  -7.064  26.497  0.00  0.00    +0.166 C 
ATOM     18  O   UNL     1      17.223  -7.571  27.122  0.00  0.00    -0.350 OA
ATOM     19  C   UNL     1      16.410  -7.534  27.254  0.00  0.00    +0.166 C 
ATOM     20  C   UNL     1      15.795  -7.823  27.721  0.00  0.00    +0.155 C 
ATOM     21  C   UNL     1      15.093  -7.473  27.466  0.00  0.00    +0.166 C 
ATOM     22  O   UNL     1      15.274  -6.966  26.841  0.00  0.00    -0.350 OA
ATOM     23  C   UNL     1      16.088  -7.003  26.710  0.00  0.00    +0.166 C 
ENDROOT
BRANCH  16  15
ATOM     10  C   UNL     1      17.023  -4.056  25.239  0.00  0.00    +0.086 A 
ATOM     11  C   UNL     1      17.331  -3.819  25.967  0.00  0.00    +0.040 A 
ATOM     12  C   UNL     1      17.405  -4.364  26.581  0.00  0.00    +0.103 A 
ATOM     13  N   UNL     1      17.171  -5.148  26.469  0.00  0.00    -0.211 NA
ATOM     14  C   UNL     1      16.863  -5.385  25.741  0.00  0.00    +0.237 A 
ATOM     15  N   UNL     1      16.628  -6.168  25.628  0.00  0.00    -0.200 NA
ATOM     34  N   UNL     1      16.789  -4.839  25.127  0.00  0.00    -0.212 NA
BRANCH  10   7
ATOM      4  C   UNL     1      16.801  -2.418  23.397  0.00  0.00    +0.048 A 
ATOM      5  C   UNL     1      17.052  -3.189  23.237  0.00  0.00    +0.015 A 
ATOM      6  C   UNL     1      17.126  -3.734  23.851  0.00  0.00    +0.003 A 
ATOM      7  C   UNL     1      16.949  -3.511  24.625  0.00  0.00    +0.018 A 
ATOM      8  C   UNL     1      16.699  -2.741  24.785  0.00  0.00    +0.003 A 
ATOM      9  C   UNL     1      16.625  -2.195  24.171  0.00  0.00    +0.015 A 
BRANCH   4   2
ATOM      1  C   UNL     1      15.982  -1.589  22.571  0.00  0.00    +0.112 C 
ATOM      2  N   UNL     1      16.727  -1.873  22.783  0.00  0.00    -0.304 N 
ATOM      3  C   UNL     1      17.398  -1.611  22.380  0.00  0.00    +0.112 C 
ENDBRANCH   4   2
ENDBRANCH  10   7
ENDBRANCH  16  15
BRANCH  20  24
ATOM     24  N   UNL     1      15.869  -8.369  28.336  0.00  0.00    -0.198 NA
ATOM     25  C   UNL     1      15.388  -8.306  29.003  0.00  0.00    +0.265 C 
ATOM     26  O   UNL     1      14.834  -7.698  29.057  0.00  0.00    -0.268 OA
BRANCH  25  27
ATOM     27  C   UNL     1      15.462  -8.852  29.618  0.00  0.00    +0.055 A 
ATOM     28  C   UNL     1      16.066  -8.768  30.174  0.00  0.00    +0.004 A 
ATOM     29  C   UNL     1      16.141  -9.313  30.789  0.00  0.00    -0.004 A 
ATOM     30  C   UNL     1      15.610  -9.943  30.847  0.00  0.00    -0.022 A 
ATOM     31  C   UNL     1      15.684 -10.489  31.462  0.00  0.00    +0.031 C 
ATOM     32  C   UNL     1      15.007 -10.026  30.291  0.00  0.00    -0.004 A 
ATOM     33  C   UNL     1      14.932  -9.481  29.676  0.00  0.00    +0.004 A 
ENDBRANCH  25  27
ENDBRANCH  20  24
TORSDOF 5
ENDMDL
