MODEL 1
REMARK VINA RESULT:     -15.2      0.000      0.000
REMARK  Name = 
REMARK  4 active torsions:
REMARK  status: ('A' for Active; 'I' for Inactive)
REMARK    1  A    between atoms: O_2  and  C_3
REMARK    2  A    between atoms: C_6  and  C_9
REMARK    3  A    between atoms: C_20  and  N_21
REMARK    4  A    between atoms: N_24  and  C_25
REMARK                            x       y       z     vdW  Elec       q    Type
REMARK                         _______ _______ _______ _____ _____    ______ ____
ROOT
ATOM      9  C   UNL     1      -1.998  -0.644  25.506  0.00  0.00    +0.249 C 
ATOM     10  O   UNL     1      -1.527  -1.037  26.127  0.00  0.00    -0.270 OA
ATOM     11  N   UNL     1      -2.489  -1.295  25.343  0.00  0.00    -0.276 N 
ATOM     12  C   UNL     1      -2.714  -2.085  25.493  0.00  0.00    +0.096 C 
ATOM     13  C   UNL     1      -3.452  -2.173  24.841  0.00  0.00    +0.043 C 
ATOM     14  C   UNL     1      -4.071  -2.404  24.365  0.00  0.00    +0.011 C 
ATOM     15  C   UNL     1      -3.682  -1.829  24.467  0.00  0.00    +0.058 C 
ATOM     16  C   UNL     1      -2.972  -1.760  25.102  0.00  0.00    +0.099 C 
ATOM     17  C   UNL     1      -3.579  -0.965  24.170  0.00  0.00    +0.041 A 
ATOM     18  C   UNL     1      -3.898  -0.433  23.627  0.00  0.00    +0.014 A 
ATOM     19  C   UNL     1      -3.590   0.330  23.568  0.00  0.00    +0.023 A 
ATOM     20  C   UNL     1      -2.962   0.560  24.052  0.00  0.00    +0.131 A 
ATOM     32  C   UNL     1      -2.643   0.027  24.594  0.00  0.00    +0.276 A 
ATOM     33  O   UNL     1      -1.881   0.052  25.298  0.00  0.00    -0.266 OA
ATOM     34  N   UNL     1      -2.951  -0.735  24.654  0.00  0.00    -0.298 N 
ATOM     35  C   UNL     1      -3.337  -1.270  24.536  0.00  0.00    +0.110 C 
ENDROOT
BRANCH   9   6
ATOM      3  C   UNL     1      -2.835   1.540  23.747  0.00  0.00    +0.139 A 
ATOM      4  C   UNL     1      -2.184   0.922  23.661  0.00  0.00    +0.037 A 
ATOM      5  C   UNL     1      -1.904   0.218  24.212  0.00  0.00    +0.008 A 
ATOM      6  C   UNL     1      -2.264   0.057  24.937  0.00  0.00    +0.054 A 
ATOM      7  C   UNL     1      -2.892   0.522  25.199  0.00  0.00    +0.008 A 
ATOM      8  C   UNL     1      -3.162   1.149  24.735  0.00  0.00    +0.037 A 
BRANCH   3   2
ATOM      1  C   UNL     1      -2.366   2.009  22.123  0.00  0.00    +0.252 C 
ATOM      2  O   UNL     1      -2.464   1.712  22.993  0.00  0.00    -0.471 OA
ENDBRANCH   3   2
ENDBRANCH   9   6
BRANCH  20  21
ATOM     21  N   UNL     1      -2.476   1.429  24.111  0.00  0.00    -0.156 NA
ATOM     22  C   UNL     1      -2.839   2.241  24.387  0.00  0.00    +0.348 C 
ATOM     23  O   UNL     1      -3.797   2.223  24.641  0.00  0.00    -0.248 OA
ATOM     24  N   UNL     1      -2.673   3.089  24.528  0.00  0.00    -0.161 NA
BRANCH  24  25
ATOM     25  C   UNL     1      -3.450   3.281  24.779  0.00  0.00    +0.075 A 
ATOM     26  C   UNL     1      -3.498   3.434  25.588  0.00  0.00    +0.018 A 
ATOM     27  C   UNL     1      -4.223   3.632  25.928  0.00  0.00    +0.013 A 
ATOM     28  C   UNL     1      -4.900   3.676  25.459  0.00  0.00    +0.058 A 
ATOM     29 CL   UNL     1      -5.626   3.874  25.799  0.00  0.00    -0.082 Cl
ATOM     30  C   UNL     1      -4.852   3.522  24.650  0.00  0.00    +0.013 A 
ATOM     31  C   UNL     1      -4.127   3.325  24.310  0.00  0.00    +0.018 A 
ENDBRANCH  24  25
ENDBRANCH  20  21
TORSDOF 4
ENDMDL
MODEL 2
REMARK VINA RESULT:     -14.7      2.194      3.885
REMARK  Name = 
REMARK  4 active torsions:
REMARK  status: ('A' for Active; 'I' for Inactive)
REMARK    1  A    between atoms: O_2  and  C_3
REMARK    2  A    between atoms: C_6  and  C_9
REMARK    3  A    between atoms: C_20  and  N_21
REMARK    4  A    between atoms: N_24  and  C_25
REMARK                            x       y       z     vdW  Elec       q    Type
REMARK                         _______ _______ _______ _____ _____    ______ ____
ROOT
ATOM      9  C   UNL     1      -3.806   3.440  25.542  0.00  0.00    +0.249 C 
ATOM     10  O   UNL     1      -3.893   4.103  26.104  0.00  0.00    -0.270 OA
ATOM     11  N   UNL     1      -4.585   3.160  25.615  0.00  0.00    -0.276 N 
ATOM     12  C   UNL     1      -5.346   3.221  25.953  0.00  0.00    +0.096 C 
ATOM     13  C   UNL     1      -5.786   2.455  25.510  0.00  0.00    +0.043 C 
ATOM     14  C   UNL     1      -6.284   1.872  25.235  0.00  0.00    +0.011 C 
ATOM     15  C   UNL     1      -5.618   2.072  25.141  0.00  0.00    +0.058 C 
ATOM     16  C   UNL     1      -5.207   2.816  25.577  0.00  0.00    +0.099 C 
ATOM     17  C   UNL     1      -4.858   1.850  24.675  0.00  0.00    +0.041 A 
ATOM     18  C   UNL     1      -4.580   1.298  24.128  0.00  0.00    +0.014 A 
ATOM     19  C   UNL     1      -3.800   1.338  23.863  0.00  0.00    +0.023 A 
ATOM     20  C   UNL     1      -3.298   1.930  24.144  0.00  0.00    +0.131 A 
ATOM     32  C   UNL     1      -3.576   2.482  24.690  0.00  0.00    +0.276 A 
ATOM     33  O   UNL     1      -3.176   3.298  25.188  0.00  0.00    -0.266 OA
ATOM     34  N   UNL     1      -4.356   2.442  24.955  0.00  0.00    -0.298 N 
ATOM     35  C   UNL     1      -4.987   2.231  25.027  0.00  0.00    +0.110 C 
ENDROOT
BRANCH   9   6
ATOM      3  C   UNL     1      -2.424   1.694  23.644  0.00  0.00    +0.139 A 
ATOM      4  C   UNL     1      -2.857   2.475  23.527  0.00  0.00    +0.037 A 
ATOM      5  C   UNL     1      -3.304   3.045  24.121  0.00  0.00    +0.008 A 
ATOM      6  C   UNL     1      -3.362   2.882  24.927  0.00  0.00    +0.054 A 
ATOM      7  C   UNL     1      -3.022   2.197  25.236  0.00  0.00    +0.008 A 
ATOM      8  C   UNL     1      -2.622   1.675  24.738  0.00  0.00    +0.037 A 
BRANCH   3   2
ATOM      1  C   UNL     1      -2.347   1.716  21.891  0.00  0.00    +0.252 C 
ATOM      2  O   UNL     1      -2.360   1.859  22.805  0.00  0.00    -0.471 OA
ENDBRANCH   3   2
ENDBRANCH   9   6
BRANCH  20  21
ATOM     21  N   UNL     1      -2.342   2.121  23.932  0.00  0.00    -0.156 NA
ATOM     22  C   UNL     1      -1.617   1.572  24.133  0.00  0.00    +0.348 C 
ATOM     23  O   UNL     1      -1.832   0.724  24.600  0.00  0.00    -0.248 OA
ATOM     24  N   UNL     1      -0.747   1.485  24.077  0.00  0.00    -0.161 NA
BRANCH  24  25
ATOM     25  C   UNL     1      -0.719   0.740  24.461  0.00  0.00    +0.075 A 
ATOM     26  C   UNL     1      -0.542   0.119  23.948  0.00  0.00    +0.018 A 
ATOM     27  C   UNL     1      -0.492  -0.653  24.236  0.00  0.00    +0.013 A 
ATOM     28  C   UNL     1      -0.619  -0.803  25.036  0.00  0.00    +0.058 A 
ATOM     29 CL   UNL     1      -0.569  -1.575  25.324  0.00  0.00    -0.082 Cl
ATOM     30  C   UNL     1      -0.795  -0.183  25.550  0.00  0.00    +0.013 A 
ATOM     31  C   UNL     1      -0.845   0.589  25.263  0.00  0.00    +0.018 A 
ENDBRANCH  24  25
ENDBRANCH  20  21
TORSDOF 4
ENDMDL
MODEL 3
REMARK VINA RESULT:     -14.7      1.650      4.101
REMARK  Name = 
REMARK  4 active torsions:
REMARK  status: ('A' for Active; 'I' for Inactive)
REMARK    1  A    between atoms: O_2  and  C_3
REMARK    2  A    between atoms: C_6  and  C_9
REMARK    3  A    between atoms: C_20  and  N_21
REMARK    4  A    between atoms: N_24  and  C_25
REMARK                            x       y       z     vdW  Elec       q    Type
REMARK                         _______ _______ _______ _____ _____    ______ ____
ROOT
ATOM      9  C   UNL     1      -2.865   2.877  25.442  0.00  0.00    +0.249 C 
ATOM     10  O   UNL     1      -3.103   3.444  26.062  0.00  0.00    -0.270 OA
ATOM     11  N   UNL     1      -3.304   3.229  24.829  0.00  0.00    -0.276 N 
ATOM     12  C   UNL     1      -3.823   3.826  24.563  0.00  0.00    +0.096 C 
ATOM     13  C   UNL     1      -3.906   3.564  23.614  0.00  0.00    +0.043 C 
ATOM     14  C   UNL     1      -4.077   3.482  22.822  0.00  0.00    +0.011 C 
ATOM     15  C   UNL     1      -3.691   3.151  23.306  0.00  0.00    +0.058 C 
ATOM     16  C   UNL     1      -3.622   3.418  24.221  0.00  0.00    +0.099 C 
ATOM     17  C   UNL     1      -3.129   2.432  23.412  0.00  0.00    +0.041 A 
ATOM     18  C   UNL     1      -2.795   1.812  22.983  0.00  0.00    +0.014 A 
ATOM     19  C   UNL     1      -2.290   1.277  23.357  0.00  0.00    +0.023 A 
ATOM     20  C   UNL     1      -2.119   1.363  24.160  0.00  0.00    +0.131 A 
ATOM     32  C   UNL     1      -2.453   1.983  24.588  0.00  0.00    +0.276 A 
ATOM     33  O   UNL     1      -2.410   2.313  25.571  0.00  0.00    -0.266 OA
ATOM     34  N   UNL     1      -2.958   2.518  24.215  0.00  0.00    -0.298 N 
ATOM     35  C   UNL     1      -3.317   2.815  23.734  0.00  0.00    +0.110 C 
ENDROOT
BRANCH   9   6
ATOM      3  C   UNL     1      -1.496   0.552  24.311  0.00  0.00    +0.139 A 
ATOM      4  C   UNL     1      -1.219   1.398  24.446  0.00  0.00    +0.037 A 
ATOM      5  C   UNL     1      -1.642   2.152  24.805  0.00  0.00    +0.008 A 
ATOM      6  C   UNL     1      -2.421   2.132  25.077  0.00  0.00    +0.054 A 
ATOM      7  C   UNL     1      -2.854   1.432  25.038  0.00  0.00    +0.008 A 
ATOM      8  C   UNL     1      -2.508   0.750  24.726  0.00  0.00    +0.037 A 
BRANCH   3   2
ATOM      1  C   UNL     1       0.066   0.340  23.540  0.00  0.00    +0.252 C 
ATOM      2  O   UNL     1      -0.687   0.567  24.027  0.00  0.00    -0.471 OA
ENDBRANCH   3   2
ENDBRANCH   9   6
BRANCH  20  21
ATOM     21  N   UNL     1      -1.540   0.816  24.759  0.00  0.00    -0.156 NA
ATOM     22  C   UNL     1      -1.700  -0.064  25.022  0.00  0.00    +0.348 C 
ATOM     23  O   UNL     1      -2.526  -0.479  24.663  0.00  0.00    -0.248 OA
ATOM     24  N   UNL     1      -1.399  -0.737  25.494  0.00  0.00    -0.161 NA
BRANCH  24  25
ATOM     25  C   UNL     1      -2.030  -1.255  25.304  0.00  0.00    +0.075 A 
ATOM     26  C   UNL     1      -1.817  -1.834  24.757  0.00  0.00    +0.018 A 
ATOM     27  C   UNL     1      -2.373  -2.391  24.508  0.00  0.00    +0.013 A 
ATOM     28  C   UNL     1      -3.141  -2.368  24.806  0.00  0.00    +0.058 A 
ATOM     29 CL   UNL     1      -3.697  -2.925  24.557  0.00  0.00    -0.082 Cl
ATOM     30  C   UNL     1      -3.354  -1.789  25.353  0.00  0.00    +0.013 A 
ATOM     31  C   UNL     1      -2.799  -1.232  25.602  0.00  0.00    +0.018 A 
ENDBRANCH  24  25
ENDBRANCH  20  21
TORSDOF 4
ENDMDL
MODEL 4
REMARK VINA RESULT:     -14.6      1.688      2.347
REMARK  Name = 
REMARK  4 active torsions:
REMARK  status: ('A' for Active; 'I' for Inactive)
REMARK    1  A    between atoms: O_2  and  C_3
REMARK    2  A    between atoms: C_6  and  C_9
REMARK    3  A    between atoms: C_20  and  N_21
REMARK    4  A    between atoms: N_24  and  C_25
REMARK                            x       y       z     vdW  Elec       q    Type
REMARK                         _______ _______ _______ _____ _____    ______ ____
ROOT
ATOM      9  C   UNL     1      -3.434  -1.242  25.999  0.00  0.00    +0.249 C 
ATOM     10  O   UNL     1      -3.359  -1.778  26.684  0.00  0.00    -0.270 OA
ATOM     11  N   UNL     1      -3.559  -1.838  25.434  0.00  0.00    -0.276 N 
ATOM     12  C   UNL     1      -3.638  -2.647  25.242  0.00  0.00    +0.096 C 
ATOM     13  C   UNL     1      -3.786  -2.573  24.268  0.00  0.00    +0.043 C 
ATOM     14  C   UNL     1      -3.918  -2.681  23.471  0.00  0.00    +0.011 C 
ATOM     15  C   UNL     1      -3.816  -2.145  23.912  0.00  0.00    +0.058 C 
ATOM     16  C   UNL     1      -3.674  -2.233  24.852  0.00  0.00    +0.099 C 
ATOM     17  C   UNL     1      -3.757  -1.228  23.930  0.00  0.00    +0.041 A 
ATOM     18  C   UNL     1      -3.796  -0.574  23.429  0.00  0.00    +0.014 A 
ATOM     19  C   UNL     1      -3.702   0.187  23.735  0.00  0.00    +0.023 A 
ATOM     20  C   UNL     1      -3.569   0.293  24.543  0.00  0.00    +0.131 A 
ATOM     32  C   UNL     1      -3.530  -0.361  25.044  0.00  0.00    +0.276 A 
ATOM     33  O   UNL     1      -3.380  -0.510  26.059  0.00  0.00    -0.266 OA
ATOM     34  N   UNL     1      -3.624  -1.122  24.737  0.00  0.00    -0.298 N 
ATOM     35  C   UNL     1      -3.723  -1.615  24.296  0.00  0.00    +0.110 C 
ENDROOT
BRANCH   9   6
ATOM      3  C   UNL     1      -3.482   1.321  24.589  0.00  0.00    +0.139 A 
ATOM      4  C   UNL     1      -4.122   0.882  25.047  0.00  0.00    +0.037 A 
ATOM      5  C   UNL     1      -4.123   0.064  25.502  0.00  0.00    +0.008 A 
ATOM      6  C   UNL     1      -3.455  -0.417  25.547  0.00  0.00    +0.054 A 
ATOM      7  C   UNL     1      -2.753  -0.182  25.182  0.00  0.00    +0.008 A 
ATOM      8  C   UNL     1      -2.720   0.534  24.773  0.00  0.00    +0.037 A 
BRANCH   3   2
ATOM      1  C   UNL     1      -4.731   2.512  24.267  0.00  0.00    +0.252 C 
ATOM      2  O   UNL     1      -4.175   1.825  24.540  0.00  0.00    -0.471 OA
ENDBRANCH   3   2
ENDBRANCH   9   6
BRANCH  20  21
ATOM     21  N   UNL     1      -3.435   1.127  25.072  0.00  0.00    -0.156 NA
ATOM     22  C   UNL     1      -2.670   1.659  25.071  0.00  0.00    +0.348 C 
ATOM     23  O   UNL     1      -1.931   1.353  24.485  0.00  0.00    -0.248 OA
ATOM     24  N   UNL     1      -2.298   2.380  25.400  0.00  0.00    -0.161 NA
BRANCH  24  25
ATOM     25  C   UNL     1      -1.577   2.295  24.981  0.00  0.00    +0.075 A 
ATOM     26  C   UNL     1      -0.949   2.064  25.463  0.00  0.00    +0.018 A 
ATOM     27  C   UNL     1      -0.198   1.955  25.139  0.00  0.00    +0.013 A 
ATOM     28  C   UNL     1      -0.076   2.077  24.333  0.00  0.00    +0.058 A 
ATOM     29 CL   UNL     1       0.675   1.967  24.009  0.00  0.00    -0.082 Cl
ATOM     30  C   UNL     1      -0.703   2.308  23.851  0.00  0.00    +0.013 A 
ATOM     31  C   UNL     1      -1.454   2.417  24.174  0.00  0.00    +0.018 A 
ENDBRANCH  24  25
ENDBRANCH  20  21
TORSDOF 4
ENDMDL
MODEL 5
REMARK VINA RESULT:     -14.5      1.537      4.282
REMARK  Name = 
REMARK  4 active torsions:
REMARK  status: ('A' for Active; 'I' for Inactive)
REMARK    1  A    between atoms: O_2  and  C_3
REMARK    2  A    between atoms: C_6  and  C_9
REMARK    3  A    between atoms: C_20  and  N_21
REMARK    4  A    between atoms: N_24  and  C_25
REMARK                            x       y       z     vdW  Elec       q    Type
REMARK                         _______ _______ _______ _____ _____    ______ ____
ROOT
ATOM      9  C   UNL     1      -4.653   3.199  25.169  0.00  0.00    +0.249 C 
ATOM     10  O   UNL     1      -5.380   3.567  25.481  0.00  0.00    -0.270 OA
ATOM     11  N   UNL     1      -4.123   3.663  25.609  0.00  0.00    -0.276 N 
ATOM     12  C   UNL     1      -3.984   4.270  26.166  0.00  0.00    +0.096 C 
ATOM     13  C   UNL     1      -2.996   4.255  26.184  0.00  0.00    +0.043 C 
ATOM     14  C   UNL     1      -2.200   4.368  26.313  0.00  0.00    +0.011 C 
ATOM     15  C   UNL     1      -2.608   3.953  25.921  0.00  0.00    +0.058 C 
ATOM     16  C   UNL     1      -3.563   3.979  25.915  0.00  0.00    +0.099 C 
ATOM     17  C   UNL     1      -2.564   3.274  25.303  0.00  0.00    +0.041 A 
ATOM     18  C   UNL     1      -2.015   2.811  24.899  0.00  0.00    +0.014 A 
ATOM     19  C   UNL     1      -2.273   2.236  24.366  0.00  0.00    +0.023 A 
ATOM     20  C   UNL     1      -3.080   2.124  24.238  0.00  0.00    +0.131 A 
ATOM     32  C   UNL     1      -3.630   2.587  24.643  0.00  0.00    +0.276 A 
ATOM     33  O   UNL     1      -4.664   2.655  24.672  0.00  0.00    -0.266 OA
ATOM     34  N   UNL     1      -3.372   3.162  25.176  0.00  0.00    -0.298 N 
ATOM     35  C   UNL     1      -2.960   3.546  25.538  0.00  0.00    +0.110 C 
ENDROOT
BRANCH   9   6
ATOM      3  C   UNL     1      -3.061   1.350  23.554  0.00  0.00    +0.139 A 
ATOM      4  C   UNL     1      -3.421   2.152  23.358  0.00  0.00    +0.037 A 
ATOM      5  C   UNL     1      -3.932   2.755  23.861  0.00  0.00    +0.008 A 
ATOM      6  C   UNL     1      -4.141   2.607  24.645  0.00  0.00    +0.054 A 
ATOM      7  C   UNL     1      -3.900   1.910  25.013  0.00  0.00    +0.008 A 
ATOM      8  C   UNL     1      -3.449   1.358  24.596  0.00  0.00    +0.037 A 
BRANCH   3   2
ATOM      1  C   UNL     1      -2.313   1.574  21.983  0.00  0.00    +0.252 C 
ATOM      2  O   UNL     1      -2.840   1.498  22.739  0.00  0.00    -0.471 OA
ENDBRANCH   3   2
ENDBRANCH   9   6
BRANCH  20  21
ATOM     21  N   UNL     1      -3.558   1.485  23.640  0.00  0.00    -0.156 NA
ATOM     22  C   UNL     1      -3.602   0.561  23.751  0.00  0.00    +0.348 C 
ATOM     23  O   UNL     1      -3.126   0.196  24.540  0.00  0.00    -0.248 OA
ATOM     24  N   UNL     1      -3.917  -0.186  23.420  0.00  0.00    -0.161 NA
BRANCH  24  25
ATOM     25  C   UNL     1      -3.587  -0.679  24.012  0.00  0.00    +0.075 A 
ATOM     26  C   UNL     1      -4.152  -0.978  24.533  0.00  0.00    +0.018 A 
ATOM     27  C   UNL     1      -3.921  -1.475  25.151  0.00  0.00    +0.013 A 
ATOM     28  C   UNL     1      -3.126  -1.672  25.246  0.00  0.00    +0.058 A 
ATOM     29 CL   UNL     1      -2.896  -2.169  25.864  0.00  0.00    -0.082 Cl
ATOM     30  C   UNL     1      -2.562  -1.373  24.725  0.00  0.00    +0.013 A 
ATOM     31  C   UNL     1      -2.792  -0.877  24.108  0.00  0.00    +0.018 A 
ENDBRANCH  24  25
ENDBRANCH  20  21
TORSDOF 4
ENDMDL
MODEL 6
REMARK VINA RESULT:     -14.2      1.787      2.152
REMARK  Name = 
REMARK  4 active torsions:
REMARK  status: ('A' for Active; 'I' for Inactive)
REMARK    1  A    between atoms: O_2  and  C_3
REMARK    2  A    between atoms: C_6  and  C_9
REMARK    3  A    between atoms: C_20  and  N_21
REMARK    4  A    between atoms: N_24  and  C_25
REMARK                            x       y       z     vdW  Elec       q    Type
REMARK                         _______ _______ _______ _____ _____    ______ ____
ROOT
ATOM      9  C   UNL     1      -2.366  -0.939  26.042  0.00  0.00    +0.249 C 
ATOM     10  O   UNL     1      -2.572  -1.443  26.725  0.00  0.00    -0.270 OA
ATOM     11  N   UNL     1      -3.027  -1.139  25.581  0.00  0.00    -0.276 N 
ATOM     12  C   UNL     1      -3.738  -1.568  25.484  0.00  0.00    +0.096 C 
ATOM     13  C   UNL     1      -3.995  -1.259  24.582  0.00  0.00    +0.043 C 
ATOM     14  C   UNL     1      -4.342  -1.107  23.860  0.00  0.00    +0.011 C 
ATOM     15  C   UNL     1      -3.768  -0.908  24.213  0.00  0.00    +0.058 C 
ATOM     16  C   UNL     1      -3.533  -1.216  25.085  0.00  0.00    +0.099 C 
ATOM     17  C   UNL     1      -3.028  -0.368  24.139  0.00  0.00    +0.041 A 
ATOM     18  C   UNL     1      -2.667   0.156  23.615  0.00  0.00    +0.014 A 
ATOM     19  C   UNL     1      -1.959   0.525  23.822  0.00  0.00    +0.023 A 
ATOM     20  C   UNL     1      -1.611   0.368  24.554  0.00  0.00    +0.131 A 
ATOM     32  C   UNL     1      -1.972  -0.156  25.078  0.00  0.00    +0.276 A 
ATOM     33  O   UNL     1      -1.760  -0.520  26.026  0.00  0.00    -0.266 OA
ATOM     34  N   UNL     1      -2.680  -0.524  24.871  0.00  0.00    -0.298 N 
ATOM     35  C   UNL     1      -3.219  -0.698  24.514  0.00  0.00    +0.110 C 
ENDROOT
BRANCH   9   6
ATOM      3  C   UNL     1      -0.779   0.979  24.504  0.00  0.00    +0.139 A 
ATOM      4  C   UNL     1      -0.703   0.086  24.601  0.00  0.00    +0.037 A 
ATOM      5  C   UNL     1      -1.201  -0.541  25.088  0.00  0.00    +0.008 A 
ATOM      6  C   UNL     1      -1.852  -0.326  25.546  0.00  0.00    +0.054 A 
ATOM      7  C   UNL     1      -2.085   0.464  25.587  0.00  0.00    +0.008 A 
ATOM      8  C   UNL     1      -1.667   1.040  25.170  0.00  0.00    +0.037 A 
BRANCH   3   2
ATOM      1  C   UNL     1       0.504   0.763  23.327  0.00  0.00    +0.252 C 
ATOM      2  O   UNL     1      -0.101   0.761  24.026  0.00  0.00    -0.471 OA
ENDBRANCH   3   2
ENDBRANCH   9   6
BRANCH  20  21
ATOM     21  N   UNL     1      -0.770   0.720  24.958  0.00  0.00    -0.156 NA
ATOM     22  C   UNL     1      -0.617   1.600  25.224  0.00  0.00    +0.348 C 
ATOM     23  O   UNL     1      -1.369   2.231  25.084  0.00  0.00    -0.248 OA
ATOM     24  N   UNL     1      -0.035   2.151  25.576  0.00  0.00    -0.161 NA
BRANCH  24  25
ATOM     25  C   UNL     1      -0.534   2.824  25.543  0.00  0.00    +0.075 A 
ATOM     26  C   UNL     1      -0.324   3.353  24.947  0.00  0.00    +0.018 A 
ATOM     27  C   UNL     1      -0.758   4.046  24.837  0.00  0.00    +0.013 A 
ATOM     28  C   UNL     1      -1.403   4.209  25.324  0.00  0.00    +0.058 A 
ATOM     29 CL   UNL     1      -1.837   4.903  25.215  0.00  0.00    -0.082 Cl
ATOM     30  C   UNL     1      -1.614   3.681  25.921  0.00  0.00    +0.013 A 
ATOM     31  C   UNL     1      -1.180   2.988  26.031  0.00  0.00    +0.018 A 
ENDBRANCH  24  25
ENDBRANCH  20  21
TORSDOF 4
ENDMDL
