MODEL 1
REMARK VINA RESULT:     -11.4      0.000      0.000
REMARK  Name = 
REMARK  5 active torsions:
REMARK  status: ('A' for Active; 'I' for Inactive)
REMARK    1  A    between atoms: C_2  and  N_3
REMARK    2  A    between atoms: C_2  and  C_24
REMARK    3  A    between atoms: C_4  and  C_6
REMARK    4  A    between atoms: C_8  and  N_9
REMARK    5  A    between atoms: N_12  and  C_13
REMARK                            x       y       z     vdW  Elec       q    Type
REMARK                         _______ _______ _______ _____ _____    ______ ____
ROOT
ATOM      6  C   UNL     1      -4.513   1.248  24.876  0.00  0.00    +0.033 C 
ATOM      7  C   UNL     1      -4.044   1.805  25.267  0.00  0.00    -0.002 C 
ATOM      8  C   UNL     1      -4.374   2.519  25.515  0.00  0.00    +0.152 C 
ATOM     19  C   UNL     1      -5.171   2.677  25.375  0.00  0.00    +0.206 C 
ATOM     20  O   UNL     1      -5.501   3.391  25.624  0.00  0.00    -0.218 OA
ATOM     21  C   UNL     1      -5.640   2.120  24.985  0.00  0.00    +0.189 C 
ATOM     22  O   UNL     1      -6.437   2.278  24.845  0.00  0.00    -0.220 OA
ATOM     23  C   UNL     1      -5.310   1.406  24.736  0.00  0.00    +0.066 C 
ENDROOT
BRANCH   8   9
ATOM      9  N   UNL     1      -3.906   3.075  25.905  0.00  0.00    -0.182 NA
ATOM     10  C   UNL     1      -3.223   3.368  25.543  0.00  0.00    +0.340 C 
ATOM     11  O   UNL     1      -3.011   3.102  24.791  0.00  0.00    -0.249 OA
ATOM     12  N   UNL     1      -2.756   3.923  25.932  0.00  0.00    -0.189 NA
BRANCH  12  13
ATOM     13  C   UNL     1      -2.074   4.215  25.570  0.00  0.00    +0.097 C 
ATOM     14  C   UNL     1      -1.402   3.741  25.513  0.00  0.00    +0.022 C 
ATOM     15  C   UNL     1      -0.721   4.034  25.152  0.00  0.00    +0.002 C 
ATOM     16  C   UNL     1      -0.712   4.801  24.847  0.00  0.00    +0.000 C 
ATOM     17  C   UNL     1      -1.385   5.275  24.904  0.00  0.00    +0.002 C 
ATOM     18  C   UNL     1      -2.067   4.982  25.266  0.00  0.00    +0.022 C 
ENDBRANCH  12  13
ENDBRANCH   8   9
BRANCH   6   4
ATOM      3  N   UNL     1      -4.084  -0.084  25.164  0.00  0.00    -0.194 NA
ATOM      4  C   UNL     1      -4.183   0.534  24.628  0.00  0.00    +0.261 C 
ATOM      5  O   UNL     1      -3.953   0.438  23.841  0.00  0.00    -0.269 OA
BRANCH   3   2
ATOM      1  C   UNL     1      -3.891  -1.070  24.149  0.00  0.00    +0.033 C 
ATOM      2  C   UNL     1      -3.755  -0.798  24.915  0.00  0.00    +0.175 C 
BRANCH   2  24
ATOM     24  C   UNL     1      -3.289  -1.241  25.432  0.00  0.00    +0.281 C 
ATOM     25  N   UNL     1      -2.550  -1.516  25.190  0.00  0.00    -0.086 NA
ATOM     26  O   UNL     1      -3.563  -1.408  26.194  0.00  0.00    -0.270 OA
ENDBRANCH   2  24
ENDBRANCH   3   2
ENDBRANCH   6   4
TORSDOF 5
ENDMDL
MODEL 2
REMARK VINA RESULT:     -11.4      1.034      4.328
REMARK  Name = 
REMARK  5 active torsions:
REMARK  status: ('A' for Active; 'I' for Inactive)
REMARK    1  A    between atoms: C_2  and  N_3
REMARK    2  A    between atoms: C_2  and  C_24
REMARK    3  A    between atoms: C_4  and  C_6
REMARK    4  A    between atoms: C_8  and  N_9
REMARK    5  A    between atoms: N_12  and  C_13
REMARK                            x       y       z     vdW  Elec       q    Type
REMARK                         _______ _______ _______ _____ _____    ______ ____
ROOT
ATOM      6  C   UNL     1      -3.870   3.087  25.119  0.00  0.00    +0.033 C 
ATOM      7  C   UNL     1      -3.989   2.343  24.782  0.00  0.00    -0.002 C 
ATOM      8  C   UNL     1      -4.706   1.950  24.895  0.00  0.00    +0.152 C 
ATOM     19  C   UNL     1      -5.303   2.299  25.344  0.00  0.00    +0.206 C 
ATOM     20  O   UNL     1      -6.019   1.906  25.456  0.00  0.00    -0.218 OA
ATOM     21  C   UNL     1      -5.184   3.044  25.681  0.00  0.00    +0.189 C 
ATOM     22  O   UNL     1      -5.780   3.393  26.130  0.00  0.00    -0.220 OA
ATOM     23  C   UNL     1      -4.467   3.437  25.568  0.00  0.00    +0.066 C 
ENDROOT
BRANCH   8   9
ATOM      9  N   UNL     1      -4.826   1.206  24.558  0.00  0.00    -0.182 NA
ATOM     10  C   UNL     1      -4.327   0.578  24.755  0.00  0.00    +0.340 C 
ATOM     11  O   UNL     1      -3.709   0.695  25.289  0.00  0.00    -0.249 OA
ATOM     12  N   UNL     1      -4.446  -0.164  24.418  0.00  0.00    -0.189 NA
BRANCH  12  13
ATOM     13  C   UNL     1      -3.948  -0.792  24.615  0.00  0.00    +0.097 C 
ATOM     14  C   UNL     1      -3.963  -1.107  25.377  0.00  0.00    +0.022 C 
ATOM     15  C   UNL     1      -3.465  -1.735  25.573  0.00  0.00    +0.002 C 
ATOM     16  C   UNL     1      -2.951  -2.047  25.007  0.00  0.00    +0.000 C 
ATOM     17  C   UNL     1      -2.937  -1.731  24.245  0.00  0.00    +0.002 C 
ATOM     18  C   UNL     1      -3.435  -1.103  24.049  0.00  0.00    +0.022 C 
ENDBRANCH  12  13
ENDBRANCH   8   9
BRANCH   6   4
ATOM      3  N   UNL     1      -2.536   3.373  25.541  0.00  0.00    -0.194 NA
ATOM      4  C   UNL     1      -3.154   3.480  25.007  0.00  0.00    +0.261 C 
ATOM      5  O   UNL     1      -3.056   3.982  24.359  0.00  0.00    -0.269 OA
BRANCH   3   2
ATOM      1  C   UNL     1      -1.815   4.552  25.180  0.00  0.00    +0.033 C 
ATOM      2  C   UNL     1      -1.819   3.766  25.429  0.00  0.00    +0.175 C 
BRANCH   2  24
ATOM     24  C   UNL     1      -1.107   3.373  25.566  0.00  0.00    +0.281 C 
ATOM     25  N   UNL     1      -0.514   3.382  24.992  0.00  0.00    -0.086 NA
ATOM     26  O   UNL     1      -0.987   2.972  26.277  0.00  0.00    -0.270 OA
ENDBRANCH   2  24
ENDBRANCH   3   2
ENDBRANCH   6   4
TORSDOF 5
ENDMDL
MODEL 3
REMARK VINA RESULT:     -11.0      2.165      3.364
REMARK  Name = 
REMARK  5 active torsions:
REMARK  status: ('A' for Active; 'I' for Inactive)
REMARK    1  A    between atoms: C_2  and  N_3
REMARK    2  A    between atoms: C_2  and  C_24
REMARK    3  A    between atoms: C_4  and  C_6
REMARK    4  A    between atoms: C_8  and  N_9
REMARK    5  A    between atoms: N_12  and  C_13
REMARK                            x       y       z     vdW  Elec       q    Type
REMARK                         _______ _______ _______ _____ _____    ______ ____
ROOT
ATOM      6  C   UNL     1      -1.441  -0.242  24.896  0.00  0.00    +0.033 C 
ATOM      7  C   UNL     1      -1.272   0.466  25.286  0.00  0.00    -0.002 C 
ATOM      8  C   UNL     1      -0.605   0.904  25.076  0.00  0.00    +0.152 C 
ATOM     19  C   UNL     1      -0.106   0.635  24.476  0.00  0.00    +0.206 C 
ATOM     20  O   UNL     1       0.561   1.073  24.267  0.00  0.00    -0.218 OA
ATOM     21  C   UNL     1      -0.275  -0.073  24.085  0.00  0.00    +0.189 C 
ATOM     22  O   UNL     1       0.223  -0.342  23.486  0.00  0.00    -0.220 OA
ATOM     23  C   UNL     1      -0.942  -0.510  24.296  0.00  0.00    +0.066 C 
ENDROOT
BRANCH   8   9
ATOM      9  N   UNL     1      -0.436   1.611  25.466  0.00  0.00    -0.182 NA
ATOM     10  C   UNL     1      -0.897   2.281  25.324  0.00  0.00    +0.340 C 
ATOM     11  O   UNL     1      -1.525   2.243  24.791  0.00  0.00    -0.249 OA
ATOM     12  N   UNL     1      -0.728   2.987  25.713  0.00  0.00    -0.189 NA
BRANCH  12  13
ATOM     13  C   UNL     1      -1.188   3.657  25.571  0.00  0.00    +0.097 C 
ATOM     14  C   UNL     1      -1.941   3.720  25.904  0.00  0.00    +0.022 C 
ATOM     15  C   UNL     1      -2.399   4.390  25.761  0.00  0.00    +0.002 C 
ATOM     16  C   UNL     1      -2.107   4.998  25.286  0.00  0.00    +0.000 C 
ATOM     17  C   UNL     1      -1.354   4.935  24.954  0.00  0.00    +0.002 C 
ATOM     18  C   UNL     1      -0.895   4.264  25.096  0.00  0.00    +0.022 C 
ENDBRANCH  12  13
ENDBRANCH   8   9
BRANCH   6   4
ATOM      3  N   UNL     1      -2.750  -0.724  24.591  0.00  0.00    -0.194 NA
ATOM      4  C   UNL     1      -2.107  -0.679  25.105  0.00  0.00    +0.261 C 
ATOM      5  O   UNL     1      -2.132  -1.072  25.830  0.00  0.00    -0.269 OA
BRANCH   3   2
ATOM      1  C   UNL     1      -3.424  -1.592  25.504  0.00  0.00    +0.033 C 
ATOM      2  C   UNL     1      -3.417  -1.162  24.800  0.00  0.00    +0.175 C 
BRANCH   2  24
ATOM     24  C   UNL     1      -4.078  -1.170  24.306  0.00  0.00    +0.281 C 
ATOM     25  N   UNL     1      -4.265  -1.849  23.877  0.00  0.00    -0.086 NA
ATOM     26  O   UNL     1      -4.552  -0.497  24.241  0.00  0.00    -0.270 OA
ENDBRANCH   2  24
ENDBRANCH   3   2
ENDBRANCH   6   4
TORSDOF 5
ENDMDL
MODEL 4
REMARK VINA RESULT:     -10.8      1.884      5.281
REMARK  Name = 
REMARK  5 active torsions:
REMARK  status: ('A' for Active; 'I' for Inactive)
REMARK    1  A    between atoms: C_2  and  N_3
REMARK    2  A    between atoms: C_2  and  C_24
REMARK    3  A    between atoms: C_4  and  C_6
REMARK    4  A    between atoms: C_8  and  N_9
REMARK    5  A    between atoms: N_12  and  C_13
REMARK                            x       y       z     vdW  Elec       q    Type
REMARK                         _______ _______ _______ _____ _____    ______ ____
ROOT
ATOM      6  C   UNL     1      -1.316   2.442  25.226  0.00  0.00    +0.033 C 
ATOM      7  C   UNL     1      -1.384   1.660  25.481  0.00  0.00    -0.002 C 
ATOM      8  C   UNL     1      -0.850   1.091  25.213  0.00  0.00    +0.152 C 
ATOM     19  C   UNL     1      -0.247   1.303  24.690  0.00  0.00    +0.206 C 
ATOM     20  O   UNL     1       0.287   0.735  24.422  0.00  0.00    -0.218 OA
ATOM     21  C   UNL     1      -0.179   2.086  24.435  0.00  0.00    +0.189 C 
ATOM     22  O   UNL     1       0.423   2.299  23.913  0.00  0.00    -0.220 OA
ATOM     23  C   UNL     1      -0.714   2.655  24.704  0.00  0.00    +0.066 C 
ENDROOT
BRANCH   8   9
ATOM      9  N   UNL     1      -0.918   0.309  25.467  0.00  0.00    -0.182 NA
ATOM     10  C   UNL     1      -1.561  -0.149  25.226  0.00  0.00    +0.340 C 
ATOM     11  O   UNL     1      -2.135   0.175  24.731  0.00  0.00    -0.249 OA
ATOM     12  N   UNL     1      -1.629  -0.930  25.480  0.00  0.00    -0.189 NA
BRANCH  12  13
ATOM     13  C   UNL     1      -2.271  -1.388  25.240  0.00  0.00    +0.097 C 
ATOM     14  C   UNL     1      -2.998  -1.312  25.621  0.00  0.00    +0.022 C 
ATOM     15  C   UNL     1      -3.640  -1.770  25.380  0.00  0.00    +0.002 C 
ATOM     16  C   UNL     1      -3.555  -2.305  24.758  0.00  0.00    +0.000 C 
ATOM     17  C   UNL     1      -2.827  -2.382  24.376  0.00  0.00    +0.002 C 
ATOM     18  C   UNL     1      -2.185  -1.923  24.617  0.00  0.00    +0.022 C 
ENDBRANCH  12  13
ENDBRANCH   8   9
BRANCH   6   4
ATOM      3  N   UNL     1      -2.556   3.137  25.088  0.00  0.00    -0.194 NA
ATOM      4  C   UNL     1      -1.850   3.011  25.494  0.00  0.00    +0.261 C 
ATOM      5  O   UNL     1      -1.677   3.453  26.169  0.00  0.00    -0.269 OA
BRANCH   3   2
ATOM      1  C   UNL     1      -2.873   4.224  25.960  0.00  0.00    +0.033 C 
ATOM      2  C   UNL     1      -3.090   3.706  25.355  0.00  0.00    +0.175 C 
BRANCH   2  24
ATOM     24  C   UNL     1      -3.841   3.758  25.019  0.00  0.00    +0.281 C 
ATOM     25  N   UNL     1      -4.512   3.639  25.486  0.00  0.00    -0.086 NA
ATOM     26  O   UNL     1      -3.923   3.927  24.215  0.00  0.00    -0.270 OA
ENDBRANCH   2  24
ENDBRANCH   3   2
ENDBRANCH   6   4
TORSDOF 5
ENDMDL
MODEL 5
REMARK VINA RESULT:     -10.8      2.133      3.835
REMARK  Name = 
REMARK  5 active torsions:
REMARK  status: ('A' for Active; 'I' for Inactive)
REMARK    1  A    between atoms: C_2  and  N_3
REMARK    2  A    between atoms: C_2  and  C_24
REMARK    3  A    between atoms: C_4  and  C_6
REMARK    4  A    between atoms: C_8  and  N_9
REMARK    5  A    between atoms: N_12  and  C_13
REMARK                            x       y       z     vdW  Elec       q    Type
REMARK                         _______ _______ _______ _____ _____    ______ ____
ROOT
ATOM      6  C   UNL     1      -0.696   1.483  24.797  0.00  0.00    +0.033 C 
ATOM      7  C   UNL     1      -1.386   1.884  24.583  0.00  0.00    -0.002 C 
ATOM      8  C   UNL     1      -1.560   2.616  24.922  0.00  0.00    +0.152 C 
ATOM     19  C   UNL     1      -1.045   2.948  25.475  0.00  0.00    +0.206 C 
ATOM     20  O   UNL     1      -1.219   3.679  25.814  0.00  0.00    -0.218 OA
ATOM     21  C   UNL     1      -0.355   2.547  25.689  0.00  0.00    +0.189 C 
ATOM     22  O   UNL     1       0.159   2.878  26.242  0.00  0.00    -0.220 OA
ATOM     23  C   UNL     1      -0.182   1.815  25.350  0.00  0.00    +0.066 C 
ENDROOT
BRANCH   8   9
ATOM      9  N   UNL     1      -2.249   3.016  24.709  0.00  0.00    -0.182 NA
ATOM     10  C   UNL     1      -2.986   2.719  24.933  0.00  0.00    +0.340 C 
ATOM     11  O   UNL     1      -3.032   2.021  25.370  0.00  0.00    -0.249 OA
ATOM     12  N   UNL     1      -3.674   3.119  24.720  0.00  0.00    -0.189 NA
BRANCH  12  13
ATOM     13  C   UNL     1      -4.410   2.822  24.943  0.00  0.00    +0.097 C 
ATOM     14  C   UNL     1      -4.785   3.113  25.618  0.00  0.00    +0.022 C 
ATOM     15  C   UNL     1      -5.521   2.815  25.841  0.00  0.00    +0.002 C 
ATOM     16  C   UNL     1      -5.883   2.227  25.390  0.00  0.00    +0.000 C 
ATOM     17  C   UNL     1      -5.508   1.936  24.715  0.00  0.00    +0.002 C 
ATOM     18  C   UNL     1      -4.771   2.234  24.491  0.00  0.00    +0.022 C 
ENDBRANCH  12  13
ENDBRANCH   8   9
BRANCH   6   4
ATOM      3  N   UNL     1      -0.690   0.057  24.867  0.00  0.00    -0.194 NA
ATOM      4  C   UNL     1      -0.523   0.752  24.457  0.00  0.00    +0.261 C 
ATOM      5  O   UNL     1      -0.181   0.717  23.708  0.00  0.00    -0.269 OA
BRANCH   3   2
ATOM      1  C   UNL     1      -0.067  -0.713  23.838  0.00  0.00    +0.033 C 
ATOM      2  C   UNL     1      -0.517  -0.675  24.528  0.00  0.00    +0.175 C 
BRANCH   2  24
ATOM     24  C   UNL     1      -0.792  -1.368  24.879  0.00  0.00    +0.281 C 
ATOM     25  N   UNL     1      -1.470  -1.737  24.589  0.00  0.00    -0.086 NA
ATOM     26  O   UNL     1      -0.388  -1.694  25.522  0.00  0.00    -0.270 OA
ENDBRANCH   2  24
ENDBRANCH   3   2
ENDBRANCH   6   4
TORSDOF 5
ENDMDL
