MODEL 1
REMARK VINA RESULT:     -10.2      0.000      0.000
REMARK  Name = 
REMARK  7 active torsions:
REMARK  status: ('A' for Active; 'I' for Inactive)
REMARK    1  A    between atoms: C_2  and  C_3
REMARK    2  A    between atoms: C_3  and  S_4
REMARK    3  A    between atoms: S_4  and  N_7
REMARK    4  A    between atoms: N_7  and  C_8
REMARK    5  A    between atoms: C_10  and  C_14
REMARK    6  A    between atoms: C_16  and  C_19
REMARK    7  A    between atoms: C_22  and  O_23
REMARK                            x       y       z     vdW  Elec       q    Type
REMARK                         _______ _______ _______ _____ _____    ______ ____
ROOT
ATOM      8  C   UNL     1      -3.983   3.455  25.001  0.00  0.00    +0.115 C 
ATOM      9  C   UNL     1      -3.878   2.683  24.730  0.00  0.00    +0.046 C 
ATOM     10  C   UNL     1      -4.484   2.219  25.045  0.00  0.00    +0.139 C 
ATOM     11  N   UNL     1      -4.962   2.705  25.510  0.00  0.00    -0.264 NA
ATOM     12  C   UNL     1      -5.632   2.468  25.928  0.00  0.00    +0.090 C 
ATOM     13  C   UNL     1      -4.652   3.469  25.482  0.00  0.00    +0.092 C 
ENDROOT
BRANCH  10  14
ATOM     14  C   UNL     1      -4.591   1.411  24.918  0.00  0.00    +0.251 A 
ATOM     15  N   UNL     1      -4.016   0.826  25.001  0.00  0.00    -0.190 NA
ATOM     16  C   UNL     1      -4.363   0.099  24.820  0.00  0.00    +0.203 A 
ATOM     17  N   UNL     1      -5.152   0.235  24.625  0.00  0.00    -0.056 NA
ATOM     18  O   UNL     1      -5.294   1.046  24.686  0.00  0.00    -0.336 OA
BRANCH  16  19
ATOM     19  C   UNL     1      -3.985  -0.635  24.832  0.00  0.00    +0.039 A 
ATOM     20  C   UNL     1      -3.593  -0.886  25.512  0.00  0.00    +0.006 A 
ATOM     21  C   UNL     1      -3.217  -1.620  25.524  0.00  0.00    +0.037 A 
ATOM     22  C   UNL     1      -3.232  -2.102  24.855  0.00  0.00    +0.139 A 
ATOM     25  C   UNL     1      -3.624  -1.851  24.174  0.00  0.00    +0.037 A 
ATOM     26  C   UNL     1      -4.001  -1.117  24.162  0.00  0.00    +0.006 A 
BRANCH  22  23
ATOM     23  O   UNL     1      -2.855  -2.835  24.866  0.00  0.00    -0.471 OA
ATOM     24  C   UNL     1      -2.069  -2.899  24.623  0.00  0.00    +0.252 C 
ENDBRANCH  22  23
ENDBRANCH  16  19
ENDBRANCH  10  14
BRANCH   8   7
ATOM      7  N   UNL     1      -3.503   4.101  24.820  0.00  0.00    -0.082 NA
BRANCH   7   4
ATOM      4  S   UNL     1      -2.701   4.084  25.012  0.00  0.00    +0.057 S 
ATOM      5  O   UNL     1      -2.526   3.809  24.255  0.00  0.00    -0.156 OA
ATOM      6  O   UNL     1      -2.876   4.360  25.770  0.00  0.00    -0.156 OA
BRANCH   4   3
ATOM      3  C   UNL     1      -1.899   4.068  25.203  0.00  0.00    +0.171 C 
BRANCH   3   2
ATOM      1  C   UNL     1      -0.595   4.617  24.998  0.00  0.00    +0.002 C 
ATOM      2  C   UNL     1      -1.416   4.708  25.010  0.00  0.00    +0.027 C 
ENDBRANCH   3   2
ENDBRANCH   4   3
ENDBRANCH   7   4
ENDBRANCH   8   7
TORSDOF 7
ENDMDL
MODEL 2
REMARK VINA RESULT:      -9.5      2.473      3.151
REMARK  Name = 
REMARK  7 active torsions:
REMARK  status: ('A' for Active; 'I' for Inactive)
REMARK    1  A    between atoms: C_2  and  C_3
REMARK    2  A    between atoms: C_3  and  S_4
REMARK    3  A    between atoms: S_4  and  N_7
REMARK    4  A    between atoms: N_7  and  C_8
REMARK    5  A    between atoms: C_10  and  C_14
REMARK    6  A    between atoms: C_16  and  C_19
REMARK    7  A    between atoms: C_22  and  O_23
REMARK                            x       y       z     vdW  Elec       q    Type
REMARK                         _______ _______ _______ _____ _____    ______ ____
ROOT
ATOM      8  C   UNL     1      -0.259   2.282  25.169  0.00  0.00    +0.115 C 
ATOM      9  C   UNL     1      -0.704   1.684  25.523  0.00  0.00    +0.046 C 
ATOM     10  C   UNL     1      -0.601   0.995  25.081  0.00  0.00    +0.139 C 
ATOM     11  N   UNL     1      -0.093   1.167  24.455  0.00  0.00    -0.264 NA
ATOM     12  C   UNL     1       0.160   0.637  23.876  0.00  0.00    +0.090 C 
ATOM     13  C   UNL     1       0.118   1.963  24.509  0.00  0.00    +0.092 C 
ENDROOT
BRANCH  10  14
ATOM     14  C   UNL     1      -0.946   0.263  25.239  0.00  0.00    +0.251 A 
ATOM     15  N   UNL     1      -1.572  -0.079  24.823  0.00  0.00    -0.190 NA
ATOM     16  C   UNL     1      -1.738  -0.810  25.168  0.00  0.00    +0.203 A 
ATOM     17  N   UNL     1      -1.215  -0.921  25.796  0.00  0.00    -0.056 NA
ATOM     18  O   UNL     1      -0.726  -0.258  25.840  0.00  0.00    -0.336 OA
BRANCH  16  19
ATOM     19  C   UNL     1      -2.324  -1.338  24.926  0.00  0.00    +0.039 A 
ATOM     20  C   UNL     1      -2.120  -2.100  24.685  0.00  0.00    +0.006 A 
ATOM     21  C   UNL     1      -2.706  -2.627  24.443  0.00  0.00    +0.037 A 
ATOM     22  C   UNL     1      -3.497  -2.393  24.442  0.00  0.00    +0.139 A 
ATOM     25  C   UNL     1      -3.702  -1.631  24.683  0.00  0.00    +0.037 A 
ATOM     26  C   UNL     1      -3.115  -1.103  24.925  0.00  0.00    +0.006 A 
BRANCH  22  23
ATOM     23  O   UNL     1      -4.083  -2.920  24.200  0.00  0.00    -0.471 OA
ATOM     24  C   UNL     1      -4.636  -2.690  23.634  0.00  0.00    +0.252 C 
ENDBRANCH  22  23
ENDBRANCH  16  19
ENDBRANCH  10  14
BRANCH   8   7
ATOM      7  N   UNL     1      -0.202   3.062  25.430  0.00  0.00    -0.082 NA
BRANCH   7   4
ATOM      4  S   UNL     1      -0.814   3.594  25.278  0.00  0.00    +0.057 S 
ATOM      5  O   UNL     1      -0.471   3.781  24.552  0.00  0.00    -0.156 OA
ATOM      6  O   UNL     1      -1.157   3.407  26.005  0.00  0.00    -0.156 OA
BRANCH   4   3
ATOM      3  C   UNL     1      -1.426   4.126  25.126  0.00  0.00    +0.171 C 
BRANCH   3   2
ATOM      1  C   UNL     1      -1.904   5.473  25.154  0.00  0.00    +0.002 C 
ATOM      2  C   UNL     1      -1.276   4.937  25.128  0.00  0.00    +0.027 C 
ENDBRANCH   3   2
ENDBRANCH   4   3
ENDBRANCH   7   4
ENDBRANCH   8   7
TORSDOF 7
ENDMDL
MODEL 3
REMARK VINA RESULT:      -9.4      2.603      5.984
REMARK  Name = 
REMARK  7 active torsions:
REMARK  status: ('A' for Active; 'I' for Inactive)
REMARK    1  A    between atoms: C_2  and  C_3
REMARK    2  A    between atoms: C_3  and  S_4
REMARK    3  A    between atoms: S_4  and  N_7
REMARK    4  A    between atoms: N_7  and  C_8
REMARK    5  A    between atoms: C_10  and  C_14
REMARK    6  A    between atoms: C_16  and  C_19
REMARK    7  A    between atoms: C_22  and  O_23
REMARK                            x       y       z     vdW  Elec       q    Type
REMARK                         _______ _______ _______ _____ _____    ______ ____
ROOT
ATOM      8  C   UNL     1      -1.358  -0.987  25.054  0.00  0.00    +0.115 C 
ATOM      9  C   UNL     1      -1.429  -0.292  25.493  0.00  0.00    +0.046 C 
ATOM     10  C   UNL     1      -0.906   0.263  25.177  0.00  0.00    +0.139 C 
ATOM     11  N   UNL     1      -0.513  -0.090  24.543  0.00  0.00    -0.264 NA
ATOM     12  C   UNL     1       0.059   0.267  24.068  0.00  0.00    +0.090 C 
ATOM     13  C   UNL     1      -0.792  -0.863  24.468  0.00  0.00    +0.092 C 
ENDROOT
BRANCH  10  14
ATOM     14  C   UNL     1      -0.796   1.035  25.447  0.00  0.00    +0.251 A 
ATOM     15  N   UNL     1      -1.202   1.703  25.184  0.00  0.00    -0.190 NA
ATOM     16  C   UNL     1      -0.917   2.355  25.603  0.00  0.00    +0.203 A 
ATOM     17  N   UNL     1      -0.336   2.090  26.124  0.00  0.00    -0.056 NA
ATOM     18  O   UNL     1      -0.260   1.273  26.028  0.00  0.00    -0.336 OA
BRANCH  16  19
ATOM     19  C   UNL     1      -1.171   3.136  25.515  0.00  0.00    +0.039 A 
ATOM     20  C   UNL     1      -1.920   3.359  25.779  0.00  0.00    +0.006 A 
ATOM     21  C   UNL     1      -2.172   4.138  25.692  0.00  0.00    +0.037 A 
ATOM     22  C   UNL     1      -1.676   4.696  25.340  0.00  0.00    +0.139 A 
ATOM     25  C   UNL     1      -0.927   4.473  25.075  0.00  0.00    +0.037 A 
ATOM     26  C   UNL     1      -0.674   3.693  25.163  0.00  0.00    +0.006 A 
BRANCH  22  23
ATOM     23  O   UNL     1      -1.929   5.476  25.252  0.00  0.00    -0.471 OA
ATOM     24  C   UNL     1      -1.475   6.010  24.817  0.00  0.00    +0.252 C 
ENDBRANCH  22  23
ENDBRANCH  16  19
ENDBRANCH  10  14
BRANCH   8   7
ATOM      7  N   UNL     1      -1.779  -1.684  25.181  0.00  0.00    -0.082 NA
BRANCH   7   4
ATOM      4  S   UNL     1      -2.446  -1.853  24.725  0.00  0.00    +0.057 S 
ATOM      5  O   UNL     1      -1.975  -2.271  24.193  0.00  0.00    -0.156 OA
ATOM      6  O   UNL     1      -2.916  -1.435  25.258  0.00  0.00    -0.156 OA
BRANCH   4   3
ATOM      3  C   UNL     1      -3.111  -2.022  24.269  0.00  0.00    +0.171 C 
BRANCH   3   2
ATOM      1  C   UNL     1      -4.243  -2.851  23.997  0.00  0.00    +0.002 C 
ATOM      2  C   UNL     1      -3.623  -2.628  24.495  0.00  0.00    +0.027 C 
ENDBRANCH   3   2
ENDBRANCH   4   3
ENDBRANCH   7   4
ENDBRANCH   8   7
TORSDOF 7
ENDMDL
MODEL 4
REMARK VINA RESULT:      -8.8      1.624      5.082
REMARK  Name = 
REMARK  7 active torsions:
REMARK  status: ('A' for Active; 'I' for Inactive)
REMARK    1  A    between atoms: C_2  and  C_3
REMARK    2  A    between atoms: C_3  and  S_4
REMARK    3  A    between atoms: S_4  and  N_7
REMARK    4  A    between atoms: N_7  and  C_8
REMARK    5  A    between atoms: C_10  and  C_14
REMARK    6  A    between atoms: C_16  and  C_19
REMARK    7  A    between atoms: C_22  and  O_23
REMARK                            x       y       z     vdW  Elec       q    Type
REMARK                         _______ _______ _______ _____ _____    ______ ____
ROOT
ATOM      8  C   UNL     1      -4.436  -0.169  24.635  0.00  0.00    +0.115 C 
ATOM      9  C   UNL     1      -3.951   0.430  24.342  0.00  0.00    +0.046 C 
ATOM     10  C   UNL     1      -4.239   1.151  24.623  0.00  0.00    +0.139 C 
ATOM     11  N   UNL     1      -4.902   0.996  25.090  0.00  0.00    -0.264 NA
ATOM     12  C   UNL     1      -5.362   1.557  25.481  0.00  0.00    +0.090 C 
ATOM     13  C   UNL     1      -5.023   0.179  25.096  0.00  0.00    +0.092 C 
ENDROOT
BRANCH  10  14
ATOM     14  C   UNL     1      -3.921   1.895  24.466  0.00  0.00    +0.251 A 
ATOM     15  N   UNL     1      -3.241   2.214  24.808  0.00  0.00    -0.190 NA
ATOM     16  C   UNL     1      -3.126   2.968  24.491  0.00  0.00    +0.203 A 
ATOM     17  N   UNL     1      -3.735   3.115  23.955  0.00  0.00    -0.056 NA
ATOM     18  O   UNL     1      -4.226   2.452  23.939  0.00  0.00    -0.336 OA
BRANCH  16  19
ATOM     19  C   UNL     1      -2.510   3.484  24.680  0.00  0.00    +0.039 A 
ATOM     20  C   UNL     1      -1.735   3.296  24.468  0.00  0.00    +0.006 A 
ATOM     21  C   UNL     1      -1.120   3.812  24.656  0.00  0.00    +0.037 A 
ATOM     22  C   UNL     1      -1.279   4.516  25.056  0.00  0.00    +0.139 A 
ATOM     25  C   UNL     1      -2.054   4.704  25.268  0.00  0.00    +0.037 A 
ATOM     26  C   UNL     1      -2.670   4.187  25.080  0.00  0.00    +0.006 A 
BRANCH  22  23
ATOM     23  O   UNL     1      -0.664   5.032  25.244  0.00  0.00    -0.471 OA
ATOM     24  C   UNL     1      -0.535   5.705  24.784  0.00  0.00    +0.252 C 
ENDBRANCH  22  23
ENDBRANCH  16  19
ENDBRANCH  10  14
BRANCH   8   7
ATOM      7  N   UNL     1      -4.348  -0.977  24.490  0.00  0.00    -0.082 NA
BRANCH   7   4
ATOM      4  S   UNL     1      -3.612  -1.335  24.585  0.00  0.00    +0.057 S 
ATOM      5  O   UNL     1      -3.468  -1.250  23.777  0.00  0.00    -0.156 OA
ATOM      6  O   UNL     1      -3.756  -1.420  25.392  0.00  0.00    -0.156 OA
BRANCH   4   3
ATOM      3  C   UNL     1      -2.875  -1.694  24.678  0.00  0.00    +0.171 C 
BRANCH   3   2
ATOM      1  C   UNL     1      -2.028  -2.832  24.506  0.00  0.00    +0.002 C 
ATOM      2  C   UNL     1      -2.781  -2.494  24.501  0.00  0.00    +0.027 C 
ENDBRANCH   3   2
ENDBRANCH   4   3
ENDBRANCH   7   4
ENDBRANCH   8   7
TORSDOF 7
ENDMDL
MODEL 5
REMARK VINA RESULT:      -8.6      2.438      5.553
REMARK  Name = 
REMARK  7 active torsions:
REMARK  status: ('A' for Active; 'I' for Inactive)
REMARK    1  A    between atoms: C_2  and  C_3
REMARK    2  A    between atoms: C_3  and  S_4
REMARK    3  A    between atoms: S_4  and  N_7
REMARK    4  A    between atoms: N_7  and  C_8
REMARK    5  A    between atoms: C_10  and  C_14
REMARK    6  A    between atoms: C_16  and  C_19
REMARK    7  A    between atoms: C_22  and  O_23
REMARK                            x       y       z     vdW  Elec       q    Type
REMARK                         _______ _______ _______ _____ _____    ______ ____
ROOT
ATOM      8  C   UNL     1      -0.987  -0.763  24.869  0.00  0.00    +0.115 C 
ATOM      9  C   UNL     1      -1.429  -0.120  25.137  0.00  0.00    +0.046 C 
ATOM     10  C   UNL     1      -1.102   0.566  24.814  0.00  0.00    +0.139 C 
ATOM     11  N   UNL     1      -0.459   0.346  24.347  0.00  0.00    -0.264 NA
ATOM     12  C   UNL     1       0.028   0.857  23.920  0.00  0.00    +0.090 C 
ATOM     13  C   UNL     1      -0.388  -0.476  24.381  0.00  0.00    +0.092 C 
ENDROOT
BRANCH  10  14
ATOM     14  C   UNL     1      -1.372   1.335  24.937  0.00  0.00    +0.251 A 
ATOM     15  N   UNL     1      -2.161   1.577  24.947  0.00  0.00    -0.190 NA
ATOM     16  C   UNL     1      -2.176   2.391  25.087  0.00  0.00    +0.203 A 
ATOM     17  N   UNL     1      -1.397   2.651  25.164  0.00  0.00    -0.056 NA
ATOM     18  O   UNL     1      -0.900   1.999  25.070  0.00  0.00    -0.336 OA
BRANCH  16  19
ATOM     19  C   UNL     1      -2.852   2.861  25.142  0.00  0.00    +0.039 A 
ATOM     20  C   UNL     1      -3.458   2.777  24.588  0.00  0.00    +0.006 A 
ATOM     21  C   UNL     1      -4.133   3.247  24.643  0.00  0.00    +0.037 A 
ATOM     22  C   UNL     1      -4.204   3.801  25.251  0.00  0.00    +0.139 A 
ATOM     25  C   UNL     1      -3.598   3.884  25.804  0.00  0.00    +0.037 A 
ATOM     26  C   UNL     1      -2.922   3.414  25.750  0.00  0.00    +0.006 A 
BRANCH  22  23
ATOM     23  O   UNL     1      -4.879   4.270  25.305  0.00  0.00    -0.471 OA
ATOM     24  C   UNL     1      -5.598   3.934  25.531  0.00  0.00    +0.252 C 
ENDBRANCH  22  23
ENDBRANCH  16  19
ENDBRANCH  10  14
BRANCH   8   7
ATOM      7  N   UNL     1      -1.121  -1.555  25.057  0.00  0.00    -0.082 NA
BRANCH   7   4
ATOM      4  S   UNL     1      -1.750  -1.960  24.711  0.00  0.00    +0.057 S 
ATOM      5  O   UNL     1      -1.268  -2.163  24.074  0.00  0.00    -0.156 OA
ATOM      6  O   UNL     1      -2.232  -1.758  25.349  0.00  0.00    -0.156 OA
BRANCH   4   3
ATOM      3  C   UNL     1      -2.378  -2.366  24.364  0.00  0.00    +0.171 C 
BRANCH   3   2
ATOM      1  C   UNL     1      -3.656  -2.996  24.480  0.00  0.00    +0.002 C 
ATOM      2  C   UNL     1      -2.995  -2.650  24.833  0.00  0.00    +0.027 C 
ENDBRANCH   3   2
ENDBRANCH   4   3
ENDBRANCH   7   4
ENDBRANCH   8   7
TORSDOF 7
ENDMDL
MODEL 6
REMARK VINA RESULT:      -8.6      1.831      2.897
REMARK  Name = 
REMARK  7 active torsions:
REMARK  status: ('A' for Active; 'I' for Inactive)
REMARK    1  A    between atoms: C_2  and  C_3
REMARK    2  A    between atoms: C_3  and  S_4
REMARK    3  A    between atoms: S_4  and  N_7
REMARK    4  A    between atoms: N_7  and  C_8
REMARK    5  A    between atoms: C_10  and  C_14
REMARK    6  A    between atoms: C_16  and  C_19
REMARK    7  A    between atoms: C_22  and  O_23
REMARK                            x       y       z     vdW  Elec       q    Type
REMARK                         _______ _______ _______ _____ _____    ______ ____
ROOT
ATOM      8  C   UNL     1      -1.882   3.250  25.396  0.00  0.00    +0.115 C 
ATOM      9  C   UNL     1      -1.971   2.496  25.073  0.00  0.00    +0.046 C 
ATOM     10  C   UNL     1      -1.323   2.042  25.305  0.00  0.00    +0.139 C 
ATOM     11  N   UNL     1      -0.834   2.515  25.772  0.00  0.00    -0.264 NA
ATOM     12  C   UNL     1      -0.124   2.282  26.122  0.00  0.00    +0.090 C 
ATOM     13  C   UNL     1      -1.180   3.262  25.828  0.00  0.00    +0.092 C 
ENDROOT
BRANCH  10  14
ATOM     14  C   UNL     1      -1.188   1.253  25.106  0.00  0.00    +0.251 A 
ATOM     15  N   UNL     1      -1.746   0.646  25.121  0.00  0.00    -0.190 NA
ATOM     16  C   UNL     1      -1.373  -0.050  24.881  0.00  0.00    +0.203 A 
ATOM     17  N   UNL     1      -0.584   0.126  24.718  0.00  0.00    -0.056 NA
ATOM     18  O   UNL     1      -0.469   0.932  24.857  0.00  0.00    -0.336 OA
BRANCH  16  19
ATOM     19  C   UNL     1      -1.728  -0.793  24.815  0.00  0.00    +0.039 A 
ATOM     20  C   UNL     1      -1.265  -1.459  24.669  0.00  0.00    +0.006 A 
ATOM     21  C   UNL     1      -1.619  -2.201  24.604  0.00  0.00    +0.037 A 
ATOM     22  C   UNL     1      -2.436  -2.277  24.684  0.00  0.00    +0.139 A 
ATOM     25  C   UNL     1      -2.900  -1.610  24.831  0.00  0.00    +0.037 A 
ATOM     26  C   UNL     1      -2.545  -0.867  24.896  0.00  0.00    +0.006 A 
BRANCH  22  23
ATOM     23  O   UNL     1      -2.791  -3.018  24.619  0.00  0.00    -0.471 OA
ATOM     24  C   UNL     1      -3.589  -3.077  24.419  0.00  0.00    +0.252 C 
ENDBRANCH  22  23
ENDBRANCH  16  19
ENDBRANCH  10  14
BRANCH   8   7
ATOM      7  N   UNL     1      -2.404   3.881  25.303  0.00  0.00    -0.082 NA
BRANCH   7   4
ATOM      4  S   UNL     1      -3.188   3.809  25.549  0.00  0.00    +0.057 S 
ATOM      5  O   UNL     1      -2.965   4.012  26.316  0.00  0.00    -0.156 OA
ATOM      6  O   UNL     1      -3.411   3.605  24.781  0.00  0.00    -0.156 OA
BRANCH   4   3
ATOM      3  C   UNL     1      -3.971   3.736  25.796  0.00  0.00    +0.171 C 
BRANCH   3   2
ATOM      1  C   UNL     1      -5.370   3.801  25.507  0.00  0.00    +0.002 C 
ATOM      2  C   UNL     1      -4.586   3.924  25.278  0.00  0.00    +0.027 C 
ENDBRANCH   3   2
ENDBRANCH   4   3
ENDBRANCH   7   4
ENDBRANCH   8   7
TORSDOF 7
ENDMDL
MODEL 7
REMARK VINA RESULT:      -8.5      2.483      4.672
REMARK  Name = 
REMARK  7 active torsions:
REMARK  status: ('A' for Active; 'I' for Inactive)
REMARK    1  A    between atoms: C_2  and  C_3
REMARK    2  A    between atoms: C_3  and  S_4
REMARK    3  A    between atoms: S_4  and  N_7
REMARK    4  A    between atoms: N_7  and  C_8
REMARK    5  A    between atoms: C_10  and  C_14
REMARK    6  A    between atoms: C_16  and  C_19
REMARK    7  A    between atoms: C_22  and  O_23
REMARK                            x       y       z     vdW  Elec       q    Type
REMARK                         _______ _______ _______ _____ _____    ______ ____
ROOT
ATOM      8  C   UNL     1      -1.370  -1.078  24.810  0.00  0.00    +0.115 C 
ATOM      9  C   UNL     1      -1.920  -0.475  24.689  0.00  0.00    +0.046 C 
ATOM     10  C   UNL     1      -2.674  -0.802  24.755  0.00  0.00    +0.139 C 
ATOM     11  N   UNL     1      -2.590  -1.607  24.916  0.00  0.00    -0.264 NA
ATOM     12  C   UNL     1      -3.203  -2.147  25.024  0.00  0.00    +0.090 C 
ATOM     13  C   UNL     1      -1.783  -1.777  24.950  0.00  0.00    +0.092 C 
ENDROOT
BRANCH  10  14
ATOM     14  C   UNL     1      -3.388  -0.396  24.673  0.00  0.00    +0.251 A 
ATOM     15  N   UNL     1      -3.554   0.356  24.968  0.00  0.00    -0.190 NA
ATOM     16  C   UNL     1      -4.329   0.546  24.760  0.00  0.00    +0.203 A 
ATOM     17  N   UNL     1      -4.643  -0.089  24.337  0.00  0.00    -0.056 NA
ATOM     18  O   UNL     1      -4.061  -0.672  24.283  0.00  0.00    -0.336 OA
BRANCH  16  19
ATOM     19  C   UNL     1      -4.723   1.248  24.942  0.00  0.00    +0.039 A 
ATOM     20  C   UNL     1      -4.470   1.961  24.613  0.00  0.00    +0.006 A 
ATOM     21  C   UNL     1      -4.863   2.662  24.795  0.00  0.00    +0.037 A 
ATOM     22  C   UNL     1      -5.509   2.652  25.308  0.00  0.00    +0.139 A 
ATOM     25  C   UNL     1      -5.762   1.939  25.638  0.00  0.00    +0.037 A 
ATOM     26  C   UNL     1      -5.369   1.237  25.455  0.00  0.00    +0.006 A 
BRANCH  22  23
ATOM     23  O   UNL     1      -5.903   3.353  25.491  0.00  0.00    -0.471 OA
ATOM     24  C   UNL     1      -5.473   4.046  25.615  0.00  0.00    +0.252 C 
ENDBRANCH  22  23
ENDBRANCH  16  19
ENDBRANCH  10  14
BRANCH   8   7
ATOM      7  N   UNL     1      -0.549  -0.995  24.793  0.00  0.00    -0.082 NA
BRANCH   7   4
ATOM      4  S   UNL     1      -0.189  -0.568  24.185  0.00  0.00    +0.057 S 
ATOM      5  O   UNL     1      -0.180   0.103  24.663  0.00  0.00    -0.156 OA
ATOM      6  O   UNL     1      -0.199  -1.241  23.708  0.00  0.00    -0.156 OA
BRANCH   4   3
ATOM      3  C   UNL     1       0.170  -0.142  23.579  0.00  0.00    +0.171 C 
BRANCH   3   2
ATOM      1  C   UNL     1       1.306   0.110  22.747  0.00  0.00    +0.002 C 
ATOM      2  C   UNL     1       0.956  -0.293  23.378  0.00  0.00    +0.027 C 
ENDBRANCH   3   2
ENDBRANCH   4   3
ENDBRANCH   7   4
ENDBRANCH   8   7
TORSDOF 7
ENDMDL
MODEL 8
REMARK VINA RESULT:      -7.3      2.827      4.588
REMARK  Name = 
REMARK  7 active torsions:
REMARK  status: ('A' for Active; 'I' for Inactive)
REMARK    1  A    between atoms: C_2  and  C_3
REMARK    2  A    between atoms: C_3  and  S_4
REMARK    3  A    between atoms: S_4  and  N_7
REMARK    4  A    between atoms: N_7  and  C_8
REMARK    5  A    between atoms: C_10  and  C_14
REMARK    6  A    between atoms: C_16  and  C_19
REMARK    7  A    between atoms: C_22  and  O_23
REMARK                            x       y       z     vdW  Elec       q    Type
REMARK                         _______ _______ _______ _____ _____    ______ ____
ROOT
ATOM      8  C   UNL     1      -0.121   1.452  24.727  0.00  0.00    +0.115 C 
ATOM      9  C   UNL     1      -0.916   1.532  24.521  0.00  0.00    +0.046 C 
ATOM     10  C   UNL     1      -1.176   2.267  24.792  0.00  0.00    +0.139 C 
ATOM     11  N   UNL     1      -0.542   2.641  25.165  0.00  0.00    -0.264 NA
ATOM     12  C   UNL     1      -0.557   3.387  25.516  0.00  0.00    +0.090 C 
ATOM     13  C   UNL     1       0.110   2.137  25.124  0.00  0.00    +0.092 C 
ENDROOT
BRANCH  10  14
ATOM     14  C   UNL     1      -1.937   2.574  24.705  0.00  0.00    +0.251 A 
ATOM     15  N   UNL     1      -2.634   2.227  24.979  0.00  0.00    -0.190 NA
ATOM     16  C   UNL     1      -3.262   2.721  24.771  0.00  0.00    +0.203 A 
ATOM     17  N   UNL     1      -2.954   3.372  24.370  0.00  0.00    -0.056 NA
ATOM     18  O   UNL     1      -2.134   3.281  24.328  0.00  0.00    -0.336 OA
BRANCH  16  19
ATOM     19  C   UNL     1      -4.059   2.587  24.937  0.00  0.00    +0.039 A 
ATOM     20  C   UNL     1      -4.473   3.108  25.424  0.00  0.00    +0.006 A 
ATOM     21  C   UNL     1      -5.270   2.974  25.589  0.00  0.00    +0.037 A 
ATOM     22  C   UNL     1      -5.653   2.318  25.268  0.00  0.00    +0.139 A 
ATOM     25  C   UNL     1      -5.239   1.796  24.781  0.00  0.00    +0.037 A 
ATOM     26  C   UNL     1      -4.442   1.930  24.616  0.00  0.00    +0.006 A 
BRANCH  22  23
ATOM     23  O   UNL     1      -6.450   2.184  25.433  0.00  0.00    -0.471 OA
ATOM     24  C   UNL     1      -6.911   1.744  24.909  0.00  0.00    +0.252 C 
ENDBRANCH  22  23
ENDBRANCH  16  19
ENDBRANCH  10  14
BRANCH   8   7
ATOM      7  N   UNL     1       0.359   0.801  24.564  0.00  0.00    -0.082 NA
BRANCH   7   4
ATOM      4  S   UNL     1       0.502   0.579  23.783  0.00  0.00    +0.057 S 
ATOM      5  O   UNL     1       1.074   1.169  23.721  0.00  0.00    -0.156 OA
ATOM      6  O   UNL     1      -0.071  -0.011  23.845  0.00  0.00    -0.156 OA
BRANCH   4   3
ATOM      3  C   UNL     1       0.645   0.358  23.002  0.00  0.00    +0.171 C 
BRANCH   3   2
ATOM      1  C   UNL     1       1.492  -0.263  22.032  0.00  0.00    +0.002 C 
ATOM      2  C   UNL     1       1.296  -0.116  22.820  0.00  0.00    +0.027 C 
ENDBRANCH   3   2
ENDBRANCH   4   3
ENDBRANCH   7   4
ENDBRANCH   8   7
TORSDOF 7
ENDMDL
