MODEL 1
REMARK VINA RESULT:     -10.9      0.000      0.000
REMARK  Name = 
REMARK  6 active torsions:
REMARK  status: ('A' for Active; 'I' for Inactive)
REMARK    1  A    between atoms: C_2  and  N_3
REMARK    2  A    between atoms: C_9  and  C_10
REMARK    3  A    between atoms: C_10  and  C_11
REMARK    4  A    between atoms: C_14  and  C_15
REMARK    5  A    between atoms: C_15  and  C_16
REMARK    6  A    between atoms: C_24  and  O_25
REMARK                            x       y       z     vdW  Elec       q    Type
REMARK                         _______ _______ _______ _____ _____    ______ ____
ROOT
ATOM      3  N   UNL     1      -1.863   4.118  25.100  0.00  0.00    -0.188 NA
ATOM      4  C   UNL     1      -2.079   3.322  25.093  0.00  0.00    +0.323 C 
ATOM      5  O   UNL     1      -1.501   2.737  25.025  0.00  0.00    -0.251 OA
ATOM      6  N   UNL     1      -2.875   3.110  25.155  0.00  0.00    -0.263 N 
ATOM      7  C   UNL     1      -3.453   3.694  25.223  0.00  0.00    +0.095 C 
ATOM      8  C   UNL     1      -4.248   3.483  25.284  0.00  0.00    +0.022 C 
ATOM      9  C   UNL     1      -4.464   2.687  25.278  0.00  0.00    +0.015 C 
ATOM     14  C   UNL     1      -3.887   2.104  25.209  0.00  0.00    +0.026 C 
ATOM     28  C   UNL     1      -3.091   2.314  25.148  0.00  0.00    +0.095 C 
ENDROOT
BRANCH   3   2
ATOM      1  C   UNL     1      -0.856   5.124  24.977  0.00  0.00    +0.025 C 
ATOM      2  C   UNL     1      -1.067   4.329  25.039  0.00  0.00    +0.117 C 
ENDBRANCH   3   2
BRANCH   9  10
ATOM     10  C   UNL     1      -5.260   2.476  25.339  0.00  0.00    +0.114 C 
BRANCH  10  11
ATOM     11  C   UNL     1      -5.775   2.936  25.790  0.00  0.00    +0.365 C 
ATOM     12  O   UNL     1      -6.124   3.607  25.460  0.00  0.00    -0.246 OA
ATOM     13  O   UNL     1      -5.942   2.724  26.570  0.00  0.00    -0.246 OA
ENDBRANCH  10  11
ENDBRANCH   9  10
BRANCH  14  15
ATOM     15  C   UNL     1      -4.104   1.307  25.203  0.00  0.00    +0.047 C 
BRANCH  15  16
ATOM     16  C   UNL     1      -3.844   0.814  24.595  0.00  0.00    +0.053 C 
ATOM     17  N   UNL     1      -3.736   1.118  23.835  0.00  0.00    -0.274 NA
ATOM     18  C   UNL     1      -3.476   0.624  23.226  0.00  0.00    +0.130 C 
ATOM     19  C   UNL     1      -3.324  -0.173  23.378  0.00  0.00    +0.053 C 
ATOM     20  C   UNL     1      -3.431  -0.477  24.138  0.00  0.00    -0.016 A 
ATOM     21  C   UNL     1      -3.691   0.017  24.747  0.00  0.00    +0.009 A 
ATOM     22  C   UNL     1      -3.799  -0.286  25.506  0.00  0.00    +0.004 A 
ATOM     23  C   UNL     1      -3.646  -1.082  25.658  0.00  0.00    +0.037 A 
ATOM     24  C   UNL     1      -3.386  -1.576  25.049  0.00  0.00    +0.138 A 
ATOM     27  C   UNL     1      -3.279  -1.273  24.290  0.00  0.00    +0.033 A 
BRANCH  24  25
ATOM     25  O   UNL     1      -3.234  -2.372  25.201  0.00  0.00    -0.471 OA
ATOM     26  C   UNL     1      -3.615  -2.957  24.762  0.00  0.00    +0.252 C 
ENDBRANCH  24  25
ENDBRANCH  15  16
ENDBRANCH  14  15
TORSDOF 6
ENDMDL
MODEL 2
REMARK VINA RESULT:     -10.4      1.251      4.280
REMARK  Name = 
REMARK  6 active torsions:
REMARK  status: ('A' for Active; 'I' for Inactive)
REMARK    1  A    between atoms: C_2  and  N_3
REMARK    2  A    between atoms: C_9  and  C_10
REMARK    3  A    between atoms: C_10  and  C_11
REMARK    4  A    between atoms: C_14  and  C_15
REMARK    5  A    between atoms: C_15  and  C_16
REMARK    6  A    between atoms: C_24  and  O_25
REMARK                            x       y       z     vdW  Elec       q    Type
REMARK                         _______ _______ _______ _____ _____    ______ ____
ROOT
ATOM      3  N   UNL     1      -3.664  -1.612  24.945  0.00  0.00    -0.188 NA
ATOM      4  C   UNL     1      -3.298  -0.872  24.940  0.00  0.00    +0.323 C 
ATOM      5  O   UNL     1      -2.475  -0.819  24.936  0.00  0.00    -0.251 OA
ATOM      6  N   UNL     1      -3.757  -0.186  24.939  0.00  0.00    -0.263 N 
ATOM      7  C   UNL     1      -4.579  -0.239  24.943  0.00  0.00    +0.095 C 
ATOM      8  C   UNL     1      -5.038   0.446  24.942  0.00  0.00    +0.022 C 
ATOM      9  C   UNL     1      -4.672   1.186  24.938  0.00  0.00    +0.015 C 
ATOM     14  C   UNL     1      -3.850   1.239  24.934  0.00  0.00    +0.026 C 
ATOM     28  C   UNL     1      -3.391   0.553  24.935  0.00  0.00    +0.095 C 
ENDROOT
BRANCH   3   2
ATOM      1  C   UNL     1      -3.521  -3.005  24.659  0.00  0.00    +0.025 C 
ATOM      2  C   UNL     1      -3.206  -2.298  24.946  0.00  0.00    +0.117 C 
ENDBRANCH   3   2
BRANCH   9  10
ATOM     10  C   UNL     1      -5.131   1.872  24.937  0.00  0.00    +0.114 C 
BRANCH  10  11
ATOM     11  C   UNL     1      -5.909   1.849  25.208  0.00  0.00    +0.365 C 
ATOM     12  O   UNL     1      -6.069   1.953  26.011  0.00  0.00    -0.246 OA
ATOM     13  O   UNL     1      -6.527   1.721  24.676  0.00  0.00    -0.246 OA
ENDBRANCH  10  11
ENDBRANCH   9  10
BRANCH  14  15
ATOM     15  C   UNL     1      -3.484   1.979  24.929  0.00  0.00    +0.047 C 
BRANCH  15  16
ATOM     16  C   UNL     1      -2.893   2.144  24.377  0.00  0.00    +0.053 C 
ATOM     17  N   UNL     1      -2.893   1.760  23.647  0.00  0.00    -0.274 NA
ATOM     18  C   UNL     1      -2.301   1.925  23.095  0.00  0.00    +0.130 C 
ATOM     19  C   UNL     1      -1.711   2.474  23.274  0.00  0.00    +0.053 C 
ATOM     20  C   UNL     1      -1.712   2.858  24.005  0.00  0.00    -0.016 A 
ATOM     21  C   UNL     1      -2.303   2.693  24.557  0.00  0.00    +0.009 A 
ATOM     22  C   UNL     1      -2.304   3.076  25.287  0.00  0.00    +0.004 A 
ATOM     23  C   UNL     1      -1.715   3.624  25.465  0.00  0.00    +0.037 A 
ATOM     24  C   UNL     1      -1.123   3.789  24.913  0.00  0.00    +0.138 A 
ATOM     27  C   UNL     1      -1.122   3.406  24.183  0.00  0.00    +0.033 A 
BRANCH  24  25
ATOM     25  O   UNL     1      -0.534   4.338  25.093  0.00  0.00    -0.471 OA
ATOM     26  C   UNL     1      -0.656   5.139  24.944  0.00  0.00    +0.252 C 
ENDBRANCH  24  25
ENDBRANCH  15  16
ENDBRANCH  14  15
TORSDOF 6
ENDMDL
MODEL 3
REMARK VINA RESULT:     -10.2      1.864      4.740
REMARK  Name = 
REMARK  6 active torsions:
REMARK  status: ('A' for Active; 'I' for Inactive)
REMARK    1  A    between atoms: C_2  and  N_3
REMARK    2  A    between atoms: C_9  and  C_10
REMARK    3  A    between atoms: C_10  and  C_11
REMARK    4  A    between atoms: C_14  and  C_15
REMARK    5  A    between atoms: C_15  and  C_16
REMARK    6  A    between atoms: C_24  and  O_25
REMARK                            x       y       z     vdW  Elec       q    Type
REMARK                         _______ _______ _______ _____ _____    ______ ____
ROOT
ATOM      3  N   UNL     1      -1.778  -1.404  24.652  0.00  0.00    -0.188 NA
ATOM      4  C   UNL     1      -2.158  -0.675  24.719  0.00  0.00    +0.323 C 
ATOM      5  O   UNL     1      -2.978  -0.642  24.795  0.00  0.00    -0.251 OA
ATOM      6  N   UNL     1      -1.716   0.023  24.711  0.00  0.00    -0.263 N 
ATOM      7  C   UNL     1      -0.896  -0.010  24.635  0.00  0.00    +0.095 C 
ATOM      8  C   UNL     1      -0.454   0.687  24.627  0.00  0.00    +0.022 C 
ATOM      9  C   UNL     1      -0.834   1.416  24.694  0.00  0.00    +0.015 C 
ATOM     14  C   UNL     1      -1.654   1.448  24.770  0.00  0.00    +0.026 C 
ATOM     28  C   UNL     1      -2.096   0.752  24.778  0.00  0.00    +0.095 C 
ENDROOT
BRANCH   3   2
ATOM      1  C   UNL     1      -1.869  -2.813  24.434  0.00  0.00    +0.025 C 
ATOM      2  C   UNL     1      -2.219  -2.101  24.660  0.00  0.00    +0.117 C 
ENDBRANCH   3   2
BRANCH   9  10
ATOM     10  C   UNL     1      -0.392   2.113  24.686  0.00  0.00    +0.114 C 
BRANCH  10  11
ATOM     11  C   UNL     1       0.416   2.092  24.853  0.00  0.00    +0.365 C 
ATOM     12  O   UNL     1       0.959   1.956  24.247  0.00  0.00    -0.246 OA
ATOM     13  O   UNL     1       0.679   2.206  25.627  0.00  0.00    -0.246 OA
ENDBRANCH  10  11
ENDBRANCH   9  10
BRANCH  14  15
ATOM     15  C   UNL     1      -2.034   2.178  24.837  0.00  0.00    +0.047 C 
BRANCH  15  16
ATOM     16  C   UNL     1      -2.636   2.379  24.311  0.00  0.00    +0.053 C 
ATOM     17  N   UNL     1      -2.568   2.185  23.512  0.00  0.00    -0.274 NA
ATOM     18  C   UNL     1      -3.172   2.386  22.985  0.00  0.00    +0.130 C 
ATOM     19  C   UNL     1      -3.842   2.782  23.259  0.00  0.00    +0.053 C 
ATOM     20  C   UNL     1      -3.910   2.977  24.058  0.00  0.00    -0.016 A 
ATOM     21  C   UNL     1      -3.307   2.776  24.585  0.00  0.00    +0.009 A 
ATOM     22  C   UNL     1      -3.374   2.970  25.383  0.00  0.00    +0.004 A 
ATOM     23  C   UNL     1      -4.044   3.366  25.656  0.00  0.00    +0.037 A 
ATOM     24  C   UNL     1      -4.648   3.567  25.129  0.00  0.00    +0.138 A 
ATOM     27  C   UNL     1      -4.580   3.373  24.331  0.00  0.00    +0.033 A 
BRANCH  24  25
ATOM     25  O   UNL     1      -5.318   3.964  25.403  0.00  0.00    -0.471 OA
ATOM     26  C   UNL     1      -5.915   3.547  25.789  0.00  0.00    +0.252 C 
ENDBRANCH  24  25
ENDBRANCH  15  16
ENDBRANCH  14  15
TORSDOF 6
ENDMDL
MODEL 4
REMARK VINA RESULT:     -10.0      2.673      3.627
REMARK  Name = 
REMARK  6 active torsions:
REMARK  status: ('A' for Active; 'I' for Inactive)
REMARK    1  A    between atoms: C_2  and  N_3
REMARK    2  A    between atoms: C_9  and  C_10
REMARK    3  A    between atoms: C_10  and  C_11
REMARK    4  A    between atoms: C_14  and  C_15
REMARK    5  A    between atoms: C_15  and  C_16
REMARK    6  A    between atoms: C_24  and  O_25
REMARK                            x       y       z     vdW  Elec       q    Type
REMARK                         _______ _______ _______ _____ _____    ______ ____
ROOT
ATOM      3  N   UNL     1       1.293   0.468  23.105  0.00  0.00    -0.188 NA
ATOM      4  C   UNL     1       0.573   0.231  23.429  0.00  0.00    +0.323 C 
ATOM      5  O   UNL     1       0.231  -0.484  23.199  0.00  0.00    -0.251 OA
ATOM      6  N   UNL     1       0.194   0.710  23.985  0.00  0.00    -0.263 N 
ATOM      7  C   UNL     1       0.536   1.423  24.215  0.00  0.00    +0.095 C 
ATOM      8  C   UNL     1       0.158   1.902  24.771  0.00  0.00    +0.022 C 
ATOM      9  C   UNL     1      -0.562   1.666  25.095  0.00  0.00    +0.015 C 
ATOM     14  C   UNL     1      -0.904   0.952  24.865  0.00  0.00    +0.026 C 
ATOM     28  C   UNL     1      -0.526   0.473  24.310  0.00  0.00    +0.095 C 
ENDROOT
BRANCH   3   2
ATOM      1  C   UNL     1       2.464   0.123  22.361  0.00  0.00    +0.025 C 
ATOM      2  C   UNL     1       1.672  -0.011  22.549  0.00  0.00    +0.117 C 
ENDBRANCH   3   2
BRANCH   9  10
ATOM     10  C   UNL     1      -0.941   2.144  25.651  0.00  0.00    +0.114 C 
BRANCH  10  11
ATOM     11  C   UNL     1      -0.534   2.769  26.004  0.00  0.00    +0.365 C 
ATOM     12  O   UNL     1      -0.060   2.632  26.665  0.00  0.00    -0.246 OA
ATOM     13  O   UNL     1      -0.600   3.531  25.694  0.00  0.00    -0.246 OA
ENDBRANCH  10  11
ENDBRANCH   9  10
BRANCH  14  15
ATOM     15  C   UNL     1      -1.625   0.716  25.191  0.00  0.00    +0.047 C 
BRANCH  15  16
ATOM     16  C   UNL     1      -2.266   0.551  24.698  0.00  0.00    +0.053 C 
ATOM     17  N   UNL     1      -2.484   1.089  24.111  0.00  0.00    -0.274 NA
ATOM     18  C   UNL     1      -3.125   0.924  23.618  0.00  0.00    +0.130 C 
ATOM     19  C   UNL     1      -3.548   0.221  23.712  0.00  0.00    +0.053 C 
ATOM     20  C   UNL     1      -3.330  -0.317  24.298  0.00  0.00    -0.016 A 
ATOM     21  C   UNL     1      -2.688  -0.152  24.792  0.00  0.00    +0.009 A 
ATOM     22  C   UNL     1      -2.470  -0.689  25.378  0.00  0.00    +0.004 A 
ATOM     23  C   UNL     1      -2.892  -1.391  25.471  0.00  0.00    +0.037 A 
ATOM     24  C   UNL     1      -3.534  -1.556  24.978  0.00  0.00    +0.138 A 
ATOM     27  C   UNL     1      -3.752  -1.019  24.392  0.00  0.00    +0.033 A 
BRANCH  24  25
ATOM     25  O   UNL     1      -3.956  -2.259  25.072  0.00  0.00    -0.471 OA
ATOM     26  C   UNL     1      -3.605  -2.980  24.881  0.00  0.00    +0.252 C 
ENDBRANCH  24  25
ENDBRANCH  15  16
ENDBRANCH  14  15
TORSDOF 6
ENDMDL
MODEL 5
REMARK VINA RESULT:     -10.0      1.594      2.944
REMARK  Name = 
REMARK  6 active torsions:
REMARK  status: ('A' for Active; 'I' for Inactive)
REMARK    1  A    between atoms: C_2  and  N_3
REMARK    2  A    between atoms: C_9  and  C_10
REMARK    3  A    between atoms: C_10  and  C_11
REMARK    4  A    between atoms: C_14  and  C_15
REMARK    5  A    between atoms: C_15  and  C_16
REMARK    6  A    between atoms: C_24  and  O_25
REMARK                            x       y       z     vdW  Elec       q    Type
REMARK                         _______ _______ _______ _____ _____    ______ ____
ROOT
ATOM      3  N   UNL     1      -5.102   3.296  25.203  0.00  0.00    -0.188 NA
ATOM      4  C   UNL     1      -4.938   2.493  25.113  0.00  0.00    +0.323 C 
ATOM      5  O   UNL     1      -5.346   1.935  25.564  0.00  0.00    -0.251 OA
ATOM      6  N   UNL     1      -4.365   2.247  24.572  0.00  0.00    -0.263 N 
ATOM      7  C   UNL     1      -3.958   2.804  24.122  0.00  0.00    +0.095 C 
ATOM      8  C   UNL     1      -3.385   2.559  23.581  0.00  0.00    +0.022 C 
ATOM      9  C   UNL     1      -3.222   1.756  23.491  0.00  0.00    +0.015 C 
ATOM     14  C   UNL     1      -3.629   1.199  23.941  0.00  0.00    +0.026 C 
ATOM     28  C   UNL     1      -4.202   1.444  24.482  0.00  0.00    +0.095 C 
ENDROOT
BRANCH   3   2
ATOM      1  C   UNL     1      -5.944   4.322  25.734  0.00  0.00    +0.025 C 
ATOM      2  C   UNL     1      -5.674   3.542  25.745  0.00  0.00    +0.117 C 
ENDBRANCH   3   2
BRANCH   9  10
ATOM     10  C   UNL     1      -2.649   1.510  22.949  0.00  0.00    +0.114 C 
BRANCH  10  11
ATOM     11  C   UNL     1      -2.285   2.061  22.455  0.00  0.00    +0.365 C 
ATOM     12  O   UNL     1      -2.597   2.212  21.706  0.00  0.00    -0.246 OA
ATOM     13  O   UNL     1      -1.609   2.460  22.710  0.00  0.00    -0.246 OA
ENDBRANCH  10  11
ENDBRANCH   9  10
BRANCH  14  15
ATOM     15  C   UNL     1      -3.465   0.395  23.850  0.00  0.00    +0.047 C 
BRANCH  15  16
ATOM     16  C   UNL     1      -3.191  -0.045  24.492  0.00  0.00    +0.053 C 
ATOM     17  N   UNL     1      -2.751   0.322  25.086  0.00  0.00    -0.274 NA
ATOM     18  C   UNL     1      -2.476  -0.118  25.728  0.00  0.00    +0.130 C 
ATOM     19  C   UNL     1      -2.642  -0.925  25.776  0.00  0.00    +0.053 C 
ATOM     20  C   UNL     1      -3.082  -1.293  25.182  0.00  0.00    -0.016 A 
ATOM     21  C   UNL     1      -3.357  -0.852  24.540  0.00  0.00    +0.009 A 
ATOM     22  C   UNL     1      -3.797  -1.219  23.947  0.00  0.00    +0.004 A 
ATOM     23  C   UNL     1      -3.963  -2.025  23.995  0.00  0.00    +0.037 A 
ATOM     24  C   UNL     1      -3.688  -2.465  24.638  0.00  0.00    +0.138 A 
ATOM     27  C   UNL     1      -3.248  -2.099  25.231  0.00  0.00    +0.033 A 
BRANCH  24  25
ATOM     25  O   UNL     1      -3.854  -3.272  24.685  0.00  0.00    -0.471 OA
ATOM     26  C   UNL     1      -3.889  -3.728  23.999  0.00  0.00    +0.252 C 
ENDBRANCH  24  25
ENDBRANCH  15  16
ENDBRANCH  14  15
TORSDOF 6
ENDMDL
MODEL 6
REMARK VINA RESULT:      -9.7      1.881      4.230
REMARK  Name = 
REMARK  6 active torsions:
REMARK  status: ('A' for Active; 'I' for Inactive)
REMARK    1  A    between atoms: C_2  and  N_3
REMARK    2  A    between atoms: C_9  and  C_10
REMARK    3  A    between atoms: C_10  and  C_11
REMARK    4  A    between atoms: C_14  and  C_15
REMARK    5  A    between atoms: C_15  and  C_16
REMARK    6  A    between atoms: C_24  and  O_25
REMARK                            x       y       z     vdW  Elec       q    Type
REMARK                         _______ _______ _______ _____ _____    ______ ____
ROOT
ATOM      3  N   UNL     1       0.024  -0.221  23.869  0.00  0.00    -0.188 NA
ATOM      4  C   UNL     1      -0.608   0.286  24.023  0.00  0.00    +0.323 C 
ATOM      5  O   UNL     1      -0.497   1.103  23.999  0.00  0.00    -0.251 OA
ATOM      6  N   UNL     1      -1.351  -0.025  24.203  0.00  0.00    -0.263 N 
ATOM      7  C   UNL     1      -1.462  -0.841  24.228  0.00  0.00    +0.095 C 
ATOM      8  C   UNL     1      -2.204  -1.152  24.407  0.00  0.00    +0.022 C 
ATOM      9  C   UNL     1      -2.836  -0.645  24.562  0.00  0.00    +0.015 C 
ATOM     14  C   UNL     1      -2.726   0.171  24.537  0.00  0.00    +0.026 C 
ATOM     28  C   UNL     1      -1.983   0.482  24.358  0.00  0.00    +0.095 C 
ENDROOT
BRANCH   3   2
ATOM      1  C   UNL     1       1.243  -0.280  23.126  0.00  0.00    +0.025 C 
ATOM      2  C   UNL     1       0.768   0.090  23.689  0.00  0.00    +0.117 C 
ENDBRANCH   3   2
BRANCH   9  10
ATOM     10  C   UNL     1      -3.580  -0.956  24.741  0.00  0.00    +0.114 C 
BRANCH  10  11
ATOM     11  C   UNL     1      -3.697  -1.772  24.742  0.00  0.00    +0.365 C 
ATOM     12  O   UNL     1      -3.556  -2.208  25.428  0.00  0.00    -0.246 OA
ATOM     13  O   UNL     1      -3.954  -2.152  24.056  0.00  0.00    -0.246 OA
ENDBRANCH  10  11
ENDBRANCH   9  10
BRANCH  14  15
ATOM     15  C   UNL     1      -3.359   0.679  24.692  0.00  0.00    +0.047 C 
BRANCH  15  16
ATOM     16  C   UNL     1      -3.490   1.334  24.208  0.00  0.00    +0.053 C 
ATOM     17  N   UNL     1      -3.257   1.315  23.416  0.00  0.00    -0.274 NA
ATOM     18  C   UNL     1      -3.389   1.971  22.932  0.00  0.00    +0.130 C 
ATOM     19  C   UNL     1      -3.754   2.644  23.240  0.00  0.00    +0.053 C 
ATOM     20  C   UNL     1      -3.987   2.663  24.031  0.00  0.00    -0.016 A 
ATOM     21  C   UNL     1      -3.855   2.007  24.516  0.00  0.00    +0.009 A 
ATOM     22  C   UNL     1      -4.088   2.025  25.306  0.00  0.00    +0.004 A 
ATOM     23  C   UNL     1      -4.452   2.698  25.613  0.00  0.00    +0.037 A 
ATOM     24  C   UNL     1      -4.584   3.354  25.129  0.00  0.00    +0.138 A 
ATOM     27  C   UNL     1      -4.351   3.335  24.338  0.00  0.00    +0.033 A 
BRANCH  24  25
ATOM     25  O   UNL     1      -4.948   4.027  25.437  0.00  0.00    -0.471 OA
ATOM     26  C   UNL     1      -5.736   3.996  25.679  0.00  0.00    +0.252 C 
ENDBRANCH  24  25
ENDBRANCH  15  16
ENDBRANCH  14  15
TORSDOF 6
ENDMDL
MODEL 7
REMARK VINA RESULT:      -9.4      2.364      4.328
REMARK  Name = 
REMARK  6 active torsions:
REMARK  status: ('A' for Active; 'I' for Inactive)
REMARK    1  A    between atoms: C_2  and  N_3
REMARK    2  A    between atoms: C_9  and  C_10
REMARK    3  A    between atoms: C_10  and  C_11
REMARK    4  A    between atoms: C_14  and  C_15
REMARK    5  A    between atoms: C_15  and  C_16
REMARK    6  A    between atoms: C_24  and  O_25
REMARK                            x       y       z     vdW  Elec       q    Type
REMARK                         _______ _______ _______ _____ _____    ______ ____
ROOT
ATOM      3  N   UNL     1      -5.071   1.456  24.977  0.00  0.00    -0.188 NA
ATOM      4  C   UNL     1      -4.281   1.374  24.755  0.00  0.00    +0.323 C 
ATOM      5  O   UNL     1      -3.861   2.025  24.471  0.00  0.00    -0.251 OA
ATOM      6  N   UNL     1      -3.910   0.638  24.818  0.00  0.00    -0.263 N 
ATOM      7  C   UNL     1      -4.329  -0.012  25.101  0.00  0.00    +0.095 C 
ATOM      8  C   UNL     1      -3.959  -0.746  25.164  0.00  0.00    +0.022 C 
ATOM      9  C   UNL     1      -3.169  -0.829  24.942  0.00  0.00    +0.015 C 
ATOM     14  C   UNL     1      -2.750  -0.179  24.659  0.00  0.00    +0.026 C 
ATOM     28  C   UNL     1      -3.120   0.556  24.596  0.00  0.00    +0.095 C 
ENDROOT
BRANCH   3   2
ATOM      1  C   UNL     1      -6.166   2.320  25.287  0.00  0.00    +0.025 C 
ATOM      2  C   UNL     1      -5.442   2.191  24.914  0.00  0.00    +0.117 C 
ENDBRANCH   3   2
BRANCH   9  10
ATOM     10  C   UNL     1      -2.798  -1.564  25.004  0.00  0.00    +0.114 C 
BRANCH  10  11
ATOM     11  C   UNL     1      -3.251  -2.252  25.052  0.00  0.00    +0.365 C 
ATOM     12  O   UNL     1      -3.482  -2.642  24.362  0.00  0.00    -0.246 OA
ATOM     13  O   UNL     1      -3.473  -2.550  25.789  0.00  0.00    -0.246 OA
ENDBRANCH  10  11
ENDBRANCH   9  10
BRANCH  14  15
ATOM     15  C   UNL     1      -1.959  -0.262  24.437  0.00  0.00    +0.047 C 
BRANCH  15  16
ATOM     16  C   UNL     1      -1.396   0.278  24.706  0.00  0.00    +0.053 C 
ATOM     17  N   UNL     1      -1.539   0.717  25.389  0.00  0.00    -0.274 NA
ATOM     18  C   UNL     1      -0.976   1.258  25.658  0.00  0.00    +0.130 C 
ATOM     19  C   UNL     1      -0.270   1.358  25.243  0.00  0.00    +0.053 C 
ATOM     20  C   UNL     1      -0.127   0.919  24.559  0.00  0.00    -0.016 A 
ATOM     21  C   UNL     1      -0.690   0.379  24.290  0.00  0.00    +0.009 A 
ATOM     22  C   UNL     1      -0.547  -0.060  23.607  0.00  0.00    +0.004 A 
ATOM     23  C   UNL     1       0.158   0.041  23.192  0.00  0.00    +0.037 A 
ATOM     24  C   UNL     1       0.721   0.582  23.461  0.00  0.00    +0.138 A 
ATOM     27  C   UNL     1       0.578   1.020  24.144  0.00  0.00    +0.033 A 
BRANCH  24  25
ATOM     25  O   UNL     1       1.427   0.682  23.045  0.00  0.00    -0.471 OA
ATOM     26  C   UNL     1       1.799   0.033  22.700  0.00  0.00    +0.252 C 
ENDBRANCH  24  25
ENDBRANCH  15  16
ENDBRANCH  14  15
TORSDOF 6
ENDMDL
MODEL 8
REMARK VINA RESULT:      -9.4      2.441      3.763
REMARK  Name = 
REMARK  6 active torsions:
REMARK  status: ('A' for Active; 'I' for Inactive)
REMARK    1  A    between atoms: C_2  and  N_3
REMARK    2  A    between atoms: C_9  and  C_10
REMARK    3  A    between atoms: C_10  and  C_11
REMARK    4  A    between atoms: C_14  and  C_15
REMARK    5  A    between atoms: C_15  and  C_16
REMARK    6  A    between atoms: C_24  and  O_25
REMARK                            x       y       z     vdW  Elec       q    Type
REMARK                         _______ _______ _______ _____ _____    ______ ____
ROOT
ATOM      3  N   UNL     1      -4.884   2.220  24.886  0.00  0.00    -0.188 NA
ATOM      4  C   UNL     1      -4.144   1.895  24.723  0.00  0.00    +0.323 C 
ATOM      5  O   UNL     1      -4.088   1.141  24.394  0.00  0.00    -0.251 OA
ATOM      6  N   UNL     1      -3.459   2.326  24.888  0.00  0.00    -0.263 N 
ATOM      7  C   UNL     1      -3.516   3.080  25.216  0.00  0.00    +0.095 C 
ATOM      8  C   UNL     1      -2.832   3.510  25.382  0.00  0.00    +0.022 C 
ATOM      9  C   UNL     1      -2.092   3.186  25.218  0.00  0.00    +0.015 C 
ATOM     14  C   UNL     1      -2.035   2.432  24.890  0.00  0.00    +0.026 C 
ATOM     28  C   UNL     1      -2.719   2.001  24.724  0.00  0.00    +0.095 C 
ENDROOT
BRANCH   3   2
ATOM      1  C   UNL     1      -6.275   1.976  25.105  0.00  0.00    +0.025 C 
ATOM      2  C   UNL     1      -5.569   1.790  24.721  0.00  0.00    +0.117 C 
ENDBRANCH   3   2
BRANCH   9  10
ATOM     10  C   UNL     1      -1.407   3.616  25.383  0.00  0.00    +0.114 C 
BRANCH  10  11
ATOM     11  C   UNL     1      -1.401   4.435  25.285  0.00  0.00    +0.365 C 
ATOM     12  O   UNL     1      -0.986   4.772  24.656  0.00  0.00    -0.246 OA
ATOM     13  O   UNL     1      -1.810   4.917  25.816  0.00  0.00    -0.246 OA
ENDBRANCH  10  11
ENDBRANCH   9  10
BRANCH  14  15
ATOM     15  C   UNL     1      -1.294   2.107  24.726  0.00  0.00    +0.047 C 
BRANCH  15  16
ATOM     16  C   UNL     1      -1.132   1.324  24.930  0.00  0.00    +0.053 C 
ATOM     17  N   UNL     1      -1.456   1.002  25.617  0.00  0.00    -0.274 NA
ATOM     18  C   UNL     1      -1.294   0.218  25.821  0.00  0.00    +0.130 C 
ATOM     19  C   UNL     1      -0.809  -0.242  25.337  0.00  0.00    +0.053 C 
ATOM     20  C   UNL     1      -0.485   0.080  24.649  0.00  0.00    -0.016 A 
ATOM     21  C   UNL     1      -0.647   0.864  24.446  0.00  0.00    +0.009 A 
ATOM     22  C   UNL     1      -0.324   1.187  23.759  0.00  0.00    +0.004 A 
ATOM     23  C   UNL     1       0.161   0.727  23.276  0.00  0.00    +0.037 A 
ATOM     24  C   UNL     1       0.322  -0.057  23.480  0.00  0.00    +0.138 A 
ATOM     27  C   UNL     1      -0.001  -0.379  24.166  0.00  0.00    +0.033 A 
BRANCH  24  25
ATOM     25  O   UNL     1       0.807  -0.517  22.996  0.00  0.00    -0.471 OA
ATOM     26  C   UNL     1       1.437  -0.170  22.593  0.00  0.00    +0.252 C 
ENDBRANCH  24  25
ENDBRANCH  15  16
ENDBRANCH  14  15
TORSDOF 6
ENDMDL
MODEL 9
REMARK VINA RESULT:      -9.2      1.817      3.177
REMARK  Name = 
REMARK  6 active torsions:
REMARK  status: ('A' for Active; 'I' for Inactive)
REMARK    1  A    between atoms: C_2  and  N_3
REMARK    2  A    between atoms: C_9  and  C_10
REMARK    3  A    between atoms: C_10  and  C_11
REMARK    4  A    between atoms: C_14  and  C_15
REMARK    5  A    between atoms: C_15  and  C_16
REMARK    6  A    between atoms: C_24  and  O_25
REMARK                            x       y       z     vdW  Elec       q    Type
REMARK                         _______ _______ _______ _____ _____    ______ ____
ROOT
ATOM      3  N   UNL     1      -1.294   4.052  25.028  0.00  0.00    -0.188 NA
ATOM      4  C   UNL     1      -1.648   3.318  25.158  0.00  0.00    +0.323 C 
ATOM      5  O   UNL     1      -2.362   3.271  25.569  0.00  0.00    -0.251 OA
ATOM      6  N   UNL     1      -1.288   2.631  24.876  0.00  0.00    -0.263 N 
ATOM      7  C   UNL     1      -0.575   2.678  24.466  0.00  0.00    +0.095 C 
ATOM      8  C   UNL     1      -0.214   1.992  24.184  0.00  0.00    +0.022 C 
ATOM      9  C   UNL     1      -0.568   1.259  24.314  0.00  0.00    +0.015 C 
ATOM     14  C   UNL     1      -1.281   1.211  24.724  0.00  0.00    +0.026 C 
ATOM     28  C   UNL     1      -1.641   1.897  25.006  0.00  0.00    +0.095 C 
ENDROOT
BRANCH   3   2
ATOM      1  C   UNL     1      -1.389   5.478  25.056  0.00  0.00    +0.025 C 
ATOM      2  C   UNL     1      -1.655   4.739  25.310  0.00  0.00    +0.117 C 
ENDBRANCH   3   2
BRANCH   9  10
ATOM     10  C   UNL     1      -0.207   0.571  24.032  0.00  0.00    +0.114 C 
BRANCH  10  11
ATOM     11  C   UNL     1       0.456   0.624  23.543  0.00  0.00    +0.365 C 
ATOM     12  O   UNL     1       0.388   0.457  22.738  0.00  0.00    -0.246 OA
ATOM     13  O   UNL     1       1.185   0.843  23.860  0.00  0.00    -0.246 OA
ENDBRANCH  10  11
ENDBRANCH   9  10
BRANCH  14  15
ATOM     15  C   UNL     1      -1.634   0.476  24.854  0.00  0.00    +0.047 C 
BRANCH  15  16
ATOM     16  C   UNL     1      -2.383   0.318  24.544  0.00  0.00    +0.053 C 
ATOM     17  N   UNL     1      -2.770   0.889  24.092  0.00  0.00    -0.274 NA
ATOM     18  C   UNL     1      -3.519   0.731  23.782  0.00  0.00    +0.130 C 
ATOM     19  C   UNL     1      -3.879   0.002  23.926  0.00  0.00    +0.053 C 
ATOM     20  C   UNL     1      -3.492  -0.568  24.378  0.00  0.00    -0.016 A 
ATOM     21  C   UNL     1      -2.743  -0.410  24.688  0.00  0.00    +0.009 A 
ATOM     22  C   UNL     1      -2.355  -0.980  25.141  0.00  0.00    +0.004 A 
ATOM     23  C   UNL     1      -2.715  -1.708  25.284  0.00  0.00    +0.037 A 
ATOM     24  C   UNL     1      -3.464  -1.866  24.974  0.00  0.00    +0.138 A 
ATOM     27  C   UNL     1      -3.852  -1.296  24.522  0.00  0.00    +0.033 A 
BRANCH  24  25
ATOM     25  O   UNL     1      -3.824  -2.594  25.118  0.00  0.00    -0.471 OA
ATOM     26  C   UNL     1      -3.515  -3.281  24.782  0.00  0.00    +0.252 C 
ENDBRANCH  24  25
ENDBRANCH  15  16
ENDBRANCH  14  15
TORSDOF 6
ENDMDL
MODEL 10
REMARK VINA RESULT:      -8.4     16.196     18.627
REMARK  Name = 
REMARK  6 active torsions:
REMARK  status: ('A' for Active; 'I' for Inactive)
REMARK    1  A    between atoms: C_2  and  N_3
REMARK    2  A    between atoms: C_9  and  C_10
REMARK    3  A    between atoms: C_10  and  C_11
REMARK    4  A    between atoms: C_14  and  C_15
REMARK    5  A    between atoms: C_15  and  C_16
REMARK    6  A    between atoms: C_24  and  O_25
REMARK                            x       y       z     vdW  Elec       q    Type
REMARK                         _______ _______ _______ _____ _____    ______ ____
ROOT
ATOM      3  N   UNL     1      15.842   6.731  19.585  0.00  0.00    -0.188 NA
ATOM      4  C   UNL     1      15.114   6.936  19.913  0.00  0.00    +0.323 C 
ATOM      5  O   UNL     1      14.994   6.871  20.727  0.00  0.00    -0.251 OA
ATOM      6  N   UNL     1      14.504   7.206  19.426  0.00  0.00    -0.263 N 
ATOM      7  C   UNL     1      14.623   7.271  18.614  0.00  0.00    +0.095 C 
ATOM      8  C   UNL     1      14.015   7.541  18.127  0.00  0.00    +0.022 C 
ATOM      9  C   UNL     1      13.286   7.746  18.455  0.00  0.00    +0.015 C 
ATOM     14  C   UNL     1      13.167   7.681  19.268  0.00  0.00    +0.026 C 
ATOM     28  C   UNL     1      13.775   7.411  19.754  0.00  0.00    +0.095 C 
ENDROOT
BRANCH   3   2
ATOM      1  C   UNL     1      17.160   6.200  19.739  0.00  0.00    +0.025 C 
ATOM      2  C   UNL     1      16.452   6.461  20.072  0.00  0.00    +0.117 C 
ENDBRANCH   3   2
BRANCH   9  10
ATOM     10  C   UNL     1      12.676   8.017  17.968  0.00  0.00    +0.114 C 
BRANCH  10  11
ATOM     11  C   UNL     1      12.845   8.284  17.206  0.00  0.00    +0.365 C 
ATOM     12  O   UNL     1      12.943   7.743  16.592  0.00  0.00    -0.246 OA
ATOM     13  O   UNL     1      12.914   9.094  17.060  0.00  0.00    -0.246 OA
ENDBRANCH  10  11
ENDBRANCH   9  10
BRANCH  14  15
ATOM     15  C   UNL     1      12.437   7.887  19.596  0.00  0.00    +0.047 C 
BRANCH  15  16
ATOM     16  C   UNL     1      12.079   7.391  20.150  0.00  0.00    +0.053 C 
ATOM     17  N   UNL     1      12.170   6.573  20.089  0.00  0.00    -0.274 NA
ATOM     18  C   UNL     1      11.812   6.076  20.644  0.00  0.00    +0.130 C 
ATOM     19  C   UNL     1      11.364   6.399  21.257  0.00  0.00    +0.053 C 
ATOM     20  C   UNL     1      11.274   7.217  21.318  0.00  0.00    -0.016 A 
ATOM     21  C   UNL     1      11.632   7.714  20.763  0.00  0.00    +0.009 A 
ATOM     22  C   UNL     1      11.542   8.531  20.823  0.00  0.00    +0.004 A 
ATOM     23  C   UNL     1      11.094   8.853  21.436  0.00  0.00    +0.037 A 
ATOM     24  C   UNL     1      10.736   8.356  21.990  0.00  0.00    +0.138 A 
ATOM     27  C   UNL     1      10.826   7.539  21.931  0.00  0.00    +0.033 A 
BRANCH  24  25
ATOM     25  O   UNL     1      10.289   8.679  22.604  0.00  0.00    -0.471 OA
ATOM     26  C   UNL     1      10.660   9.094  23.212  0.00  0.00    +0.252 C 
ENDBRANCH  24  25
ENDBRANCH  15  16
ENDBRANCH  14  15
TORSDOF 6
ENDMDL
