MODEL 1
REMARK VINA RESULT:     -12.7      0.000      0.000
REMARK  Name = 
REMARK  5 active torsions:
REMARK  status: ('A' for Active; 'I' for Inactive)
REMARK    1  A    between atoms: C_2  and  C_28
REMARK    2  A    between atoms: N_3  and  C_4
REMARK    3  A    between atoms: C_4  and  C_5
REMARK    4  A    between atoms: C_12  and  C_13
REMARK    5  A    between atoms: C_13  and  N_14
REMARK                            x       y       z     vdW  Elec       q    Type
REMARK                         _______ _______ _______ _____ _____    ______ ____
ROOT
ATOM      5  C   UNL     1      -3.121   2.232  24.559  0.00  0.00    +0.079 C 
ATOM      6  C   UNL     1      -3.160   1.831  23.893  0.00  0.00    +0.018 C 
ATOM      7  C   UNL     1      -3.144   1.024  23.827  0.00  0.00    +0.005 C 
ATOM      8  C   UNL     1      -3.200   0.758  22.972  0.00  0.00    +0.017 C 
ATOM      9  C   UNL     1      -3.175   1.192  23.461  0.00  0.00    +0.072 C 
ATOM     10  N   UNL     1      -3.106   1.410  24.483  0.00  0.00    -0.272 NA
ATOM     11  C   UNL     1      -3.043   0.740  25.100  0.00  0.00    +0.073 C 
ATOM     12  C   UNL     1      -3.084   0.385  24.426  0.00  0.00    +0.032 C 
ENDROOT
BRANCH   5   4
ATOM      4  C   UNL     1      -3.107   2.930  24.998  0.00  0.00    +0.131 C 
BRANCH   4   3
ATOM      1  O   UNL     1      -2.758   4.092  26.117  0.00  0.00    -0.265 OA
ATOM      2  C   UNL     1      -2.373   4.094  25.387  0.00  0.00    +0.300 C 
ATOM      3  N   UNL     1      -2.547   3.513  24.828  0.00  0.00    -0.198 NA
BRANCH   2  28
ATOM     28  C   UNL     1      -1.815   4.676  25.217  0.00  0.00    +0.200 A 
ATOM     29  C   UNL     1      -1.008   4.553  25.093  0.00  0.00    +0.046 A 
ATOM     30  C   UNL     1      -0.659   5.286  24.941  0.00  0.00    +0.044 A 
ATOM     31  C   UNL     1      -1.250   5.861  24.970  0.00  0.00    +0.180 A 
ATOM     32  O   UNL     1      -1.965   5.484  25.141  0.00  0.00    -0.446 OA
ENDBRANCH   2  28
ENDBRANCH   4   3
ENDBRANCH   5   4
BRANCH  12  13
ATOM     13  C   UNL     1      -3.073  -0.428  24.289  0.00  0.00    +0.073 C 
BRANCH  13  14
ATOM     14  N   UNL     1      -2.396  -0.866  24.463  0.00  0.00    -0.272 NA
ATOM     15  C   UNL     1      -1.598  -1.025  24.652  0.00  0.00    +0.074 C 
ATOM     16  C   UNL     1      -1.629  -2.012  24.687  0.00  0.00    +0.039 C 
ATOM     17  C   UNL     1      -1.490  -2.812  24.753  0.00  0.00    +0.011 C 
ATOM     18  C   UNL     1      -2.033  -2.390  24.611  0.00  0.00    +0.054 C 
ATOM     19  C   UNL     1      -1.986  -1.437  24.581  0.00  0.00    +0.078 C 
ATOM     20  C   UNL     1      -2.928  -2.412  24.407  0.00  0.00    +0.041 A 
ATOM     21  C   UNL     1      -3.546  -2.946  24.289  0.00  0.00    +0.013 A 
ATOM     22  C   UNL     1      -4.301  -2.669  24.105  0.00  0.00    +0.006 A 
ATOM     23  C   UNL     1      -4.438  -1.858  24.039  0.00  0.00    +0.061 A 
ATOM     24  C   UNL     1      -3.821  -1.324  24.157  0.00  0.00    +0.261 A 
ATOM     25  O   UNL     1      -3.958  -0.513  24.091  0.00  0.00    -0.267 OA
ATOM     26  N   UNL     1      -3.066  -1.601  24.341  0.00  0.00    -0.299 N 
ATOM     27  C   UNL     1      -2.565  -2.025  24.474  0.00  0.00    +0.110 C 
ENDBRANCH  13  14
ENDBRANCH  12  13
TORSDOF 5
ENDMDL
MODEL 2
REMARK VINA RESULT:     -12.3      2.618      4.776
REMARK  Name = 
REMARK  5 active torsions:
REMARK  status: ('A' for Active; 'I' for Inactive)
REMARK    1  A    between atoms: C_2  and  C_28
REMARK    2  A    between atoms: N_3  and  C_4
REMARK    3  A    between atoms: C_4  and  C_5
REMARK    4  A    between atoms: C_12  and  C_13
REMARK    5  A    between atoms: C_13  and  N_14
REMARK                            x       y       z     vdW  Elec       q    Type
REMARK                         _______ _______ _______ _____ _____    ______ ____
ROOT
ATOM      5  C   UNL     1      -1.274   0.945  23.789  0.00  0.00    +0.079 C 
ATOM      6  C   UNL     1      -1.726   1.389  23.337  0.00  0.00    +0.018 C 
ATOM      7  C   UNL     1      -2.421   1.738  23.562  0.00  0.00    +0.005 C 
ATOM      8  C   UNL     1      -2.790   2.209  22.894  0.00  0.00    +0.017 C 
ATOM      9  C   UNL     1      -2.340   1.828  23.177  0.00  0.00    +0.072 C 
ATOM     10  N   UNL     1      -1.984   1.304  24.011  0.00  0.00    -0.272 NA
ATOM     11  C   UNL     1      -2.448   1.306  24.797  0.00  0.00    +0.073 C 
ATOM     12  C   UNL     1      -2.862   1.735  24.321  0.00  0.00    +0.032 C 
ENDROOT
BRANCH   5   4
ATOM      4  C   UNL     1      -0.609   0.480  23.934  0.00  0.00    +0.131 C 
BRANCH   4   3
ATOM      1  O   UNL     1       0.528  -0.716  23.965  0.00  0.00    -0.265 OA
ATOM      2  C   UNL     1       0.603  -0.090  23.433  0.00  0.00    +0.300 C 
ATOM      3  N   UNL     1       0.035   0.508  23.417  0.00  0.00    -0.198 NA
BRANCH   2  28
ATOM     28  C   UNL     1       1.246  -0.062  22.917  0.00  0.00    +0.200 A 
ATOM     29  C   UNL     1       2.000   0.217  23.098  0.00  0.00    +0.046 A 
ATOM     30  C   UNL     1       2.468   0.143  22.422  0.00  0.00    +0.044 A 
ATOM     31  C   UNL     1       2.003  -0.182  21.824  0.00  0.00    +0.180 A 
ATOM     32  O   UNL     1       1.246  -0.309  22.130  0.00  0.00    -0.446 OA
ENDBRANCH   2  28
ENDBRANCH   4   3
ENDBRANCH   5   4
BRANCH  12  13
ATOM     13  C   UNL     1      -3.574   2.117  24.486  0.00  0.00    +0.073 C 
BRANCH  13  14
ATOM     14  N   UNL     1      -4.261   1.675  24.607  0.00  0.00    -0.272 NA
ATOM     15  C   UNL     1      -4.776   1.018  24.595  0.00  0.00    +0.074 C 
ATOM     16  C   UNL     1      -5.569   1.421  25.025  0.00  0.00    +0.039 C 
ATOM     17  C   UNL     1      -6.291   1.600  25.357  0.00  0.00    +0.011 C 
ATOM     18  C   UNL     1      -5.683   1.927  25.230  0.00  0.00    +0.054 C 
ATOM     19  C   UNL     1      -4.925   1.523  24.812  0.00  0.00    +0.078 C 
ATOM     20  C   UNL     1      -5.268   2.741  25.329  0.00  0.00    +0.041 A 
ATOM     21  C   UNL     1      -5.407   3.499  25.623  0.00  0.00    +0.013 A 
ATOM     22  C   UNL     1      -4.815   4.073  25.579  0.00  0.00    +0.006 A 
ATOM     23  C   UNL     1      -4.085   3.888  25.242  0.00  0.00    +0.061 A 
ATOM     24  C   UNL     1      -3.946   3.130  24.949  0.00  0.00    +0.261 A 
ATOM     25  O   UNL     1      -3.216   2.945  24.612  0.00  0.00    -0.267 OA
ATOM     26  N   UNL     1      -4.538   2.556  24.992  0.00  0.00    -0.299 N 
ATOM     27  C   UNL     1      -5.127   2.268  25.125  0.00  0.00    +0.110 C 
ENDBRANCH  13  14
ENDBRANCH  12  13
TORSDOF 5
ENDMDL
MODEL 3
REMARK VINA RESULT:     -12.1      3.471      4.391
REMARK  Name = 
REMARK  5 active torsions:
REMARK  status: ('A' for Active; 'I' for Inactive)
REMARK    1  A    between atoms: C_2  and  C_28
REMARK    2  A    between atoms: N_3  and  C_4
REMARK    3  A    between atoms: C_4  and  C_5
REMARK    4  A    between atoms: C_12  and  C_13
REMARK    5  A    between atoms: C_13  and  N_14
REMARK                            x       y       z     vdW  Elec       q    Type
REMARK                         _______ _______ _______ _____ _____    ______ ____
ROOT
ATOM      5  C   UNL     1       0.547   0.485  23.464  0.00  0.00    +0.079 C 
ATOM      6  C   UNL     1       0.275   0.917  24.051  0.00  0.00    +0.018 C 
ATOM      7  C   UNL     1      -0.465   0.860  24.375  0.00  0.00    +0.005 C 
ATOM      8  C   UNL     1      -0.583   1.448  25.042  0.00  0.00    +0.017 C 
ATOM      9  C   UNL     1      -0.254   1.148  24.563  0.00  0.00    +0.072 C 
ATOM     10  N   UNL     1      -0.205   0.433  23.800  0.00  0.00    -0.272 NA
ATOM     11  C   UNL     1      -0.920  -0.103  23.616  0.00  0.00    +0.073 C 
ATOM     12  C   UNL     1      -1.149   0.341  24.193  0.00  0.00    +0.032 C 
ENDROOT
BRANCH   5   4
ATOM      4  C   UNL     1       1.130   0.257  22.927  0.00  0.00    +0.131 C 
BRANCH   4   3
ATOM      1  O   UNL     1       2.293  -0.098  21.811  0.00  0.00    -0.265 OA
ATOM      2  C   UNL     1       2.508   0.188  22.554  0.00  0.00    +0.300 C 
ATOM      3  N   UNL     1       1.928   0.365  23.112  0.00  0.00    -0.198 NA
BRANCH   2  28
ATOM     28  C   UNL     1       3.305   0.296  22.739  0.00  0.00    +0.200 A 
ATOM     29  C   UNL     1       3.730   0.998  22.661  0.00  0.00    +0.046 A 
ATOM     30  C   UNL     1       4.504   0.857  22.909  0.00  0.00    +0.044 A 
ATOM     31  C   UNL     1       4.558   0.067  23.140  0.00  0.00    +0.180 A 
ATOM     32  O   UNL     1       3.816  -0.280  23.035  0.00  0.00    -0.446 OA
ENDBRANCH   2  28
ENDBRANCH   4   3
ENDBRANCH   5   4
BRANCH  12  13
ATOM     13  C   UNL     1      -1.884   0.335  24.566  0.00  0.00    +0.073 C 
BRANCH  13  14
ATOM     14  N   UNL     1      -2.105  -0.311  25.031  0.00  0.00    -0.272 NA
ATOM     15  C   UNL     1      -2.025  -1.005  25.488  0.00  0.00    +0.074 C 
ATOM     16  C   UNL     1      -2.973  -1.160  25.721  0.00  0.00    +0.039 C 
ATOM     17  C   UNL     1      -3.693  -1.423  25.997  0.00  0.00    +0.011 C 
ATOM     18  C   UNL     1      -3.448  -0.893  25.607  0.00  0.00    +0.054 C 
ATOM     19  C   UNL     1      -2.528  -0.757  25.389  0.00  0.00    +0.078 C 
ATOM     20  C   UNL     1      -3.728  -0.150  25.144  0.00  0.00    +0.041 A 
ATOM     21  C   UNL     1      -4.415   0.267  24.957  0.00  0.00    +0.013 A 
ATOM     22  C   UNL     1      -4.370   0.948  24.493  0.00  0.00    +0.006 A 
ATOM     23  C   UNL     1      -3.639   1.211  24.216  0.00  0.00    +0.061 A 
ATOM     24  C   UNL     1      -2.952   0.794  24.403  0.00  0.00    +0.261 A 
ATOM     25  O   UNL     1      -2.221   1.057  24.125  0.00  0.00    -0.267 OA
ATOM     26  N   UNL     1      -2.997   0.114  24.867  0.00  0.00    -0.299 N 
ATOM     27  C   UNL     1      -3.255  -0.382  25.236  0.00  0.00    +0.110 C 
ENDBRANCH  13  14
ENDBRANCH  12  13
TORSDOF 5
ENDMDL
MODEL 4
REMARK VINA RESULT:     -12.0      3.140      4.873
REMARK  Name = 
REMARK  5 active torsions:
REMARK  status: ('A' for Active; 'I' for Inactive)
REMARK    1  A    between atoms: C_2  and  C_28
REMARK    2  A    between atoms: N_3  and  C_4
REMARK    3  A    between atoms: C_4  and  C_5
REMARK    4  A    between atoms: C_12  and  C_13
REMARK    5  A    between atoms: C_13  and  N_14
REMARK                            x       y       z     vdW  Elec       q    Type
REMARK                         _______ _______ _______ _____ _____    ______ ____
ROOT
ATOM      5  C   UNL     1       0.037   0.504  23.732  0.00  0.00    +0.079 C 
ATOM      6  C   UNL     1      -0.160   0.640  24.473  0.00  0.00    +0.018 C 
ATOM      7  C   UNL     1      -0.858   0.965  24.723  0.00  0.00    +0.005 C 
ATOM      8  C   UNL     1      -0.891   1.038  25.616  0.00  0.00    +0.017 C 
ATOM      9  C   UNL     1      -0.623   0.882  25.041  0.00  0.00    +0.072 C 
ATOM     10  N   UNL     1      -0.672   0.834  23.995  0.00  0.00    -0.272 NA
ATOM     11  C   UNL     1      -1.410   1.131  23.548  0.00  0.00    +0.073 C 
ATOM     12  C   UNL     1      -1.565   1.248  24.286  0.00  0.00    +0.032 C 
ENDROOT
BRANCH   5   4
ATOM      4  C   UNL     1       0.551   0.238  23.145  0.00  0.00    +0.131 C 
BRANCH   4   3
ATOM      1  O   UNL     1       1.576  -0.195  21.926  0.00  0.00    -0.265 OA
ATOM      2  C   UNL     1       1.879   0.104  22.632  0.00  0.00    +0.300 C 
ATOM      3  N   UNL     1       1.367   0.321  23.242  0.00  0.00    -0.198 NA
BRANCH   2  28
ATOM     28  C   UNL     1       2.694   0.187  22.729  0.00  0.00    +0.200 A 
ATOM     29  C   UNL     1       3.131   0.873  22.591  0.00  0.00    +0.046 A 
ATOM     30  C   UNL     1       3.923   0.708  22.757  0.00  0.00    +0.044 A 
ATOM     31  C   UNL     1       3.974  -0.079  22.998  0.00  0.00    +0.180 A 
ATOM     32  O   UNL     1       3.214  -0.401  22.980  0.00  0.00    -0.446 OA
ENDBRANCH   2  28
ENDBRANCH   4   3
ENDBRANCH   5   4
BRANCH  12  13
ATOM     13  C   UNL     1      -2.252   1.573  24.606  0.00  0.00    +0.073 C 
BRANCH  13  14
ATOM     14  N   UNL     1      -2.953   1.137  24.606  0.00  0.00    -0.272 NA
ATOM     15  C   UNL     1      -3.458   0.473  24.556  0.00  0.00    +0.074 C 
ATOM     16  C   UNL     1      -4.330   0.917  24.697  0.00  0.00    +0.039 C 
ATOM     17  C   UNL     1      -5.111   1.125  24.795  0.00  0.00    +0.011 C 
ATOM     18  C   UNL     1      -4.486   1.444  24.786  0.00  0.00    +0.054 C 
ATOM     19  C   UNL     1      -3.651   1.001  24.649  0.00  0.00    +0.078 C 
ATOM     20  C   UNL     1      -4.099   2.274  24.870  0.00  0.00    +0.041 A 
ATOM     21  C   UNL     1      -4.298   3.063  25.000  0.00  0.00    +0.013 A 
ATOM     22  C   UNL     1      -3.707   3.638  25.030  0.00  0.00    +0.006 A 
ATOM     23  C   UNL     1      -2.917   3.423  24.930  0.00  0.00    +0.061 A 
ATOM     24  C   UNL     1      -2.717   2.634  24.799  0.00  0.00    +0.261 A 
ATOM     25  O   UNL     1      -1.927   2.419  24.698  0.00  0.00    -0.267 OA
ATOM     26  N   UNL     1      -3.308   2.059  24.769  0.00  0.00    -0.299 N 
ATOM     27  C   UNL     1      -3.916   1.779  24.783  0.00  0.00    +0.110 C 
ENDBRANCH  13  14
ENDBRANCH  12  13
TORSDOF 5
ENDMDL
MODEL 5
REMARK VINA RESULT:     -11.8      1.551      5.962
REMARK  Name = 
REMARK  5 active torsions:
REMARK  status: ('A' for Active; 'I' for Inactive)
REMARK    1  A    between atoms: C_2  and  C_28
REMARK    2  A    between atoms: N_3  and  C_4
REMARK    3  A    between atoms: C_4  and  C_5
REMARK    4  A    between atoms: C_12  and  C_13
REMARK    5  A    between atoms: C_13  and  N_14
REMARK                            x       y       z     vdW  Elec       q    Type
REMARK                         _______ _______ _______ _____ _____    ______ ____
ROOT
ATOM      5  C   UNL     1      -0.986   0.214  24.909  0.00  0.00    +0.079 C 
ATOM      6  C   UNL     1      -0.654   0.659  25.454  0.00  0.00    +0.018 C 
ATOM      7  C   UNL     1      -0.773   1.455  25.549  0.00  0.00    +0.005 C 
ATOM      8  C   UNL     1      -0.297   1.783  26.235  0.00  0.00    +0.017 C 
ATOM      9  C   UNL     1      -0.513   1.320  25.828  0.00  0.00    +0.072 C 
ATOM     10  N   UNL     1      -1.101   1.025  25.013  0.00  0.00    -0.272 NA
ATOM     11  C   UNL     1      -1.614   1.631  24.563  0.00  0.00    +0.073 C 
ATOM     12  C   UNL     1      -1.268   2.032  25.112  0.00  0.00    +0.032 C 
ENDROOT
BRANCH   5   4
ATOM      4  C   UNL     1      -1.119  -0.505  24.526  0.00  0.00    +0.131 C 
BRANCH   4   3
ATOM      1  O   UNL     1      -1.281  -2.061  24.002  0.00  0.00    -0.265 OA
ATOM      2  C   UNL     1      -1.912  -1.684  24.377  0.00  0.00    +0.300 C 
ATOM      3  N   UNL     1      -1.831  -0.907  24.639  0.00  0.00    -0.198 NA
BRANCH   2  28
ATOM     28  C   UNL     1      -2.624  -2.086  24.489  0.00  0.00    +0.200 A 
ATOM     29  C   UNL     1      -3.341  -1.912  24.121  0.00  0.00    +0.046 A 
ATOM     30  C   UNL     1      -3.904  -2.451  24.394  0.00  0.00    +0.044 A 
ATOM     31  C   UNL     1      -3.534  -2.957  24.930  0.00  0.00    +0.180 A 
ATOM     32  O   UNL     1      -2.742  -2.731  24.988  0.00  0.00    -0.446 OA
ENDBRANCH   2  28
ENDBRANCH   4   3
ENDBRANCH   5   4
BRANCH  12  13
ATOM     13  C   UNL     1      -1.344   2.840  25.263  0.00  0.00    +0.073 C 
BRANCH  13  14
ATOM     14  N   UNL     1      -2.047   3.136  25.578  0.00  0.00    -0.272 NA
ATOM     15  C   UNL     1      -2.796   3.135  25.948  0.00  0.00    +0.074 C 
ATOM     16  C   UNL     1      -2.987   4.105  25.938  0.00  0.00    +0.039 C 
ATOM     17  C   UNL     1      -3.288   4.858  26.006  0.00  0.00    +0.011 C 
ATOM     18  C   UNL     1      -2.710   4.552  25.754  0.00  0.00    +0.054 C 
ATOM     19  C   UNL     1      -2.540   3.612  25.771  0.00  0.00    +0.078 C 
ATOM     20  C   UNL     1      -1.913   4.748  25.339  0.00  0.00    +0.041 A 
ATOM     21  C   UNL     1      -1.479   5.389  25.056  0.00  0.00    +0.013 A 
ATOM     22  C   UNL     1      -0.742   5.266  24.706  0.00  0.00    +0.006 A 
ATOM     23  C   UNL     1      -0.440   4.502  24.638  0.00  0.00    +0.061 A 
ATOM     24  C   UNL     1      -0.874   3.860  24.921  0.00  0.00    +0.261 A 
ATOM     25  O   UNL     1      -0.571   3.095  24.854  0.00  0.00    -0.267 OA
ATOM     26  N   UNL     1      -1.611   3.983  25.272  0.00  0.00    -0.299 N 
ATOM     27  C   UNL     1      -2.152   4.299  25.505  0.00  0.00    +0.110 C 
ENDBRANCH  13  14
ENDBRANCH  12  13
TORSDOF 5
ENDMDL
MODEL 6
REMARK VINA RESULT:     -11.5      1.365      2.059
REMARK  Name = 
REMARK  5 active torsions:
REMARK  status: ('A' for Active; 'I' for Inactive)
REMARK    1  A    between atoms: C_2  and  C_28
REMARK    2  A    between atoms: N_3  and  C_4
REMARK    3  A    between atoms: C_4  and  C_5
REMARK    4  A    between atoms: C_12  and  C_13
REMARK    5  A    between atoms: C_13  and  N_14
REMARK                            x       y       z     vdW  Elec       q    Type
REMARK                         _______ _______ _______ _____ _____    ______ ____
ROOT
ATOM      5  C   UNL     1      -0.553   1.330  24.952  0.00  0.00    +0.079 C 
ATOM      6  C   UNL     1      -0.439   0.767  24.426  0.00  0.00    +0.018 C 
ATOM      7  C   UNL     1      -0.922   0.129  24.307  0.00  0.00    +0.005 C 
ATOM      8  C   UNL     1      -0.616  -0.404  23.654  0.00  0.00    +0.017 C 
ATOM      9  C   UNL     1      -0.610   0.115  24.052  0.00  0.00    +0.072 C 
ATOM     10  N   UNL     1      -1.040   0.676  24.824  0.00  0.00    -0.272 NA
ATOM     11  C   UNL     1      -1.816   0.406  25.221  0.00  0.00    +0.073 C 
ATOM     12  C   UNL     1      -1.669  -0.125  24.693  0.00  0.00    +0.032 C 
ENDROOT
BRANCH   5   4
ATOM      4  C   UNL     1      -0.348   2.030  25.335  0.00  0.00    +0.131 C 
BRANCH   4   3
ATOM      1  O   UNL     1       0.010   3.418  26.155  0.00  0.00    -0.265 OA
ATOM      2  C   UNL     1      -0.556   3.427  25.554  0.00  0.00    +0.300 C 
ATOM      3  N   UNL     1      -0.735   2.735  25.144  0.00  0.00    -0.198 NA
BRANCH   2  28
ATOM     28  C   UNL     1      -0.942   4.131  25.363  0.00  0.00    +0.200 A 
ATOM     29  C   UNL     1      -0.633   4.745  24.907  0.00  0.00    +0.046 A 
ATOM     30  C   UNL     1      -1.206   5.338  24.857  0.00  0.00    +0.044 A 
ATOM     31  C   UNL     1      -1.868   5.090  25.282  0.00  0.00    +0.180 A 
ATOM     32  O   UNL     1      -1.705   4.343  25.594  0.00  0.00    -0.446 OA
ENDBRANCH   2  28
ENDBRANCH   4   3
ENDBRANCH   5   4
BRANCH  12  13
ATOM     13  C   UNL     1      -2.116  -0.796  24.522  0.00  0.00    +0.073 C 
BRANCH  13  14
ATOM     14  N   UNL     1      -2.886  -0.716  24.233  0.00  0.00    -0.272 NA
ATOM     15  C   UNL     1      -3.559  -0.350  23.900  0.00  0.00    +0.074 C 
ATOM     16  C   UNL     1      -4.179  -1.119  23.895  0.00  0.00    +0.039 C 
ATOM     17  C   UNL     1      -4.800  -1.641  23.822  0.00  0.00    +0.011 C 
ATOM     18  C   UNL     1      -4.138  -1.651  24.055  0.00  0.00    +0.054 C 
ATOM     19  C   UNL     1      -3.550  -0.899  24.053  0.00  0.00    +0.078 C 
ATOM     20  C   UNL     1      -3.513  -2.214  24.425  0.00  0.00    +0.041 A 
ATOM     21  C   UNL     1      -3.420  -2.996  24.670  0.00  0.00    +0.013 A 
ATOM     22  C   UNL     1      -2.701  -3.246  24.987  0.00  0.00    +0.006 A 
ATOM     23  C   UNL     1      -2.074  -2.714  25.060  0.00  0.00    +0.061 A 
ATOM     24  C   UNL     1      -2.167  -1.932  24.814  0.00  0.00    +0.261 A 
ATOM     25  O   UNL     1      -1.540  -1.400  24.886  0.00  0.00    -0.267 OA
ATOM     26  N   UNL     1      -2.886  -1.682  24.497  0.00  0.00    -0.299 N 
ATOM     27  C   UNL     1      -3.520  -1.699  24.282  0.00  0.00    +0.110 C 
ENDBRANCH  13  14
ENDBRANCH  12  13
TORSDOF 5
ENDMDL
MODEL 7
REMARK VINA RESULT:     -11.2      1.211      5.590
REMARK  Name = 
REMARK  5 active torsions:
REMARK  status: ('A' for Active; 'I' for Inactive)
REMARK    1  A    between atoms: C_2  and  C_28
REMARK    2  A    between atoms: N_3  and  C_4
REMARK    3  A    between atoms: C_4  and  C_5
REMARK    4  A    between atoms: C_12  and  C_13
REMARK    5  A    between atoms: C_13  and  N_14
REMARK                            x       y       z     vdW  Elec       q    Type
REMARK                         _______ _______ _______ _____ _____    ______ ____
ROOT
ATOM      5  C   UNL     1      -3.893   0.657  24.889  0.00  0.00    +0.079 C 
ATOM      6  C   UNL     1      -4.008   1.241  24.388  0.00  0.00    +0.018 C 
ATOM      7  C   UNL     1      -3.574   1.924  24.352  0.00  0.00    +0.005 C 
ATOM      8  C   UNL     1      -3.867   2.472  23.705  0.00  0.00    +0.017 C 
ATOM      9  C   UNL     1      -3.863   1.929  24.070  0.00  0.00    +0.072 C 
ATOM     10  N   UNL     1      -3.455   1.355  24.845  0.00  0.00    -0.272 NA
ATOM     11  C   UNL     1      -2.742   1.661  25.327  0.00  0.00    +0.073 C 
ATOM     12  C   UNL     1      -2.889   2.211  24.819  0.00  0.00    +0.032 C 
ENDROOT
BRANCH   5   4
ATOM      4  C   UNL     1      -4.069  -0.082  25.211  0.00  0.00    +0.131 C 
BRANCH   4   3
ATOM      1  O   UNL     1      -3.818  -1.489  26.034  0.00  0.00    -0.265 OA
ATOM      2  C   UNL     1      -3.742  -1.473  25.213  0.00  0.00    +0.300 C 
ATOM      3  N   UNL     1      -3.867  -0.770  24.801  0.00  0.00    -0.198 NA
BRANCH   2  28
ATOM     28  C   UNL     1      -3.540  -2.160  24.804  0.00  0.00    +0.200 A 
ATOM     29  C   UNL     1      -4.020  -2.565  24.269  0.00  0.00    +0.046 A 
ATOM     30  C   UNL     1      -3.599  -3.219  23.993  0.00  0.00    +0.044 A 
ATOM     31  C   UNL     1      -2.859  -3.218  24.357  0.00  0.00    +0.180 A 
ATOM     32  O   UNL     1      -2.822  -2.563  24.858  0.00  0.00    -0.446 OA
ENDBRANCH   2  28
ENDBRANCH   4   3
ENDBRANCH   5   4
BRANCH  12  13
ATOM     13  C   UNL     1      -2.488   2.926  24.729  0.00  0.00    +0.073 C 
BRANCH  13  14
ATOM     14  N   UNL     1      -1.705   2.929  24.468  0.00  0.00    -0.272 NA
ATOM     15  C   UNL     1      -0.998   2.651  24.120  0.00  0.00    +0.074 C 
ATOM     16  C   UNL     1      -0.427   3.447  24.245  0.00  0.00    +0.039 C 
ATOM     17  C   UNL     1       0.162   4.009  24.270  0.00  0.00    +0.011 C 
ATOM     18  C   UNL     1      -0.507   3.950  24.472  0.00  0.00    +0.054 C 
ATOM     19  C   UNL     1      -1.047   3.173  24.344  0.00  0.00    +0.078 C 
ATOM     20  C   UNL     1      -1.180   4.421  24.885  0.00  0.00    +0.041 A 
ATOM     21  C   UNL     1      -1.330   5.156  25.227  0.00  0.00    +0.013 A 
ATOM     22  C   UNL     1      -2.074   5.320  25.542  0.00  0.00    +0.006 A 
ATOM     23  C   UNL     1      -2.669   4.748  25.515  0.00  0.00    +0.061 A 
ATOM     24  C   UNL     1      -2.519   4.013  25.172  0.00  0.00    +0.261 A 
ATOM     25  O   UNL     1      -3.114   3.442  25.144  0.00  0.00    -0.267 OA
ATOM     26  N   UNL     1      -1.774   3.849  24.857  0.00  0.00    -0.299 N 
ATOM     27  C   UNL     1      -1.135   3.931  24.675  0.00  0.00    +0.110 C 
ENDBRANCH  13  14
ENDBRANCH  12  13
TORSDOF 5
ENDMDL
