MODEL 1
REMARK VINA RESULT:      -9.6      0.000      0.000
REMARK  Name = 
REMARK  5 active torsions:
REMARK  status: ('A' for Active; 'I' for Inactive)
REMARK    1  A    between atoms: N_2  and  C_3
REMARK    2  A    between atoms: C_6  and  C_9
REMARK    3  A    between atoms: C_12  and  C_14
REMARK    4  A    between atoms: N_18  and  C_19
REMARK    5  A    between atoms: C_19  and  C_20
REMARK                            x       y       z     vdW  Elec       q    Type
REMARK                         _______ _______ _______ _____ _____    ______ ____
ROOT
ATOM      9  C   UNL     1      -3.948   0.358  24.450  0.00  0.00    +0.205 A 
ATOM     10  N   UNL     1      -3.851   0.726  23.719  0.00  0.00    -0.056 NA
ATOM     11  O   UNL     1      -4.007   1.530  23.814  0.00  0.00    -0.336 OA
ATOM     12  C   UNL     1      -4.201   1.660  24.605  0.00  0.00    +0.251 A 
ATOM     13  N   UNL     1      -4.165   0.936  24.999  0.00  0.00    -0.190 NA
ENDROOT
BRANCH   9   6
ATOM      3  C   UNL     1      -3.645  -2.053  24.920  0.00  0.00    +0.148 A 
ATOM      4  C   UNL     1      -3.998  -1.812  24.215  0.00  0.00    +0.036 A 
ATOM      5  C   UNL     1      -4.099  -1.008  24.059  0.00  0.00    +0.008 A 
ATOM      6  C   UNL     1      -3.847  -0.445  24.607  0.00  0.00    +0.058 A 
ATOM      7  C   UNL     1      -3.494  -0.687  25.313  0.00  0.00    +0.103 A 
ATOM      8  N   UNL     1      -3.393  -1.491  25.470  0.00  0.00    -0.228 NA
BRANCH   3   2
ATOM      1  C   UNL     1      -3.176  -3.343  24.521  0.00  0.00    +0.137 C 
ATOM      2  N   UNL     1      -3.544  -2.856  25.077  0.00  0.00    -0.218 NA
ENDBRANCH   3   2
ENDBRANCH   9   6
BRANCH  12  14
ATOM     14  C   UNL     1      -4.397   2.386  24.944  0.00  0.00    +0.138 C 
ATOM     15  C   UNL     1      -5.154   2.631  25.161  0.00  0.00    +0.027 C 
ATOM     16  C   UNL     1      -5.095   3.391  25.476  0.00  0.00    +0.019 C 
ATOM     17  C   UNL     1      -4.302   3.616  25.453  0.00  0.00    +0.073 C 
ATOM     18  N   UNL     1      -3.871   2.995  25.124  0.00  0.00    -0.260 NA
BRANCH  18  19
ATOM     19  C   UNL     1      -3.056   2.986  24.998  0.00  0.00    +0.139 C 
BRANCH  19  20
ATOM     20  C   UNL     1      -2.598   3.639  25.210  0.00  0.00    +0.155 A 
ATOM     21  N   UNL     1      -2.440   4.295  24.735  0.00  0.00    -0.226 NA
ATOM     22  C   UNL     1      -1.962   4.812  25.166  0.00  0.00    +0.121 A 
ATOM     23  C   UNL     1      -1.825   4.475  25.907  0.00  0.00    +0.121 A 
ATOM     24  N   UNL     1      -2.217   3.750  25.934  0.00  0.00    -0.226 NA
ENDBRANCH  19  20
ENDBRANCH  18  19
ENDBRANCH  12  14
TORSDOF 5
ENDMDL
MODEL 2
REMARK VINA RESULT:      -9.2      1.526      4.668
REMARK  Name = 
REMARK  5 active torsions:
REMARK  status: ('A' for Active; 'I' for Inactive)
REMARK    1  A    between atoms: N_2  and  C_3
REMARK    2  A    between atoms: C_6  and  C_9
REMARK    3  A    between atoms: C_12  and  C_14
REMARK    4  A    between atoms: N_18  and  C_19
REMARK    5  A    between atoms: C_19  and  C_20
REMARK                            x       y       z     vdW  Elec       q    Type
REMARK                         _______ _______ _______ _____ _____    ______ ____
ROOT
ATOM      9  C   UNL     1      -4.241   1.103  24.469  0.00  0.00    +0.205 A 
ATOM     10  N   UNL     1      -3.892   1.101  23.722  0.00  0.00    -0.056 NA
ATOM     11  O   UNL     1      -3.590   0.346  23.584  0.00  0.00    -0.336 OA
ATOM     12  C   UNL     1      -3.753  -0.119  24.245  0.00  0.00    +0.251 A 
ATOM     13  N   UNL     1      -4.155   0.349  24.793  0.00  0.00    -0.190 NA
ENDROOT
BRANCH   9   6
ATOM      3  C   UNL     1      -5.352   3.032  25.551  0.00  0.00    +0.148 A 
ATOM      4  C   UNL     1      -5.790   2.363  25.352  0.00  0.00    +0.036 A 
ATOM      5  C   UNL     1      -5.420   1.720  24.991  0.00  0.00    +0.008 A 
ATOM      6  C   UNL     1      -4.611   1.746  24.830  0.00  0.00    +0.058 A 
ATOM      7  C   UNL     1      -4.173   2.416  25.030  0.00  0.00    +0.103 A 
ATOM      8  N   UNL     1      -4.543   3.059  25.391  0.00  0.00    -0.228 NA
BRANCH   3   2
ATOM      1  C   UNL     1      -5.727   4.412  25.539  0.00  0.00    +0.137 C 
ATOM      2  N   UNL     1      -5.722   3.675  25.912  0.00  0.00    -0.218 NA
ENDBRANCH   3   2
ENDBRANCH   9   6
BRANCH  12  14
ATOM     14  C   UNL     1      -3.549  -0.913  24.343  0.00  0.00    +0.138 C 
ATOM     15  C   UNL     1      -4.026  -1.561  24.163  0.00  0.00    +0.027 C 
ATOM     16  C   UNL     1      -3.604  -2.246  24.346  0.00  0.00    +0.019 C 
ATOM     17  C   UNL     1      -2.867  -2.021  24.639  0.00  0.00    +0.073 C 
ATOM     18  N   UNL     1      -2.833  -1.197  24.637  0.00  0.00    -0.260 NA
BRANCH  18  19
ATOM     19  C   UNL     1      -2.194  -0.738  24.885  0.00  0.00    +0.139 C 
BRANCH  19  20
ATOM     20  C   UNL     1      -1.441  -1.073  24.935  0.00  0.00    +0.155 A 
ATOM     21  N   UNL     1      -0.872  -1.077  24.337  0.00  0.00    -0.226 NA
ATOM     22  C   UNL     1      -0.204  -1.468  24.624  0.00  0.00    +0.121 A 
ATOM     23  C   UNL     1      -0.361  -1.705  25.399  0.00  0.00    +0.121 A 
ATOM     24  N   UNL     1      -1.125  -1.461  25.591  0.00  0.00    -0.226 NA
ENDBRANCH  19  20
ENDBRANCH  18  19
ENDBRANCH  12  14
TORSDOF 5
ENDMDL
MODEL 3
REMARK VINA RESULT:      -8.8      2.021      2.726
REMARK  Name = 
REMARK  5 active torsions:
REMARK  status: ('A' for Active; 'I' for Inactive)
REMARK    1  A    between atoms: N_2  and  C_3
REMARK    2  A    between atoms: C_6  and  C_9
REMARK    3  A    between atoms: C_12  and  C_14
REMARK    4  A    between atoms: N_18  and  C_19
REMARK    5  A    between atoms: C_19  and  C_20
REMARK                            x       y       z     vdW  Elec       q    Type
REMARK                         _______ _______ _______ _____ _____    ______ ____
ROOT
ATOM      9  C   UNL     1      -1.695  -0.478  25.244  0.00  0.00    +0.205 A 
ATOM     10  N   UNL     1      -1.323  -0.376  25.973  0.00  0.00    -0.056 NA
ATOM     11  O   UNL     1      -0.880   0.319  25.938  0.00  0.00    -0.336 OA
ATOM     12  C   UNL     1      -0.978   0.647  25.188  0.00  0.00    +0.251 A 
ATOM     13  N   UNL     1      -1.482   0.154  24.758  0.00  0.00    -0.190 NA
ENDROOT
BRANCH   9   6
ATOM      3  C   UNL     1      -3.189  -2.351  24.622  0.00  0.00    +0.148 A 
ATOM      4  C   UNL     1      -3.496  -1.688  25.003  0.00  0.00    +0.036 A 
ATOM      5  C   UNL     1      -2.998  -1.064  25.211  0.00  0.00    +0.008 A 
ATOM      6  C   UNL     1      -2.193  -1.102  25.037  0.00  0.00    +0.058 A 
ATOM      7  C   UNL     1      -1.885  -1.767  24.655  0.00  0.00    +0.103 A 
ATOM      8  N   UNL     1      -2.383  -2.391  24.447  0.00  0.00    -0.228 NA
BRANCH   3   2
ATOM      1  C   UNL     1      -4.269  -2.866  23.839  0.00  0.00    +0.137 C 
ATOM      2  N   UNL     1      -3.686  -2.975  24.414  0.00  0.00    -0.218 NA
ENDBRANCH   3   2
ENDBRANCH   9   6
BRANCH  12  14
ATOM     14  C   UNL     1      -0.633   1.344  24.914  0.00  0.00    +0.138 C 
ATOM     15  C   UNL     1       0.071   1.402  24.490  0.00  0.00    +0.027 C 
ATOM     16  C   UNL     1       0.208   2.200  24.330  0.00  0.00    +0.019 C 
ATOM     17  C   UNL     1      -0.413   2.635  24.656  0.00  0.00    +0.073 C 
ATOM     18  N   UNL     1      -0.932   2.106  25.017  0.00  0.00    -0.260 NA
BRANCH  18  19
ATOM     19  C   UNL     1      -1.629   2.305  25.411  0.00  0.00    +0.139 C 
BRANCH  19  20
ATOM     20  C   UNL     1      -1.925   3.074  25.363  0.00  0.00    +0.155 A 
ATOM     21  N   UNL     1      -2.483   3.345  24.818  0.00  0.00    -0.226 NA
ATOM     22  C   UNL     1      -2.619   4.145  24.969  0.00  0.00    +0.121 A 
ATOM     23  C   UNL     1      -2.145   4.368  25.607  0.00  0.00    +0.121 A 
ATOM     24  N   UNL     1      -1.717   3.706  25.850  0.00  0.00    -0.226 NA
ENDBRANCH  19  20
ENDBRANCH  18  19
ENDBRANCH  12  14
TORSDOF 5
ENDMDL
MODEL 4
REMARK VINA RESULT:      -8.7      2.472      4.226
REMARK  Name = 
REMARK  5 active torsions:
REMARK  status: ('A' for Active; 'I' for Inactive)
REMARK    1  A    between atoms: N_2  and  C_3
REMARK    2  A    between atoms: C_6  and  C_9
REMARK    3  A    between atoms: C_12  and  C_14
REMARK    4  A    between atoms: N_18  and  C_19
REMARK    5  A    between atoms: C_19  and  C_20
REMARK                            x       y       z     vdW  Elec       q    Type
REMARK                         _______ _______ _______ _____ _____    ______ ____
ROOT
ATOM      9  C   UNL     1      -3.165   2.639  24.761  0.00  0.00    +0.205 A 
ATOM     10  N   UNL     1      -2.877   3.094  24.137  0.00  0.00    -0.056 NA
ATOM     11  O   UNL     1      -2.052   3.061  24.157  0.00  0.00    -0.336 OA
ATOM     12  C   UNL     1      -1.831   2.586  24.793  0.00  0.00    +0.251 A 
ATOM     13  N   UNL     1      -2.519   2.324  25.167  0.00  0.00    -0.190 NA
ENDROOT
BRANCH   9   6
ATOM      3  C   UNL     1      -5.549   2.279  25.321  0.00  0.00    +0.148 A 
ATOM      4  C   UNL     1      -5.134   1.705  24.899  0.00  0.00    +0.036 A 
ATOM      5  C   UNL     1      -4.339   1.825  24.713  0.00  0.00    +0.008 A 
ATOM      6  C   UNL     1      -3.960   2.519  24.948  0.00  0.00    +0.058 A 
ATOM      7  C   UNL     1      -4.376   3.094  25.370  0.00  0.00    +0.103 A 
ATOM      8  N   UNL     1      -5.171   2.974  25.556  0.00  0.00    -0.228 NA
BRANCH   3   2
ATOM      1  C   UNL     1      -6.552   1.839  26.239  0.00  0.00    +0.137 C 
ATOM      2  N   UNL     1      -6.344   2.159  25.507  0.00  0.00    -0.218 NA
ENDBRANCH   3   2
ENDBRANCH   9   6
BRANCH  12  14
ATOM     14  C   UNL     1      -1.059   2.403  25.017  0.00  0.00    +0.138 C 
ATOM     15  C   UNL     1      -0.627   2.774  25.613  0.00  0.00    +0.027 C 
ATOM     16  C   UNL     1       0.117   2.417  25.648  0.00  0.00    +0.019 C 
ATOM     17  C   UNL     1       0.144   1.826  25.073  0.00  0.00    +0.073 C 
ATOM     18  N   UNL     1      -0.583   1.817  24.683  0.00  0.00    -0.260 NA
BRANCH  18  19
ATOM     19  C   UNL     1      -0.796   1.312  24.068  0.00  0.00    +0.139 C 
BRANCH  19  20
ATOM     20  C   UNL     1      -0.363   0.621  23.933  0.00  0.00    +0.155 A 
ATOM     21  N   UNL     1       0.277   0.543  23.417  0.00  0.00    -0.226 NA
ATOM     22  C   UNL     1       0.541  -0.238  23.455  0.00  0.00    +0.121 A 
ATOM     23  C   UNL     1       0.064  -0.642  23.995  0.00  0.00    +0.121 A 
ATOM     24  N   UNL     1      -0.494  -0.111  24.290  0.00  0.00    -0.226 NA
ENDBRANCH  19  20
ENDBRANCH  18  19
ENDBRANCH  12  14
TORSDOF 5
ENDMDL
MODEL 5
REMARK VINA RESULT:      -8.6      1.731      2.539
REMARK  Name = 
REMARK  5 active torsions:
REMARK  status: ('A' for Active; 'I' for Inactive)
REMARK    1  A    between atoms: N_2  and  C_3
REMARK    2  A    between atoms: C_6  and  C_9
REMARK    3  A    between atoms: C_12  and  C_14
REMARK    4  A    between atoms: N_18  and  C_19
REMARK    5  A    between atoms: C_19  and  C_20
REMARK                            x       y       z     vdW  Elec       q    Type
REMARK                         _______ _______ _______ _____ _____    ______ ____
ROOT
ATOM      9  C   UNL     1      -1.650   1.047  24.456  0.00  0.00    +0.205 A 
ATOM     10  N   UNL     1      -1.514   1.491  23.774  0.00  0.00    -0.056 NA
ATOM     11  O   UNL     1      -1.676   2.281  23.947  0.00  0.00    -0.336 OA
ATOM     12  C   UNL     1      -1.913   2.327  24.735  0.00  0.00    +0.251 A 
ATOM     13  N   UNL     1      -1.897   1.564  25.051  0.00  0.00    -0.190 NA
ENDROOT
BRANCH   9   6
ATOM      3  C   UNL     1      -1.370  -1.401  24.681  0.00  0.00    +0.148 A 
ATOM      4  C   UNL     1      -2.125  -1.070  24.696  0.00  0.00    +0.036 A 
ATOM      5  C   UNL     1      -2.218  -0.254  24.621  0.00  0.00    +0.008 A 
ATOM      6  C   UNL     1      -1.557   0.231  24.531  0.00  0.00    +0.058 A 
ATOM      7  C   UNL     1      -0.801  -0.101  24.517  0.00  0.00    +0.103 A 
ATOM      8  N   UNL     1      -0.708  -0.917  24.592  0.00  0.00    -0.228 NA
BRANCH   3   2
ATOM      1  C   UNL     1      -1.857  -2.728  24.467  0.00  0.00    +0.137 C 
ATOM      2  N   UNL     1      -1.276  -2.218  24.756  0.00  0.00    -0.218 NA
ENDBRANCH   3   2
ENDBRANCH   9   6
BRANCH  12  14
ATOM     14  C   UNL     1      -2.128   3.013  25.139  0.00  0.00    +0.138 C 
ATOM     15  C   UNL     1      -1.622   3.498  25.573  0.00  0.00    +0.027 C 
ATOM     16  C   UNL     1      -2.069   4.120  25.881  0.00  0.00    +0.019 C 
ATOM     17  C   UNL     1      -2.850   4.019  25.636  0.00  0.00    +0.073 C 
ATOM     18  N   UNL     1      -2.887   3.335  25.178  0.00  0.00    -0.260 NA
BRANCH  18  19
ATOM     19  C   UNL     1      -3.563   3.028  24.820  0.00  0.00    +0.139 C 
BRANCH  19  20
ATOM     20  C   UNL     1      -4.305   3.168  25.154  0.00  0.00    +0.155 A 
ATOM     21  N   UNL     1      -4.726   2.648  25.638  0.00  0.00    -0.226 NA
ATOM     22  C   UNL     1      -5.437   3.011  25.845  0.00  0.00    +0.121 A 
ATOM     23  C   UNL     1      -5.456   3.755  25.488  0.00  0.00    +0.121 A 
ATOM     24  N   UNL     1      -4.758   3.852  25.062  0.00  0.00    -0.226 NA
ENDBRANCH  19  20
ENDBRANCH  18  19
ENDBRANCH  12  14
TORSDOF 5
ENDMDL
MODEL 6
REMARK VINA RESULT:      -8.6      1.434      4.982
REMARK  Name = 
REMARK  5 active torsions:
REMARK  status: ('A' for Active; 'I' for Inactive)
REMARK    1  A    between atoms: N_2  and  C_3
REMARK    2  A    between atoms: C_6  and  C_9
REMARK    3  A    between atoms: C_12  and  C_14
REMARK    4  A    between atoms: N_18  and  C_19
REMARK    5  A    between atoms: C_19  and  C_20
REMARK                            x       y       z     vdW  Elec       q    Type
REMARK                         _______ _______ _______ _____ _____    ______ ____
ROOT
ATOM      9  C   UNL     1      -2.868   2.149  24.488  0.00  0.00    +0.205 A 
ATOM     10  N   UNL     1      -3.153   1.932  23.745  0.00  0.00    -0.056 NA
ATOM     11  O   UNL     1      -3.386   1.141  23.782  0.00  0.00    -0.336 OA
ATOM     12  C   UNL     1      -3.245   0.869  24.548  0.00  0.00    +0.251 A 
ATOM     13  N   UNL     1      -2.926   1.492  24.985  0.00  0.00    -0.190 NA
ENDROOT
BRANCH   9   6
ATOM      3  C   UNL     1      -1.996   4.377  25.119  0.00  0.00    +0.148 A 
ATOM      4  C   UNL     1      -1.478   3.742  25.031  0.00  0.00    +0.036 A 
ATOM      5  C   UNL     1      -1.769   2.999  24.821  0.00  0.00    +0.008 A 
ATOM      6  C   UNL     1      -2.578   2.892  24.699  0.00  0.00    +0.058 A 
ATOM      7  C   UNL     1      -3.096   3.528  24.787  0.00  0.00    +0.103 A 
ATOM      8  N   UNL     1      -2.805   4.271  24.997  0.00  0.00    -0.228 NA
BRANCH   3   2
ATOM      1  C   UNL     1      -1.046   5.430  24.942  0.00  0.00    +0.137 C 
ATOM      2  N   UNL     1      -1.706   5.120  25.330  0.00  0.00    -0.218 NA
ENDBRANCH   3   2
ENDBRANCH   9   6
BRANCH  12  14
ATOM     14  C   UNL     1      -3.398   0.109  24.828  0.00  0.00    +0.138 C 
ATOM     15  C   UNL     1      -4.104  -0.150  25.165  0.00  0.00    +0.027 C 
ATOM     16  C   UNL     1      -4.014  -0.946  25.366  0.00  0.00    +0.019 C 
ATOM     17  C   UNL     1      -3.252  -1.177  25.153  0.00  0.00    +0.073 C 
ATOM     18  N   UNL     1      -2.871  -0.526  24.821  0.00  0.00    -0.260 NA
BRANCH  18  19
ATOM     19  C   UNL     1      -2.099  -0.512  24.532  0.00  0.00    +0.139 C 
BRANCH  19  20
ATOM     20  C   UNL     1      -1.567  -1.105  24.747  0.00  0.00    +0.155 A 
ATOM     21  N   UNL     1      -1.001  -1.055  25.347  0.00  0.00    -0.226 NA
ATOM     22  C   UNL     1      -0.592  -1.771  25.372  0.00  0.00    +0.121 A 
ATOM     23  C   UNL     1      -0.905  -2.264  24.787  0.00  0.00    +0.121 A 
ATOM     24  N   UNL     1      -1.507  -1.852  24.402  0.00  0.00    -0.226 NA
ENDBRANCH  19  20
ENDBRANCH  18  19
ENDBRANCH  12  14
TORSDOF 5
ENDMDL
MODEL 7
REMARK VINA RESULT:      -8.6      1.942      5.544
REMARK  Name = 
REMARK  5 active torsions:
REMARK  status: ('A' for Active; 'I' for Inactive)
REMARK    1  A    between atoms: N_2  and  C_3
REMARK    2  A    between atoms: C_6  and  C_9
REMARK    3  A    between atoms: C_12  and  C_14
REMARK    4  A    between atoms: N_18  and  C_19
REMARK    5  A    between atoms: C_19  and  C_20
REMARK                            x       y       z     vdW  Elec       q    Type
REMARK                         _______ _______ _______ _____ _____    ______ ____
ROOT
ATOM      9  C   UNL     1      -1.391   1.737  24.393  0.00  0.00    +0.205 A 
ATOM     10  N   UNL     1      -1.421   1.484  23.609  0.00  0.00    -0.056 NA
ATOM     11  O   UNL     1      -1.289   0.670  23.598  0.00  0.00    -0.336 OA
ATOM     12  C   UNL     1      -1.177   0.419  24.376  0.00  0.00    +0.251 A 
ATOM     13  N   UNL     1      -1.241   1.079  24.868  0.00  0.00    -0.190 NA
ENDROOT
BRANCH   9   6
ATOM      3  C   UNL     1      -1.700   4.062  25.186  0.00  0.00    +0.148 A 
ATOM      4  C   UNL     1      -0.940   3.767  25.058  0.00  0.00    +0.036 A 
ATOM      5  C   UNL     1      -0.838   2.993  24.793  0.00  0.00    +0.008 A 
ATOM      6  C   UNL     1      -1.494   2.512  24.657  0.00  0.00    +0.058 A 
ATOM      7  C   UNL     1      -2.255   2.807  24.786  0.00  0.00    +0.103 A 
ATOM      8  N   UNL     1      -2.357   3.582  25.050  0.00  0.00    -0.228 NA
BRANCH   3   2
ATOM      1  C   UNL     1      -1.410   5.457  25.073  0.00  0.00    +0.137 C 
ATOM      2  N   UNL     1      -1.803   4.836  25.450  0.00  0.00    -0.218 NA
ENDBRANCH   3   2
ENDBRANCH   9   6
BRANCH  12  14
ATOM     14  C   UNL     1      -1.029  -0.354  24.619  0.00  0.00    +0.138 C 
ATOM     15  C   UNL     1      -0.287  -0.676  24.783  0.00  0.00    +0.027 C 
ATOM     16  C   UNL     1      -0.396  -1.464  25.007  0.00  0.00    +0.019 C 
ATOM     17  C   UNL     1      -1.204  -1.627  24.982  0.00  0.00    +0.073 C 
ATOM     18  N   UNL     1      -1.595  -0.942  24.742  0.00  0.00    -0.260 NA
BRANCH  18  19
ATOM     19  C   UNL     1      -2.409  -0.859  24.643  0.00  0.00    +0.139 C 
BRANCH  19  20
ATOM     20  C   UNL     1      -2.902  -1.518  24.708  0.00  0.00    +0.155 A 
ATOM     21  N   UNL     1      -3.256  -1.792  25.401  0.00  0.00    -0.226 NA
ATOM     22  C   UNL     1      -3.699  -2.462  25.213  0.00  0.00    +0.121 A 
ATOM     23  C   UNL     1      -3.620  -2.601  24.403  0.00  0.00    +0.121 A 
ATOM     24  N   UNL     1      -3.127  -2.018  24.091  0.00  0.00    -0.226 NA
ENDBRANCH  19  20
ENDBRANCH  18  19
ENDBRANCH  12  14
TORSDOF 5
ENDMDL
