MODEL 1
REMARK VINA RESULT:     -11.5      0.000      0.000
REMARK  Name = 
REMARK  6 active torsions:
REMARK  status: ('A' for Active; 'I' for Inactive)
REMARK    1  A    between atoms: O_2  and  C_3
REMARK    2  A    between atoms: C_7  and  C_8
REMARK    3  A    between atoms: C_8  and  N_9
REMARK    4  A    between atoms: N_9  and  C_10
REMARK    5  A    between atoms: C_16  and  C_17
REMARK    6  A    between atoms: C_20  and  C_23
REMARK                            x       y       z     vdW  Elec       q    Type
REMARK                         _______ _______ _______ _____ _____    ______ ____
ROOT
ATOM     10  C   UNL     1      -4.618   2.588  25.249  0.00  0.00    +0.110 C 
ATOM     11  C   UNL     1      -5.430   2.657  25.375  0.00  0.00    +0.198 C 
ATOM     12  O   UNL     1      -5.987   2.055  25.293  0.00  0.00    -0.219 OA
ATOM     13  C   UNL     1      -5.588   3.436  25.596  0.00  0.00    +0.184 C 
ATOM     14  O   UNL     1      -6.330   3.749  25.776  0.00  0.00    -0.220 OA
ATOM     15  C   UNL     1      -4.873   3.848  25.608  0.00  0.00    +0.041 C 
ATOM     16  C   UNL     1      -4.273   3.323  25.393  0.00  0.00    +0.045 C 
ENDROOT
BRANCH  16  17
ATOM     17  C   UNL     1      -3.470   3.504  25.333  0.00  0.00    -0.002 A 
ATOM     18  C   UNL     1      -3.144   3.699  24.601  0.00  0.00    +0.094 A 
ATOM     19  N   UNL     1      -2.342   3.880  24.542  0.00  0.00    -0.240 NA
ATOM     20  C   UNL     1      -1.865   3.865  25.215  0.00  0.00    +0.153 A 
ATOM     21  C   UNL     1      -2.191   3.669  25.947  0.00  0.00    +0.023 A 
ATOM     22  C   UNL     1      -2.993   3.489  26.007  0.00  0.00    -0.001 A 
BRANCH  20  23
ATOM     23  C   UNL     1      -1.062   4.045  25.156  0.00  0.00    +0.435 C 
ATOM     24  F   UNL     1      -0.259   4.226  25.097  0.00  0.00    -0.164 F 
ATOM     25  F   UNL     1      -1.227   4.837  25.318  0.00  0.00    -0.164 F 
ATOM     26  F   UNL     1      -0.896   3.254  24.993  0.00  0.00    -0.164 F 
ENDBRANCH  20  23
ENDBRANCH  16  17
BRANCH  10   9
ATOM      9  N   UNL     1      -4.220   1.902  25.019  0.00  0.00    -0.212 NA
BRANCH   9   8
ATOM      8  C   UNL     1      -4.625   1.186  24.973  0.00  0.00    +0.115 C 
BRANCH   8   7
ATOM      3  C   UNL     1      -3.707  -0.787  25.141  0.00  0.00    +0.138 A 
ATOM      4  C   UNL     1      -3.411  -0.887  24.377  0.00  0.00    +0.037 A 
ATOM      5  C   UNL     1      -3.520  -0.296  23.813  0.00  0.00    +0.003 A 
ATOM      6  C   UNL     1      -3.925   0.394  24.011  0.00  0.00    -0.003 A 
ATOM      7  C   UNL     1      -4.220   0.495  24.774  0.00  0.00    -0.002 A 
ATOM     27  C   UNL     1      -4.111  -0.096  25.339  0.00  0.00    +0.034 A 
BRANCH   3   2
ATOM      1  C   UNL     1      -3.364  -2.134  25.472  0.00  0.00    +0.252 C 
ATOM      2  O   UNL     1      -3.598  -1.378  25.706  0.00  0.00    -0.471 OA
ENDBRANCH   3   2
ENDBRANCH   8   7
ENDBRANCH   9   8
ENDBRANCH  10   9
TORSDOF 6
ENDMDL
MODEL 2
REMARK VINA RESULT:     -11.4      2.594      4.319
REMARK  Name = 
REMARK  6 active torsions:
REMARK  status: ('A' for Active; 'I' for Inactive)
REMARK    1  A    between atoms: O_2  and  C_3
REMARK    2  A    between atoms: C_7  and  C_8
REMARK    3  A    between atoms: C_8  and  N_9
REMARK    4  A    between atoms: N_9  and  C_10
REMARK    5  A    between atoms: C_16  and  C_17
REMARK    6  A    between atoms: C_20  and  C_23
REMARK                            x       y       z     vdW  Elec       q    Type
REMARK                         _______ _______ _______ _____ _____    ______ ____
ROOT
ATOM     10  C   UNL     1      -4.201   1.519  24.777  0.00  0.00    +0.110 C 
ATOM     11  C   UNL     1      -4.762   2.119  24.835  0.00  0.00    +0.198 C 
ATOM     12  O   UNL     1      -4.618   2.928  24.770  0.00  0.00    -0.219 OA
ATOM     13  C   UNL     1      -5.497   1.767  24.970  0.00  0.00    +0.184 C 
ATOM     14  O   UNL     1      -6.215   2.164  25.064  0.00  0.00    -0.220 OA
ATOM     15  C   UNL     1      -5.388   0.950  24.995  0.00  0.00    +0.041 C 
ATOM     16  C   UNL     1      -4.586   0.796  24.876  0.00  0.00    +0.045 C 
ENDROOT
BRANCH  16  17
ATOM     17  C   UNL     1      -4.234   0.050  24.858  0.00  0.00    -0.002 A 
ATOM     18  C   UNL     1      -3.942  -0.286  25.552  0.00  0.00    +0.094 A 
ATOM     19  N   UNL     1      -3.591  -1.031  25.534  0.00  0.00    -0.240 NA
ATOM     20  C   UNL     1      -3.529  -1.441  24.821  0.00  0.00    +0.153 A 
ATOM     21  C   UNL     1      -3.821  -1.105  24.126  0.00  0.00    +0.023 A 
ATOM     22  C   UNL     1      -4.173  -0.360  24.144  0.00  0.00    -0.001 A 
BRANCH  20  23
ATOM     23  C   UNL     1      -3.178  -2.187  24.802  0.00  0.00    +0.435 C 
ATOM     24  F   UNL     1      -2.825  -2.933  24.783  0.00  0.00    -0.164 F 
ATOM     25  F   UNL     1      -3.893  -2.531  25.027  0.00  0.00    -0.164 F 
ATOM     26  F   UNL     1      -2.462  -1.843  24.578  0.00  0.00    -0.164 F 
ENDBRANCH  20  23
ENDBRANCH  16  17
BRANCH  10   9
ATOM      9  N   UNL     1      -3.392   1.622  24.643  0.00  0.00    -0.212 NA
BRANCH   9   8
ATOM      8  C   UNL     1      -3.046   2.360  24.765  0.00  0.00    +0.115 C 
BRANCH   8   7
ATOM      3  C   UNL     1      -0.977   2.707  25.367  0.00  0.00    +0.138 A 
ATOM      4  C   UNL     1      -0.586   2.606  24.648  0.00  0.00    +0.037 A 
ATOM      5  C   UNL     1      -1.015   2.423  23.968  0.00  0.00    +0.003 A 
ATOM      6  C   UNL     1      -1.834   2.341  24.007  0.00  0.00    -0.003 A 
ATOM      7  C   UNL     1      -2.226   2.442  24.726  0.00  0.00    -0.002 A 
ATOM     27  C   UNL     1      -1.796   2.625  25.406  0.00  0.00    +0.034 A 
BRANCH   3   2
ATOM      1  C   UNL     1       0.113   2.441  26.252  0.00  0.00    +0.252 C 
ATOM      2  O   UNL     1      -0.547   2.891  26.048  0.00  0.00    -0.471 OA
ENDBRANCH   3   2
ENDBRANCH   8   7
ENDBRANCH   9   8
ENDBRANCH  10   9
TORSDOF 6
ENDMDL
MODEL 3
REMARK VINA RESULT:     -10.9      2.349      3.281
REMARK  Name = 
REMARK  6 active torsions:
REMARK  status: ('A' for Active; 'I' for Inactive)
REMARK    1  A    between atoms: O_2  and  C_3
REMARK    2  A    between atoms: C_7  and  C_8
REMARK    3  A    between atoms: C_8  and  N_9
REMARK    4  A    between atoms: N_9  and  C_10
REMARK    5  A    between atoms: C_16  and  C_17
REMARK    6  A    between atoms: C_20  and  C_23
REMARK                            x       y       z     vdW  Elec       q    Type
REMARK                         _______ _______ _______ _____ _____    ______ ____
ROOT
ATOM     10  C   UNL     1      -2.053   1.805  24.743  0.00  0.00    +0.110 C 
ATOM     11  C   UNL     1      -1.261   1.797  24.515  0.00  0.00    +0.198 C 
ATOM     12  O   UNL     1      -0.775   1.132  24.468  0.00  0.00    -0.219 OA
ATOM     13  C   UNL     1      -1.039   2.573  24.343  0.00  0.00    +0.184 C 
ATOM     14  O   UNL     1      -0.292   2.820  24.093  0.00  0.00    -0.220 OA
ATOM     15  C   UNL     1      -1.694   3.059  24.464  0.00  0.00    +0.041 C 
ATOM     16  C   UNL     1      -2.322   2.584  24.712  0.00  0.00    +0.045 C 
ENDROOT
BRANCH  16  17
ATOM     17  C   UNL     1      -3.083   2.844  24.896  0.00  0.00    -0.002 A 
ATOM     18  C   UNL     1      -3.269   3.067  25.667  0.00  0.00    +0.094 A 
ATOM     19  N   UNL     1      -4.029   3.327  25.850  0.00  0.00    -0.240 NA
ATOM     20  C   UNL     1      -4.605   3.364  25.260  0.00  0.00    +0.153 A 
ATOM     21  C   UNL     1      -4.420   3.141  24.488  0.00  0.00    +0.023 A 
ATOM     22  C   UNL     1      -3.659   2.881  24.305  0.00  0.00    -0.001 A 
BRANCH  20  23
ATOM     23  C   UNL     1      -5.366   3.624  25.443  0.00  0.00    +0.435 C 
ATOM     24  F   UNL     1      -6.128   3.884  25.625  0.00  0.00    -0.164 F 
ATOM     25  F   UNL     1      -5.609   2.842  25.547  0.00  0.00    -0.164 F 
ATOM     26  F   UNL     1      -5.125   4.405  25.338  0.00  0.00    -0.164 F 
ENDBRANCH  20  23
ENDBRANCH  16  17
BRANCH  10   9
ATOM      9  N   UNL     1      -2.500   1.146  24.964  0.00  0.00    -0.212 NA
BRANCH   9   8
ATOM      8  C   UNL     1      -2.308   0.400  24.671  0.00  0.00    +0.115 C 
BRANCH   8   7
ATOM      3  C   UNL     1      -3.745  -1.225  24.435  0.00  0.00    +0.138 A 
ATOM      4  C   UNL     1      -3.747  -1.543  25.196  0.00  0.00    +0.037 A 
ATOM      5  C   UNL     1      -3.270  -1.213  25.782  0.00  0.00    +0.003 A 
ATOM      6  C   UNL     1      -2.790  -0.566  25.607  0.00  0.00    -0.003 A 
ATOM      7  C   UNL     1      -2.788  -0.248  24.846  0.00  0.00    -0.002 A 
ATOM     27  C   UNL     1      -3.266  -0.578  24.260  0.00  0.00    +0.034 A 
BRANCH   3   2
ATOM      1  C   UNL     1      -4.269  -2.375  23.767  0.00  0.00    +0.252 C 
ATOM      2  O   UNL     1      -4.223  -1.555  23.849  0.00  0.00    -0.471 OA
ENDBRANCH   3   2
ENDBRANCH   8   7
ENDBRANCH   9   8
ENDBRANCH  10   9
TORSDOF 6
ENDMDL
