MODEL 1
REMARK VINA RESULT:      -8.8      0.000      0.000
REMARK  Name = 
REMARK  7 active torsions:
REMARK  status: ('A' for Active; 'I' for Inactive)
REMARK    1  A    between atoms: O_2  and  C_3
REMARK    2  A    between atoms: C_6  and  C_9
REMARK    3  A    between atoms: N_11  and  C_12
REMARK    4  A    between atoms: C_16  and  O_20
REMARK    5  A    between atoms: O_20  and  C_21
REMARK    6  A    between atoms: N_23  and  C_24
REMARK    7  A    between atoms: C_27  and  C_30
REMARK                            x       y       z     vdW  Elec       q    Type
REMARK                         _______ _______ _______ _____ _____    ______ ____
ROOT
ATOM     12  C   UNL     1       0.864   0.183  23.277  0.00  0.00    +0.155 C 
ATOM     13  C   UNL     1       0.504  -0.231  22.662  0.00  0.00    +0.166 C 
ATOM     14  O   UNL     1      -0.312  -0.189  22.771  0.00  0.00    -0.348 OA
ATOM     15  C   UNL     1      -0.457   0.250  23.453  0.00  0.00    +0.186 C 
ATOM     16  C   UNL     1      -1.051   0.548  23.942  0.00  0.00    +0.229 C 
ATOM     17  C   UNL     1      -0.691   0.962  24.558  0.00  0.00    +0.188 C 
ATOM     18  O   UNL     1       0.126   0.921  24.449  0.00  0.00    -0.348 OA
ATOM     19  C   UNL     1       0.270   0.480  23.766  0.00  0.00    +0.168 C 
ENDROOT
BRANCH  12  11
ATOM      9  C   UNL     1       2.198   0.114  22.769  0.00  0.00    +0.265 C 
ATOM     10  O   UNL     1       1.907  -0.155  22.044  0.00  0.00    -0.268 OA
ATOM     11  N   UNL     1       1.676   0.283  23.385  0.00  0.00    -0.198 NA
BRANCH   9   6
ATOM      3  C   UNL     1       4.633   0.412  23.091  0.00  0.00    +0.139 A 
ATOM      4  C   UNL     1       4.178   1.031  22.791  0.00  0.00    +0.037 A 
ATOM      5  C   UNL     1       3.367   0.932  22.684  0.00  0.00    +0.008 A 
ATOM      6  C   UNL     1       3.010   0.213  22.876  0.00  0.00    +0.055 A 
ATOM      7  C   UNL     1       3.464  -0.406  23.176  0.00  0.00    +0.008 A 
ATOM      8  C   UNL     1       4.277  -0.307  23.284  0.00  0.00    +0.037 A 
BRANCH   3   2
ATOM      1  C   UNL     1       5.828   0.134  23.825  0.00  0.00    +0.252 C 
ATOM      2  O   UNL     1       5.446   0.511  23.199  0.00  0.00    -0.471 OA
ENDBRANCH   3   2
ENDBRANCH   9   6
ENDBRANCH  12  11
BRANCH  16  20
ATOM     20  O   UNL     1      -1.863   0.448  23.834  0.00  0.00    -0.432 OA
BRANCH  20  21
ATOM     21  C   UNL     1      -2.395   0.935  24.235  0.00  0.00    +0.425 C 
ATOM     22  O   UNL     1      -2.266   1.123  25.028  0.00  0.00    -0.224 OA
ATOM     23  N   UNL     1      -3.057   1.234  23.844  0.00  0.00    -0.142 NA
BRANCH  23  24
ATOM     24  C   UNL     1      -3.589   1.720  24.245  0.00  0.00    +0.077 A 
ATOM     25  C   UNL     1      -3.522   2.540  24.189  0.00  0.00    +0.017 A 
ATOM     26  C   UNL     1      -4.053   3.026  24.590  0.00  0.00    +0.004 A 
ATOM     27  C   UNL     1      -4.654   2.692  25.047  0.00  0.00    +0.035 A 
ATOM     28  C   UNL     1      -4.722   1.872  25.103  0.00  0.00    +0.004 A 
ATOM     29  C   UNL     1      -4.189   1.386  24.702  0.00  0.00    +0.017 A 
BRANCH  27  30
ATOM     30  C   UNL     1      -5.186   3.178  25.447  0.00  0.00    +0.173 C 
ATOM     31  C   UNL     1      -5.810   2.843  25.873  0.00  0.00    +0.077 C 
ATOM     32  O   UNL     1      -5.097   3.998  25.424  0.00  0.00    -0.291 OA
ENDBRANCH  27  30
ENDBRANCH  23  24
ENDBRANCH  20  21
ENDBRANCH  16  20
TORSDOF 7
ENDMDL
MODEL 2
REMARK VINA RESULT:      -8.2      0.898      7.323
REMARK  Name = 
REMARK  7 active torsions:
REMARK  status: ('A' for Active; 'I' for Inactive)
REMARK    1  A    between atoms: O_2  and  C_3
REMARK    2  A    between atoms: C_6  and  C_9
REMARK    3  A    between atoms: N_11  and  C_12
REMARK    4  A    between atoms: C_16  and  O_20
REMARK    5  A    between atoms: O_20  and  C_21
REMARK    6  A    between atoms: N_23  and  C_24
REMARK    7  A    between atoms: C_27  and  C_30
REMARK                            x       y       z     vdW  Elec       q    Type
REMARK                         _______ _______ _______ _____ _____    ______ ____
ROOT
ATOM     12  C   UNL     1      -1.821   1.426  23.741  0.00  0.00    +0.155 C 
ATOM     13  C   UNL     1      -1.753   1.689  22.962  0.00  0.00    +0.166 C 
ATOM     14  O   UNL     1      -1.072   1.356  22.640  0.00  0.00    -0.348 OA
ATOM     15  C   UNL     1      -0.718   0.886  23.218  0.00  0.00    +0.186 C 
ATOM     16  C   UNL     1      -0.079   0.390  23.377  0.00  0.00    +0.229 C 
ATOM     17  C   UNL     1      -0.147   0.126  24.155  0.00  0.00    +0.188 C 
ATOM     18  O   UNL     1      -0.829   0.460  24.478  0.00  0.00    -0.348 OA
ATOM     19  C   UNL     1      -1.182   0.930  23.899  0.00  0.00    +0.168 C 
ENDROOT
BRANCH  12  11
ATOM      9  C   UNL     1      -3.128   1.951  23.989  0.00  0.00    +0.265 C 
ATOM     10  O   UNL     1      -3.228   2.080  23.180  0.00  0.00    -0.268 OA
ATOM     11  N   UNL     1      -2.424   1.624  24.269  0.00  0.00    -0.198 NA
BRANCH   9   6
ATOM      3  C   UNL     1      -4.934   2.546  25.572  0.00  0.00    +0.139 A 
ATOM      4  C   UNL     1      -4.905   1.789  25.245  0.00  0.00    +0.037 A 
ATOM      5  C   UNL     1      -4.303   1.591  24.717  0.00  0.00    +0.008 A 
ATOM      6  C   UNL     1      -3.729   2.149  24.516  0.00  0.00    +0.055 A 
ATOM      7  C   UNL     1      -3.758   2.906  24.844  0.00  0.00    +0.008 A 
ATOM      8  C   UNL     1      -4.361   3.104  25.372  0.00  0.00    +0.037 A 
BRANCH   3   2
ATOM      1  C   UNL     1      -6.193   2.251  26.181  0.00  0.00    +0.252 C 
ATOM      2  O   UNL     1      -5.536   2.744  26.100  0.00  0.00    -0.471 OA
ENDBRANCH   3   2
ENDBRANCH   9   6
ENDBRANCH  12  11
BRANCH  16  20
ATOM     20  O   UNL     1       0.523   0.192  22.848  0.00  0.00    -0.432 OA
BRANCH  20  21
ATOM     21  C   UNL     1       1.313   0.268  23.075  0.00  0.00    +0.425 C 
ATOM     22  O   UNL     1       1.501   0.562  23.823  0.00  0.00    -0.224 OA
ATOM     23  N   UNL     1       1.915   0.050  22.555  0.00  0.00    -0.142 NA
BRANCH  23  24
ATOM     24  C   UNL     1       2.704   0.126  22.782  0.00  0.00    +0.077 A 
ATOM     25  C   UNL     1       3.091  -0.503  23.149  0.00  0.00    +0.017 A 
ATOM     26  C   UNL     1       3.880  -0.427  23.375  0.00  0.00    +0.004 A 
ATOM     27  C   UNL     1       4.284   0.279  23.235  0.00  0.00    +0.035 A 
ATOM     28  C   UNL     1       3.897   0.909  22.868  0.00  0.00    +0.004 A 
ATOM     29  C   UNL     1       3.107   0.832  22.642  0.00  0.00    +0.017 A 
BRANCH  27  30
ATOM     30  C   UNL     1       5.072   0.356  23.461  0.00  0.00    +0.173 C 
ATOM     31  C   UNL     1       5.652  -0.104  23.097  0.00  0.00    +0.077 C 
ATOM     32  O   UNL     1       5.283   0.893  24.052  0.00  0.00    -0.291 OA
ENDBRANCH  27  30
ENDBRANCH  23  24
ENDBRANCH  20  21
ENDBRANCH  16  20
TORSDOF 7
ENDMDL
MODEL 3
REMARK VINA RESULT:      -6.0     17.102     19.237
REMARK  Name = 
REMARK  7 active torsions:
REMARK  status: ('A' for Active; 'I' for Inactive)
REMARK    1  A    between atoms: O_2  and  C_3
REMARK    2  A    between atoms: C_6  and  C_9
REMARK    3  A    between atoms: N_11  and  C_12
REMARK    4  A    between atoms: C_16  and  O_20
REMARK    5  A    between atoms: O_20  and  C_21
REMARK    6  A    between atoms: N_23  and  C_24
REMARK    7  A    between atoms: C_27  and  C_30
REMARK                            x       y       z     vdW  Elec       q    Type
REMARK                         _______ _______ _______ _____ _____    ______ ____
ROOT
ATOM     12  C   UNL     1      -7.617  -8.313   8.819  0.00  0.00    +0.155 C 
ATOM     13  C   UNL     1      -7.191  -8.515   8.143  0.00  0.00    +0.166 C 
ATOM     14  O   UNL     1      -6.610  -9.058   8.361  0.00  0.00    -0.348 OA
ATOM     15  C   UNL     1      -6.677  -9.192   9.172  0.00  0.00    +0.186 C 
ATOM     16  C   UNL     1      -6.361  -9.610   9.809  0.00  0.00    +0.229 C 
ATOM     17  C   UNL     1      -6.787  -9.408  10.485  0.00  0.00    +0.188 C 
ATOM     18  O   UNL     1      -7.368  -8.864  10.266  0.00  0.00    -0.348 OA
ATOM     19  C   UNL     1      -7.300  -8.731   9.455  0.00  0.00    +0.168 C 
ENDROOT
BRANCH  12  11
ATOM      9  C   UNL     1      -8.185  -7.039   8.505  0.00  0.00    +0.265 C 
ATOM     10  O   UNL     1      -7.486  -6.822   8.123  0.00  0.00    -0.268 OA
ATOM     11  N   UNL     1      -8.251  -7.784   8.853  0.00  0.00    -0.198 NA
BRANCH   9   6
ATOM      3  C   UNL     1     -10.083  -5.455   8.607  0.00  0.00    +0.139 A 
ATOM      4  C   UNL     1      -9.313  -5.171   8.523  0.00  0.00    +0.037 A 
ATOM      5  C   UNL     1      -8.681  -5.699   8.489  0.00  0.00    +0.008 A 
ATOM      6  C   UNL     1      -8.818  -6.511   8.539  0.00  0.00    +0.055 A 
ATOM      7  C   UNL     1      -9.588  -6.795   8.623  0.00  0.00    +0.008 A 
ATOM      8  C   UNL     1     -10.221  -6.267   8.657  0.00  0.00    +0.037 A 
BRANCH   3   2
ATOM      1  C   UNL     1     -10.691  -4.284   9.158  0.00  0.00    +0.252 C 
ATOM      2  O   UNL     1     -10.717  -4.927   8.641  0.00  0.00    -0.471 OA
ENDBRANCH   3   2
ENDBRANCH   9   6
ENDBRANCH  12  11
BRANCH  16  20
ATOM     20  O   UNL     1      -5.727 -10.138   9.775  0.00  0.00    -0.432 OA
BRANCH  20  21
ATOM     21  C   UNL     1      -5.028  -9.972  10.180  0.00  0.00    +0.425 C 
ATOM     22  O   UNL     1      -5.040  -9.462  10.829  0.00  0.00    -0.224 OA
ATOM     23  N   UNL     1      -4.319 -10.314   9.938  0.00  0.00    -0.142 NA
BRANCH  23  24
ATOM     24  C   UNL     1      -3.620 -10.148  10.344  0.00  0.00    +0.077 A 
ATOM     25  C   UNL     1      -3.272  -9.403  10.278  0.00  0.00    +0.017 A 
ATOM     26  C   UNL     1      -2.574  -9.237  10.683  0.00  0.00    +0.004 A 
ATOM     27  C   UNL     1      -2.222  -9.815  11.155  0.00  0.00    +0.035 A 
ATOM     28  C   UNL     1      -2.570 -10.561  11.221  0.00  0.00    +0.004 A 
ATOM     29  C   UNL     1      -3.269 -10.726  10.815  0.00  0.00    +0.017 A 
BRANCH  27  30
ATOM     30  C   UNL     1      -1.524  -9.650  11.560  0.00  0.00    +0.173 C 
ATOM     31  C   UNL     1      -0.916  -9.239  11.183  0.00  0.00    +0.077 C 
ATOM     32  O   UNL     1      -1.433  -9.894  12.344  0.00  0.00    -0.291 OA
ENDBRANCH  27  30
ENDBRANCH  23  24
ENDBRANCH  20  21
ENDBRANCH  16  20
TORSDOF 7
ENDMDL
MODEL 4
REMARK VINA RESULT:      -5.8      1.580      2.420
REMARK  Name = 
REMARK  7 active torsions:
REMARK  status: ('A' for Active; 'I' for Inactive)
REMARK    1  A    between atoms: O_2  and  C_3
REMARK    2  A    between atoms: C_6  and  C_9
REMARK    3  A    between atoms: N_11  and  C_12
REMARK    4  A    between atoms: C_16  and  O_20
REMARK    5  A    between atoms: O_20  and  C_21
REMARK    6  A    between atoms: N_23  and  C_24
REMARK    7  A    between atoms: C_27  and  C_30
REMARK                            x       y       z     vdW  Elec       q    Type
REMARK                         _______ _______ _______ _____ _____    ______ ____
ROOT
ATOM     12  C   UNL     1       0.121   2.133  24.661  0.00  0.00    +0.155 C 
ATOM     13  C   UNL     1      -0.064   1.863  25.418  0.00  0.00    +0.166 C 
ATOM     14  O   UNL     1      -0.722   2.283  25.683  0.00  0.00    -0.348 OA
ATOM     15  C   UNL     1      -0.945   2.811  25.091  0.00  0.00    +0.186 C 
ATOM     16  C   UNL     1      -1.489   3.397  24.888  0.00  0.00    +0.229 C 
ATOM     17  C   UNL     1      -1.304   3.666  24.130  0.00  0.00    +0.188 C 
ATOM     18  O   UNL     1      -0.646   3.247  23.865  0.00  0.00    -0.348 OA
ATOM     19  C   UNL     1      -0.423   2.718  24.459  0.00  0.00    +0.168 C 
ENDROOT
BRANCH  12  11
ATOM      9  C   UNL     1       0.762   1.077  23.941  0.00  0.00    +0.265 C 
ATOM     10  O   UNL     1       0.159   0.559  24.167  0.00  0.00    -0.268 OA
ATOM     11  N   UNL     1       0.742   1.864  24.188  0.00  0.00    -0.198 NA
BRANCH   9   6
ATOM      3  C   UNL     1       2.623   0.269  22.525  0.00  0.00    +0.139 A 
ATOM      4  C   UNL     1       2.742   0.901  23.041  0.00  0.00    +0.037 A 
ATOM      5  C   UNL     1       2.122   1.170  23.513  0.00  0.00    +0.008 A 
ATOM      6  C   UNL     1       1.382   0.807  23.469  0.00  0.00    +0.055 A 
ATOM      7  C   UNL     1       1.262   0.175  22.953  0.00  0.00    +0.008 A 
ATOM      8  C   UNL     1       1.883  -0.094  22.480  0.00  0.00    +0.037 A 
BRANCH   3   2
ATOM      1  C   UNL     1       3.985   0.357  22.101  0.00  0.00    +0.252 C 
ATOM      2  O   UNL     1       3.243  -0.001  22.052  0.00  0.00    -0.471 OA
ENDBRANCH   3   2
ENDBRANCH   9   6
ENDBRANCH  12  11
BRANCH  16  20
ATOM     20  O   UNL     1      -2.110   3.666  25.360  0.00  0.00    -0.432 OA
BRANCH  20  21
ATOM     21  C   UNL     1      -2.880   3.406  25.217  0.00  0.00    +0.425 C 
ATOM     22  O   UNL     1      -3.236   3.553  24.488  0.00  0.00    -0.224 OA
ATOM     23  N   UNL     1      -3.294   3.000  25.804  0.00  0.00    -0.142 NA
BRANCH  23  24
ATOM     24  C   UNL     1      -4.064   2.740  25.661  0.00  0.00    +0.077 A 
ATOM     25  C   UNL     1      -4.704   3.227  25.840  0.00  0.00    +0.017 A 
ATOM     26  C   UNL     1      -5.473   2.968  25.697  0.00  0.00    +0.004 A 
ATOM     27  C   UNL     1      -5.603   2.219  25.375  0.00  0.00    +0.035 A 
ATOM     28  C   UNL     1      -4.962   1.730  25.196  0.00  0.00    +0.004 A 
ATOM     29  C   UNL     1      -4.193   1.991  25.339  0.00  0.00    +0.017 A 
BRANCH  27  30
ATOM     30  C   UNL     1      -6.372   1.958  25.233  0.00  0.00    +0.173 C 
ATOM     31  C   UNL     1      -6.608   1.771  24.464  0.00  0.00    +0.077 C 
ATOM     32  O   UNL     1      -6.906   1.885  25.858  0.00  0.00    -0.291 OA
ENDBRANCH  27  30
ENDBRANCH  23  24
ENDBRANCH  20  21
ENDBRANCH  16  20
TORSDOF 7
ENDMDL
MODEL 5
REMARK VINA RESULT:      -5.5     15.177     17.532
REMARK  Name = 
REMARK  7 active torsions:
REMARK  status: ('A' for Active; 'I' for Inactive)
REMARK    1  A    between atoms: O_2  and  C_3
REMARK    2  A    between atoms: C_6  and  C_9
REMARK    3  A    between atoms: N_11  and  C_12
REMARK    4  A    between atoms: C_16  and  O_20
REMARK    5  A    between atoms: O_20  and  C_21
REMARK    6  A    between atoms: N_23  and  C_24
REMARK    7  A    between atoms: C_27  and  C_30
REMARK                            x       y       z     vdW  Elec       q    Type
REMARK                         _______ _______ _______ _____ _____    ______ ____
ROOT
ATOM     12  C   UNL     1      -8.331  -9.789  14.333  0.00  0.00    +0.155 C 
ATOM     13  C   UNL     1      -8.703  -9.568  13.630  0.00  0.00    +0.166 C 
ATOM     14  O   UNL     1      -8.184  -9.723  13.009  0.00  0.00    -0.348 OA
ATOM     15  C   UNL     1      -7.492 -10.039  13.326  0.00  0.00    +0.186 C 
ATOM     16  C   UNL     1      -6.743 -10.330  13.139  0.00  0.00    +0.229 C 
ATOM     17  C   UNL     1      -6.371 -10.551  13.841  0.00  0.00    +0.188 C 
ATOM     18  O   UNL     1      -6.890 -10.396  14.463  0.00  0.00    -0.348 OA
ATOM     19  C   UNL     1      -7.583 -10.080  14.145  0.00  0.00    +0.168 C 
ENDROOT
BRANCH  12  11
ATOM      9  C   UNL     1      -9.258  -9.190  15.241  0.00  0.00    +0.265 C 
ATOM     10  O   UNL     1      -9.543  -8.710  14.633  0.00  0.00    -0.268 OA
ATOM     11  N   UNL     1      -8.652  -9.729  15.091  0.00  0.00    -0.198 NA
BRANCH   9   6
ATOM      3  C   UNL     1     -10.220  -9.009  17.514  0.00  0.00    +0.139 A 
ATOM      4  C   UNL     1     -10.575  -9.500  16.953  0.00  0.00    +0.037 A 
ATOM      5  C   UNL     1     -10.254  -9.560  16.196  0.00  0.00    +0.008 A 
ATOM      6  C   UNL     1      -9.579  -9.130  15.998  0.00  0.00    +0.055 A 
ATOM      7  C   UNL     1      -9.224  -8.639  16.559  0.00  0.00    +0.008 A 
ATOM      8  C   UNL     1      -9.545  -8.579  17.317  0.00  0.00    +0.037 A 
BRANCH   3   2
ATOM      1  C   UNL     1     -10.686  -9.630  18.714  0.00  0.00    +0.252 C 
ATOM      2  O   UNL     1     -10.541  -8.949  18.272  0.00  0.00    -0.471 OA
ENDBRANCH   3   2
ENDBRANCH   9   6
ENDBRANCH  12  11
BRANCH  16  20
ATOM     20  O   UNL     1      -6.422 -10.390  12.381  0.00  0.00    -0.432 OA
BRANCH  20  21
ATOM     21  C   UNL     1      -5.643 -10.156  12.242  0.00  0.00    +0.425 C 
ATOM     22  O   UNL     1      -5.292  -9.586  12.725  0.00  0.00    -0.224 OA
ATOM     23  N   UNL     1      -5.215 -10.491  11.622  0.00  0.00    -0.142 NA
BRANCH  23  24
ATOM     24  C   UNL     1      -4.436 -10.257  11.484  0.00  0.00    +0.077 A 
ATOM     25  C   UNL     1      -4.277  -9.640  10.961  0.00  0.00    +0.017 A 
ATOM     26  C   UNL     1      -3.499  -9.406  10.823  0.00  0.00    +0.004 A 
ATOM     27  C   UNL     1      -2.878  -9.790  11.208  0.00  0.00    +0.035 A 
ATOM     28  C   UNL     1      -3.037 -10.408  11.732  0.00  0.00    +0.004 A 
ATOM     29  C   UNL     1      -3.816 -10.641  11.869  0.00  0.00    +0.017 A 
BRANCH  27  30
ATOM     30  C   UNL     1      -2.099  -9.557  11.070  0.00  0.00    +0.173 C 
ATOM     31  C   UNL     1      -1.485  -9.895  11.505  0.00  0.00    +0.077 C 
ATOM     32  O   UNL     1      -1.934  -8.986  10.498  0.00  0.00    -0.291 OA
ENDBRANCH  27  30
ENDBRANCH  23  24
ENDBRANCH  20  21
ENDBRANCH  16  20
TORSDOF 7
ENDMDL
MODEL 6
REMARK VINA RESULT:      -5.2      1.871      2.546
REMARK  Name = 
REMARK  7 active torsions:
REMARK  status: ('A' for Active; 'I' for Inactive)
REMARK    1  A    between atoms: O_2  and  C_3
REMARK    2  A    between atoms: C_6  and  C_9
REMARK    3  A    between atoms: N_11  and  C_12
REMARK    4  A    between atoms: C_16  and  O_20
REMARK    5  A    between atoms: O_20  and  C_21
REMARK    6  A    between atoms: N_23  and  C_24
REMARK    7  A    between atoms: C_27  and  C_30
REMARK                            x       y       z     vdW  Elec       q    Type
REMARK                         _______ _______ _______ _____ _____    ______ ____
ROOT
ATOM     12  C   UNL     1       1.299   0.923  23.502  0.00  0.00    +0.155 C 
ATOM     13  C   UNL     1       0.838   0.640  22.879  0.00  0.00    +0.166 C 
ATOM     14  O   UNL     1       0.046   0.760  23.075  0.00  0.00    -0.348 OA
ATOM     15  C   UNL     1       0.017   1.115  23.818  0.00  0.00    +0.186 C 
ATOM     16  C   UNL     1      -0.489   1.410  24.399  0.00  0.00    +0.229 C 
ATOM     17  C   UNL     1      -0.028   1.692  25.021  0.00  0.00    +0.188 C 
ATOM     18  O   UNL     1       0.764   1.573  24.826  0.00  0.00    -0.348 OA
ATOM     19  C   UNL     1       0.792   1.216  24.082  0.00  0.00    +0.168 C 
ENDROOT
BRANCH  12  11
ATOM      9  C   UNL     1       2.552   0.406  23.048  0.00  0.00    +0.265 C 
ATOM     10  O   UNL     1       2.156  -0.092  22.522  0.00  0.00    -0.268 OA
ATOM     11  N   UNL     1       2.124   0.913  23.538  0.00  0.00    -0.198 NA
BRANCH   9   6
ATOM      3  C   UNL     1       5.024   0.376  23.155  0.00  0.00    +0.139 A 
ATOM      4  C   UNL     1       4.636   0.991  22.766  0.00  0.00    +0.037 A 
ATOM      5  C   UNL     1       3.812   1.001  22.730  0.00  0.00    +0.008 A 
ATOM      6  C   UNL     1       3.376   0.396  23.083  0.00  0.00    +0.055 A 
ATOM      7  C   UNL     1       3.764  -0.219  23.472  0.00  0.00    +0.008 A 
ATOM      8  C   UNL     1       4.589  -0.230  23.508  0.00  0.00    +0.037 A 
BRANCH   3   2
ATOM      1  C   UNL     1       6.248  -0.347  23.307  0.00  0.00    +0.252 C 
ATOM      2  O   UNL     1       5.849   0.365  23.191  0.00  0.00    -0.471 OA
ENDBRANCH   3   2
ENDBRANCH   9   6
ENDBRANCH  12  11
BRANCH  16  20
ATOM     20  O   UNL     1      -1.314   1.419  24.363  0.00  0.00    -0.432 OA
BRANCH  20  21
ATOM     21  C   UNL     1      -1.743   0.738  24.543  0.00  0.00    +0.425 C 
ATOM     22  O   UNL     1      -1.709   0.418  25.302  0.00  0.00    -0.224 OA
ATOM     23  N   UNL     1      -2.206   0.377  23.964  0.00  0.00    -0.142 NA
BRANCH  23  24
ATOM     24  C   UNL     1      -2.635  -0.305  24.143  0.00  0.00    +0.077 A 
ATOM     25  C   UNL     1      -2.248  -1.029  24.213  0.00  0.00    +0.017 A 
ATOM     26  C   UNL     1      -2.677  -1.710  24.393  0.00  0.00    +0.004 A 
ATOM     27  C   UNL     1      -3.494  -1.667  24.503  0.00  0.00    +0.035 A 
ATOM     28  C   UNL     1      -3.881  -0.941  24.433  0.00  0.00    +0.004 A 
ATOM     29  C   UNL     1      -3.451  -0.260  24.253  0.00  0.00    +0.017 A 
BRANCH  27  30
ATOM     30  C   UNL     1      -3.923  -2.347  24.682  0.00  0.00    +0.173 C 
ATOM     31  C   UNL     1      -4.453  -2.657  24.131  0.00  0.00    +0.077 C 
ATOM     32  O   UNL     1      -3.824  -2.718  25.413  0.00  0.00    -0.291 OA
ENDBRANCH  27  30
ENDBRANCH  23  24
ENDBRANCH  20  21
ENDBRANCH  16  20
TORSDOF 7
ENDMDL
MODEL 7
REMARK VINA RESULT:      -5.1     15.084     16.966
REMARK  Name = 
REMARK  7 active torsions:
REMARK  status: ('A' for Active; 'I' for Inactive)
REMARK    1  A    between atoms: O_2  and  C_3
REMARK    2  A    between atoms: C_6  and  C_9
REMARK    3  A    between atoms: N_11  and  C_12
REMARK    4  A    between atoms: C_16  and  O_20
REMARK    5  A    between atoms: O_20  and  C_21
REMARK    6  A    between atoms: N_23  and  C_24
REMARK    7  A    between atoms: C_27  and  C_30
REMARK                            x       y       z     vdW  Elec       q    Type
REMARK                         _______ _______ _______ _____ _____    ______ ____
ROOT
ATOM     12  C   UNL     1      -7.774  -9.981  15.438  0.00  0.00    +0.155 C 
ATOM     13  C   UNL     1      -8.388  -9.462  15.254  0.00  0.00    +0.166 C 
ATOM     14  O   UNL     1      -8.398  -9.360  14.435  0.00  0.00    -0.348 OA
ATOM     15  C   UNL     1      -7.790  -9.814  14.114  0.00  0.00    +0.186 C 
ATOM     16  C   UNL     1      -7.419 -10.032  13.410  0.00  0.00    +0.229 C 
ATOM     17  C   UNL     1      -6.805 -10.550  13.594  0.00  0.00    +0.188 C 
ATOM     18  O   UNL     1      -6.795 -10.653  14.412  0.00  0.00    -0.348 OA
ATOM     19  C   UNL     1      -7.404 -10.198  14.734  0.00  0.00    +0.168 C 
ENDROOT
BRANCH  12  11
ATOM      9  C   UNL     1      -7.718  -9.758  16.849  0.00  0.00    +0.265 C 
ATOM     10  O   UNL     1      -8.079  -9.023  16.746  0.00  0.00    -0.268 OA
ATOM     11  N   UNL     1      -7.566 -10.237  16.194  0.00  0.00    -0.198 NA
BRANCH   9   6
ATOM      3  C   UNL     1      -7.095 -10.525  19.117  0.00  0.00    +0.139 A 
ATOM      4  C   UNL     1      -7.888 -10.505  18.892  0.00  0.00    +0.037 A 
ATOM      5  C   UNL     1      -8.096 -10.249  18.136  0.00  0.00    +0.008 A 
ATOM      6  C   UNL     1      -7.511 -10.014  17.605  0.00  0.00    +0.055 A 
ATOM      7  C   UNL     1      -6.717 -10.034  17.829  0.00  0.00    +0.008 A 
ATOM      8  C   UNL     1      -6.509 -10.290  18.586  0.00  0.00    +0.037 A 
BRANCH   3   2
ATOM      1  C   UNL     1      -6.112 -10.690  20.141  0.00  0.00    +0.252 C 
ATOM      2  O   UNL     1      -6.887 -10.781  19.874  0.00  0.00    -0.471 OA
ENDBRANCH   3   2
ENDBRANCH   9   6
ENDBRANCH  12  11
BRANCH  16  20
ATOM     20  O   UNL     1      -7.627  -9.776  12.653  0.00  0.00    -0.432 OA
BRANCH  20  21
ATOM     21  C   UNL     1      -7.064  -9.769  12.050  0.00  0.00    +0.425 C 
ATOM     22  O   UNL     1      -6.757 -10.480  11.765  0.00  0.00    -0.224 OA
ATOM     23  N   UNL     1      -6.807  -9.053  11.733  0.00  0.00    -0.142 NA
BRANCH  23  24
ATOM     24  C   UNL     1      -6.244  -9.046  11.130  0.00  0.00    +0.077 A 
ATOM     25  C   UNL     1      -6.484  -9.038  10.341  0.00  0.00    +0.017 A 
ATOM     26  C   UNL     1      -5.922  -9.031   9.738  0.00  0.00    +0.004 A 
ATOM     27  C   UNL     1      -5.117  -9.033   9.924  0.00  0.00    +0.035 A 
ATOM     28  C   UNL     1      -4.877  -9.041  10.714  0.00  0.00    +0.004 A 
ATOM     29  C   UNL     1      -5.441  -9.047  11.316  0.00  0.00    +0.017 A 
BRANCH  27  30
ATOM     30  C   UNL     1      -4.555  -9.026   9.323  0.00  0.00    +0.173 C 
ATOM     31  C   UNL     1      -4.457  -9.690   8.842  0.00  0.00    +0.077 C 
ATOM     32  O   UNL     1      -4.088  -8.356   9.200  0.00  0.00    -0.291 OA
ENDBRANCH  27  30
ENDBRANCH  23  24
ENDBRANCH  20  21
ENDBRANCH  16  20
TORSDOF 7
ENDMDL
