MODEL 1
REMARK VINA RESULT:     -10.5      0.000      0.000
REMARK  Name = 
REMARK  5 active torsions:
REMARK  status: ('A' for Active; 'I' for Inactive)
REMARK    1  A    between atoms: N_2  and  C_3
REMARK    2  A    between atoms: C_6  and  C_9
REMARK    3  A    between atoms: C_12  and  C_14
REMARK    4  A    between atoms: N_18  and  C_19
REMARK    5  A    between atoms: C_19  and  C_20
REMARK                            x       y       z     vdW  Elec       q    Type
REMARK                         _______ _______ _______ _____ _____    ______ ____
ROOT
ATOM      9  C   UNL     1      -4.172   0.366  24.920  0.00  0.00    +0.205 A 
ATOM     10  N   UNL     1      -4.656   0.729  25.482  0.00  0.00    -0.056 NA
ATOM     11  O   UNL     1      -4.673   1.538  25.319  0.00  0.00    -0.336 OA
ATOM     12  C   UNL     1      -4.200   1.674  24.657  0.00  0.00    +0.251 A 
ATOM     13  N   UNL     1      -3.891   0.950  24.410  0.00  0.00    -0.190 NA
ENDROOT
BRANCH   9   6
ATOM      3  C   UNL     1      -3.657  -2.052  24.788  0.00  0.00    +0.148 A 
ATOM      4  C   UNL     1      -4.025  -1.673  24.155  0.00  0.00    +0.036 A 
ATOM      5  C   UNL     1      -4.197  -0.867  24.199  0.00  0.00    +0.008 A 
ATOM      6  C   UNL     1      -4.001  -0.440  24.876  0.00  0.00    +0.058 A 
ATOM      7  C   UNL     1      -3.633  -0.818  25.511  0.00  0.00    +0.103 A 
ATOM      8  N   UNL     1      -3.461  -1.624  25.467  0.00  0.00    -0.228 NA
BRANCH   3   2
ATOM      1  C   UNL     1      -2.778  -3.110  24.403  0.00  0.00    +0.137 C 
ATOM      2  N   UNL     1      -3.486  -2.857  24.745  0.00  0.00    -0.218 NA
ENDBRANCH   3   2
ENDBRANCH   9   6
BRANCH  12  14
ATOM     14  C   UNL     1      -4.061   2.406  24.303  0.00  0.00    +0.138 C 
ATOM     15  C   UNL     1      -4.518   2.752  23.708  0.00  0.00    +0.027 C 
ATOM     16  C   UNL     1      -4.181   3.480  23.519  0.00  0.00    +0.019 C 
ATOM     17  C   UNL     1      -3.515   3.585  23.996  0.00  0.00    +0.073 C 
ATOM     18  N   UNL     1      -3.442   2.921  24.481  0.00  0.00    -0.263 NA
BRANCH  18  19
ATOM     19  C   UNL     1      -2.852   2.795  25.044  0.00  0.00    +0.101 C 
BRANCH  19  20
ATOM     20  C   UNL     1      -2.187   3.282  25.061  0.00  0.00    +0.013 A 
ATOM     21  C   UNL     1      -2.198   3.979  25.502  0.00  0.00    +0.000 A 
ATOM     22  C   UNL     1      -1.532   4.467  25.520  0.00  0.00    +0.020 A 
ATOM     23  C   UNL     1      -0.856   4.256  25.096  0.00  0.00    +0.099 A 
ATOM     24  N   UNL     1      -0.846   3.559  24.656  0.00  0.00    -0.243 NA
ATOM     25  C   UNL     1      -1.511   3.072  24.638  0.00  0.00    +0.096 A 
ENDBRANCH  19  20
ENDBRANCH  18  19
ENDBRANCH  12  14
TORSDOF 5
ENDMDL
MODEL 2
REMARK VINA RESULT:      -9.6      1.712      2.544
REMARK  Name = 
REMARK  5 active torsions:
REMARK  status: ('A' for Active; 'I' for Inactive)
REMARK    1  A    between atoms: N_2  and  C_3
REMARK    2  A    between atoms: C_6  and  C_9
REMARK    3  A    between atoms: C_12  and  C_14
REMARK    4  A    between atoms: N_18  and  C_19
REMARK    5  A    between atoms: C_19  and  C_20
REMARK                            x       y       z     vdW  Elec       q    Type
REMARK                         _______ _______ _______ _____ _____    ______ ____
ROOT
ATOM      9  C   UNL     1      -1.689  -0.518  25.239  0.00  0.00    +0.205 A 
ATOM     10  N   UNL     1      -1.311  -0.422  25.967  0.00  0.00    -0.056 NA
ATOM     11  O   UNL     1      -0.862   0.269  25.932  0.00  0.00    -0.336 OA
ATOM     12  C   UNL     1      -0.963   0.601  25.183  0.00  0.00    +0.251 A 
ATOM     13  N   UNL     1      -1.474   0.114  24.755  0.00  0.00    -0.190 NA
ENDROOT
BRANCH   9   6
ATOM      3  C   UNL     1      -3.203  -2.376  24.620  0.00  0.00    +0.148 A 
ATOM      4  C   UNL     1      -3.503  -1.707  24.999  0.00  0.00    +0.036 A 
ATOM      5  C   UNL     1      -2.998  -1.088  25.205  0.00  0.00    +0.008 A 
ATOM      6  C   UNL     1      -2.194  -1.137  25.033  0.00  0.00    +0.058 A 
ATOM      7  C   UNL     1      -1.892  -1.806  24.655  0.00  0.00    +0.103 A 
ATOM      8  N   UNL     1      -2.397  -2.425  24.448  0.00  0.00    -0.228 NA
BRANCH   3   2
ATOM      1  C   UNL     1      -4.287  -2.880  23.838  0.00  0.00    +0.137 C 
ATOM      2  N   UNL     1      -3.707  -2.995  24.414  0.00  0.00    -0.218 NA
ENDBRANCH   3   2
ENDBRANCH   9   6
BRANCH  12  14
ATOM     14  C   UNL     1      -0.614   1.296  24.910  0.00  0.00    +0.138 C 
ATOM     15  C   UNL     1       0.087   1.350  24.478  0.00  0.00    +0.027 C 
ATOM     16  C   UNL     1       0.230   2.147  24.321  0.00  0.00    +0.019 C 
ATOM     17  C   UNL     1      -0.383   2.586  24.656  0.00  0.00    +0.073 C 
ATOM     18  N   UNL     1      -0.904   2.061  25.020  0.00  0.00    -0.263 NA
BRANCH  18  19
ATOM     19  C   UNL     1      -1.595   2.264  25.423  0.00  0.00    +0.101 C 
BRANCH  19  20
ATOM     20  C   UNL     1      -1.927   3.012  25.322  0.00  0.00    +0.013 A 
ATOM     21  C   UNL     1      -1.686   3.638  25.800  0.00  0.00    +0.000 A 
ATOM     22  C   UNL     1      -2.018   4.387  25.699  0.00  0.00    +0.020 A 
ATOM     23  C   UNL     1      -2.592   4.508  25.118  0.00  0.00    +0.099 A 
ATOM     24  N   UNL     1      -2.833   3.881  24.640  0.00  0.00    -0.243 NA
ATOM     25  C   UNL     1      -2.501   3.133  24.741  0.00  0.00    +0.096 A 
ENDBRANCH  19  20
ENDBRANCH  18  19
ENDBRANCH  12  14
TORSDOF 5
ENDMDL
MODEL 3
REMARK VINA RESULT:      -9.4      1.918      5.456
REMARK  Name = 
REMARK  5 active torsions:
REMARK  status: ('A' for Active; 'I' for Inactive)
REMARK    1  A    between atoms: N_2  and  C_3
REMARK    2  A    between atoms: C_6  and  C_9
REMARK    3  A    between atoms: C_12  and  C_14
REMARK    4  A    between atoms: N_18  and  C_19
REMARK    5  A    between atoms: C_19  and  C_20
REMARK                            x       y       z     vdW  Elec       q    Type
REMARK                         _______ _______ _______ _____ _____    ______ ____
ROOT
ATOM      9  C   UNL     1      -1.178   1.611  25.432  0.00  0.00    +0.205 A 
ATOM     10  N   UNL     1      -0.978   1.220  26.131  0.00  0.00    -0.056 NA
ATOM     11  O   UNL     1      -0.880   0.419  25.957  0.00  0.00    -0.336 OA
ATOM     12  C   UNL     1      -1.019   0.316  25.150  0.00  0.00    +0.251 A 
ATOM     13  N   UNL     1      -1.203   1.052  24.826  0.00  0.00    -0.190 NA
ENDROOT
BRANCH   9   6
ATOM      3  C   UNL     1      -1.624   4.034  25.197  0.00  0.00    +0.148 A 
ATOM      4  C   UNL     1      -0.858   3.768  25.348  0.00  0.00    +0.036 A 
ATOM      5  C   UNL     1      -0.709   2.960  25.426  0.00  0.00    +0.008 A 
ATOM      6  C   UNL     1      -1.327   2.419  25.354  0.00  0.00    +0.058 A 
ATOM      7  C   UNL     1      -2.093   2.684  25.203  0.00  0.00    +0.103 A 
ATOM      8  N   UNL     1      -2.242   3.492  25.125  0.00  0.00    -0.228 NA
BRANCH   3   2
ATOM      1  C   UNL     1      -1.150   5.362  24.963  0.00  0.00    +0.137 C 
ATOM      2  N   UNL     1      -1.772   4.842  25.119  0.00  0.00    -0.218 NA
ENDBRANCH   3   2
ENDBRANCH   9   6
BRANCH  12  14
ATOM     14  C   UNL     1      -0.980  -0.398  24.739  0.00  0.00    +0.138 C 
ATOM     15  C   UNL     1      -0.326  -0.686  24.327  0.00  0.00    +0.027 C 
ATOM     16  C   UNL     1      -0.530  -1.416  24.001  0.00  0.00    +0.019 C 
ATOM     17  C   UNL     1      -1.311  -1.579  24.211  0.00  0.00    +0.073 C 
ATOM     18  N   UNL     1      -1.589  -0.950  24.668  0.00  0.00    -0.263 NA
BRANCH  18  19
ATOM     19  C   UNL     1      -2.344  -0.885  24.994  0.00  0.00    +0.101 C 
BRANCH  19  20
ATOM     20  C   UNL     1      -2.950  -1.379  24.733  0.00  0.00    +0.013 A 
ATOM     21  C   UNL     1      -3.488  -1.108  24.169  0.00  0.00    +0.000 A 
ATOM     22  C   UNL     1      -4.096  -1.602  23.908  0.00  0.00    +0.020 A 
ATOM     23  C   UNL     1      -4.165  -2.366  24.211  0.00  0.00    +0.099 A 
ATOM     24  N   UNL     1      -3.627  -2.637  24.774  0.00  0.00    -0.243 NA
ATOM     25  C   UNL     1      -3.020  -2.143  25.036  0.00  0.00    +0.096 A 
ENDBRANCH  19  20
ENDBRANCH  18  19
ENDBRANCH  12  14
TORSDOF 5
ENDMDL
MODEL 4
REMARK VINA RESULT:      -9.4      0.893      5.032
REMARK  Name = 
REMARK  5 active torsions:
REMARK  status: ('A' for Active; 'I' for Inactive)
REMARK    1  A    between atoms: N_2  and  C_3
REMARK    2  A    between atoms: C_6  and  C_9
REMARK    3  A    between atoms: C_12  and  C_14
REMARK    4  A    between atoms: N_18  and  C_19
REMARK    5  A    between atoms: C_19  and  C_20
REMARK                            x       y       z     vdW  Elec       q    Type
REMARK                         _______ _______ _______ _____ _____    ______ ____
ROOT
ATOM      9  C   UNL     1      -2.856   2.630  24.335  0.00  0.00    +0.205 A 
ATOM     10  N   UNL     1      -3.045   2.385  23.570  0.00  0.00    -0.056 NA
ATOM     11  O   UNL     1      -3.637   1.813  23.624  0.00  0.00    -0.336 OA
ATOM     12  C   UNL     1      -3.814   1.704  24.423  0.00  0.00    +0.251 A 
ATOM     13  N   UNL     1      -3.331   2.210  24.862  0.00  0.00    -0.190 NA
ENDROOT
BRANCH   9   6
ATOM      3  C   UNL     1      -1.161   4.329  24.941  0.00  0.00    +0.148 A 
ATOM      4  C   UNL     1      -1.955   4.452  25.130  0.00  0.00    +0.036 A 
ATOM      5  C   UNL     1      -2.520   3.885  24.928  0.00  0.00    +0.008 A 
ATOM      6  C   UNL     1      -2.291   3.197  24.537  0.00  0.00    +0.058 A 
ATOM      7  C   UNL     1      -1.498   3.073  24.348  0.00  0.00    +0.103 A 
ATOM      8  N   UNL     1      -0.933   3.639  24.550  0.00  0.00    -0.228 NA
BRANCH   3   2
ATOM      1  C   UNL     1      -0.613   5.639  24.787  0.00  0.00    +0.137 C 
ATOM      2  N   UNL     1      -0.597   4.896  25.143  0.00  0.00    -0.218 NA
ENDBRANCH   3   2
ENDBRANCH   9   6
BRANCH  12  14
ATOM     14  C   UNL     1      -4.375   1.183  24.729  0.00  0.00    +0.138 C 
ATOM     15  C   UNL     1      -5.105   1.391  25.052  0.00  0.00    +0.027 C 
ATOM     16  C   UNL     1      -5.486   0.699  25.288  0.00  0.00    +0.019 C 
ATOM     17  C   UNL     1      -4.991   0.062  25.112  0.00  0.00    +0.073 C 
ATOM     18  N   UNL     1      -4.304   0.362  24.766  0.00  0.00    -0.263 NA
BRANCH  18  19
ATOM     19  C   UNL     1      -3.660  -0.082  24.504  0.00  0.00    +0.101 C 
BRANCH  19  20
ATOM     20  C   UNL     1      -3.662  -0.902  24.591  0.00  0.00    +0.013 A 
ATOM     21  C   UNL     1      -3.941  -1.382  23.981  0.00  0.00    +0.000 A 
ATOM     22  C   UNL     1      -3.942  -2.202  24.068  0.00  0.00    +0.020 A 
ATOM     23  C   UNL     1      -3.664  -2.543  24.766  0.00  0.00    +0.099 A 
ATOM     24  N   UNL     1      -3.384  -2.063  25.376  0.00  0.00    -0.243 NA
ATOM     25  C   UNL     1      -3.383  -1.244  25.289  0.00  0.00    +0.096 A 
ENDBRANCH  19  20
ENDBRANCH  18  19
ENDBRANCH  12  14
TORSDOF 5
ENDMDL
MODEL 5
REMARK VINA RESULT:      -9.2      1.691      5.006
REMARK  Name = 
REMARK  5 active torsions:
REMARK  status: ('A' for Active; 'I' for Inactive)
REMARK    1  A    between atoms: N_2  and  C_3
REMARK    2  A    between atoms: C_6  and  C_9
REMARK    3  A    between atoms: C_12  and  C_14
REMARK    4  A    between atoms: N_18  and  C_19
REMARK    5  A    between atoms: C_19  and  C_20
REMARK                            x       y       z     vdW  Elec       q    Type
REMARK                         _______ _______ _______ _____ _____    ______ ____
ROOT
ATOM      9  C   UNL     1      -3.622   1.993  24.471  0.00  0.00    +0.205 A 
ATOM     10  N   UNL     1      -3.411   1.982  23.673  0.00  0.00    -0.056 NA
ATOM     11  O   UNL     1      -2.864   1.374  23.562  0.00  0.00    -0.336 OA
ATOM     12  C   UNL     1      -2.738   1.009  24.291  0.00  0.00    +0.251 A 
ATOM     13  N   UNL     1      -3.206   1.391  24.853  0.00  0.00    -0.190 NA
ENDROOT
BRANCH   9   6
ATOM      3  C   UNL     1      -5.221   3.556  25.532  0.00  0.00    +0.148 A 
ATOM      4  C   UNL     1      -5.483   2.827  25.249  0.00  0.00    +0.036 A 
ATOM      5  C   UNL     1      -4.949   2.306  24.895  0.00  0.00    +0.008 A 
ATOM      6  C   UNL     1      -4.155   2.514  24.825  0.00  0.00    +0.058 A 
ATOM      7  C   UNL     1      -3.892   3.243  25.108  0.00  0.00    +0.103 A 
ATOM      8  N   UNL     1      -4.425   3.764  25.462  0.00  0.00    -0.228 NA
BRANCH   3   2
ATOM      1  C   UNL     1      -5.978   4.767  25.493  0.00  0.00    +0.137 C 
ATOM      2  N   UNL     1      -5.754   4.077  25.886  0.00  0.00    -0.218 NA
ENDBRANCH   3   2
ENDBRANCH   9   6
BRANCH  12  14
ATOM     14  C   UNL     1      -2.233   0.373  24.433  0.00  0.00    +0.138 C 
ATOM     15  C   UNL     1      -1.408   0.394  24.409  0.00  0.00    +0.027 C 
ATOM     16  C   UNL     1      -1.128  -0.362  24.586  0.00  0.00    +0.019 C 
ATOM     17  C   UNL     1      -1.780  -0.850  24.719  0.00  0.00    +0.073 C 
ATOM     18  N   UNL     1      -2.462  -0.396  24.625  0.00  0.00    -0.263 NA
BRANCH  18  19
ATOM     19  C   UNL     1      -3.238  -0.664  24.708  0.00  0.00    +0.101 C 
BRANCH  19  20
ATOM     20  C   UNL     1      -3.403  -1.470  24.658  0.00  0.00    +0.013 A 
ATOM     21  C   UNL     1      -3.689  -1.790  23.953  0.00  0.00    +0.000 A 
ATOM     22  C   UNL     1      -3.855  -2.597  23.903  0.00  0.00    +0.020 A 
ATOM     23  C   UNL     1      -3.735  -3.084  24.558  0.00  0.00    +0.099 A 
ATOM     24  N   UNL     1      -3.449  -2.764  25.263  0.00  0.00    -0.243 NA
ATOM     25  C   UNL     1      -3.283  -1.958  25.313  0.00  0.00    +0.096 A 
ENDBRANCH  19  20
ENDBRANCH  18  19
ENDBRANCH  12  14
TORSDOF 5
ENDMDL
MODEL 6
REMARK VINA RESULT:      -9.1      1.935      2.918
REMARK  Name = 
REMARK  5 active torsions:
REMARK  status: ('A' for Active; 'I' for Inactive)
REMARK    1  A    between atoms: N_2  and  C_3
REMARK    2  A    between atoms: C_6  and  C_9
REMARK    3  A    between atoms: C_12  and  C_14
REMARK    4  A    between atoms: N_18  and  C_19
REMARK    5  A    between atoms: C_19  and  C_20
REMARK                            x       y       z     vdW  Elec       q    Type
REMARK                         _______ _______ _______ _____ _____    ______ ____
ROOT
ATOM      9  C   UNL     1      -1.556   0.984  24.477  0.00  0.00    +0.205 A 
ATOM     10  N   UNL     1      -1.385   1.440  23.811  0.00  0.00    -0.056 NA
ATOM     11  O   UNL     1      -1.555   2.228  23.991  0.00  0.00    -0.336 OA
ATOM     12  C   UNL     1      -1.831   2.258  24.768  0.00  0.00    +0.251 A 
ATOM     13  N   UNL     1      -1.832   1.489  25.068  0.00  0.00    -0.190 NA
ENDROOT
BRANCH   9   6
ATOM      3  C   UNL     1      -1.290  -1.469  24.667  0.00  0.00    +0.148 A 
ATOM      4  C   UNL     1      -2.043  -1.134  24.677  0.00  0.00    +0.036 A 
ATOM      5  C   UNL     1      -2.132  -0.316  24.614  0.00  0.00    +0.008 A 
ATOM      6  C   UNL     1      -1.468   0.166  24.540  0.00  0.00    +0.058 A 
ATOM      7  C   UNL     1      -0.713  -0.169  24.530  0.00  0.00    +0.103 A 
ATOM      8  N   UNL     1      -0.625  -0.986  24.593  0.00  0.00    -0.228 NA
BRANCH   3   2
ATOM      1  C   UNL     1      -1.812  -2.788  24.489  0.00  0.00    +0.137 C 
ATOM      2  N   UNL     1      -1.201  -2.287  24.730  0.00  0.00    -0.218 NA
ENDBRANCH   3   2
ENDBRANCH   9   6
BRANCH  12  14
ATOM     14  C   UNL     1      -2.066   2.936  25.174  0.00  0.00    +0.138 C 
ATOM     15  C   UNL     1      -1.584   3.407  25.651  0.00  0.00    +0.027 C 
ATOM     16  C   UNL     1      -2.043   4.025  25.946  0.00  0.00    +0.019 C 
ATOM     17  C   UNL     1      -2.809   3.938  25.651  0.00  0.00    +0.073 C 
ATOM     18  N   UNL     1      -2.823   3.264  25.174  0.00  0.00    -0.263 NA
BRANCH  18  19
ATOM     19  C   UNL     1      -3.478   2.971  24.768  0.00  0.00    +0.101 C 
BRANCH  19  20
ATOM     20  C   UNL     1      -4.236   3.087  25.071  0.00  0.00    +0.013 A 
ATOM     21  C   UNL     1      -4.641   2.460  25.422  0.00  0.00    +0.000 A 
ATOM     22  C   UNL     1      -5.400   2.577  25.725  0.00  0.00    +0.020 A 
ATOM     23  C   UNL     1      -5.754   3.321  25.676  0.00  0.00    +0.099 A 
ATOM     24  N   UNL     1      -5.349   3.947  25.325  0.00  0.00    -0.243 NA
ATOM     25  C   UNL     1      -4.591   3.831  25.023  0.00  0.00    +0.096 A 
ENDBRANCH  19  20
ENDBRANCH  18  19
ENDBRANCH  12  14
TORSDOF 5
ENDMDL
MODEL 7
REMARK VINA RESULT:      -9.0      2.499      4.115
REMARK  Name = 
REMARK  5 active torsions:
REMARK  status: ('A' for Active; 'I' for Inactive)
REMARK    1  A    between atoms: N_2  and  C_3
REMARK    2  A    between atoms: C_6  and  C_9
REMARK    3  A    between atoms: C_12  and  C_14
REMARK    4  A    between atoms: N_18  and  C_19
REMARK    5  A    between atoms: C_19  and  C_20
REMARK                            x       y       z     vdW  Elec       q    Type
REMARK                         _______ _______ _______ _____ _____    ______ ____
ROOT
ATOM      9  C   UNL     1      -3.078   3.003  24.977  0.00  0.00    +0.205 A 
ATOM     10  N   UNL     1      -2.732   3.606  24.532  0.00  0.00    -0.056 NA
ATOM     11  O   UNL     1      -1.912   3.537  24.604  0.00  0.00    -0.336 OA
ATOM     12  C   UNL     1      -1.753   2.892  25.093  0.00  0.00    +0.251 A 
ATOM     13  N   UNL     1      -2.473   2.562  25.323  0.00  0.00    -0.190 NA
ENDROOT
BRANCH   9   6
ATOM      3  C   UNL     1      -5.506   2.590  25.225  0.00  0.00    +0.148 A 
ATOM      4  C   UNL     1      -5.054   2.110  24.730  0.00  0.00    +0.036 A 
ATOM      5  C   UNL     1      -4.244   2.247  24.648  0.00  0.00    +0.008 A 
ATOM      6  C   UNL     1      -3.887   2.865  25.059  0.00  0.00    +0.058 A 
ATOM      7  C   UNL     1      -4.338   3.347  25.555  0.00  0.00    +0.103 A 
ATOM      8  N   UNL     1      -5.148   3.210  25.638  0.00  0.00    -0.228 NA
BRANCH   3   2
ATOM      1  C   UNL     1      -6.628   1.713  25.121  0.00  0.00    +0.137 C 
ATOM      2  N   UNL     1      -6.315   2.453  25.308  0.00  0.00    -0.218 NA
ENDBRANCH   3   2
ENDBRANCH   9   6
BRANCH  12  14
ATOM     14  C   UNL     1      -1.004   2.624  25.314  0.00  0.00    +0.138 C 
ATOM     15  C   UNL     1      -0.553   2.909  25.943  0.00  0.00    +0.027 C 
ATOM     16  C   UNL     1       0.154   2.486  25.963  0.00  0.00    +0.019 C 
ATOM     17  C   UNL     1       0.141   1.939  25.345  0.00  0.00    +0.073 C 
ATOM     18  N   UNL     1      -0.575   2.025  24.944  0.00  0.00    -0.263 NA
BRANCH  18  19
ATOM     19  C   UNL     1      -0.819   1.587  24.288  0.00  0.00    +0.101 C 
BRANCH  19  20
ATOM     20  C   UNL     1      -0.470   0.859  24.125  0.00  0.00    +0.013 A 
ATOM     21  C   UNL     1      -0.743   0.177  24.501  0.00  0.00    +0.000 A 
ATOM     22  C   UNL     1      -0.394  -0.553  24.338  0.00  0.00    +0.020 A 
ATOM     23  C   UNL     1       0.229  -0.600  23.799  0.00  0.00    +0.099 A 
ATOM     24  N   UNL     1       0.502   0.082  23.423  0.00  0.00    -0.243 NA
ATOM     25  C   UNL     1       0.153   0.811  23.586  0.00  0.00    +0.096 A 
ENDBRANCH  19  20
ENDBRANCH  18  19
ENDBRANCH  12  14
TORSDOF 5
ENDMDL
