MODEL 1
REMARK VINA RESULT:     -11.3      0.000      0.000
REMARK  Name = 
REMARK  8 active torsions:
REMARK  status: ('A' for Active; 'I' for Inactive)
REMARK    1  A    between atoms: C_2  and  C_4
REMARK    2  A    between atoms: C_6  and  C_7
REMARK    3  A    between atoms: C_7  and  C_8
REMARK    4  A    between atoms: N_10  and  C_12
REMARK    5  A    between atoms: C_12  and  C_13
REMARK    6  A    between atoms: C_22  and  C_23
REMARK    7  A    between atoms: C_23  and  N_24
REMARK    8  A    between atoms: C_25  and  C_27
REMARK                            x       y       z     vdW  Elec       q    Type
REMARK                         _______ _______ _______ _____ _____    ______ ____
ROOT
ATOM      4  C   UNL     1      -2.714   0.771  24.404  0.00  0.00    +0.006 C 
ATOM      5  C   UNL     1      -2.053   1.262  24.472  0.00  0.00    +0.005 C 
ATOM      6  C   UNL     1      -1.305   0.931  24.577  0.00  0.00    +0.027 C 
ATOM     19  C   UNL     1      -1.216   0.112  24.613  0.00  0.00    -0.048 C 
ATOM     20  C   UNL     1      -0.468  -0.217  24.718  0.00  0.00    +0.026 C 
ATOM     21  C   UNL     1      -1.876  -0.377  24.545  0.00  0.00    -0.033 C 
ATOM     22  C   UNL     1      -2.625  -0.048  24.440  0.00  0.00    +0.043 C 
ENDROOT
BRANCH   4   2
ATOM      1  C   UNL     1      -3.713   1.325  23.545  0.00  0.00    +0.000 C 
ATOM      2  C   UNL     1      -3.463   1.102  24.299  0.00  0.00    +0.000 C 
ATOM      3  C   UNL     1      -3.961   1.209  24.947  0.00  0.00    +0.000 C 
ENDBRANCH   4   2
BRANCH   6   7
ATOM      7  C   UNL     1      -0.645   1.422  24.645  0.00  0.00    +0.089 C 
BRANCH   7   8
ATOM      8  C   UNL     1      -0.643   2.037  25.196  0.00  0.00    +0.226 C 
ATOM      9  O   UNL     1      -0.809   1.881  25.989  0.00  0.00    -0.275 OA
ATOM     10  N   UNL     1      -0.476   2.808  24.952  0.00  0.00    -0.274 N 
ATOM     11  C   UNL     1      -0.311   2.964  24.160  0.00  0.00    +0.115 C 
BRANCH  10  12
ATOM     12  C   UNL     1      -0.475   3.422  25.503  0.00  0.00    +0.120 C 
BRANCH  12  13
ATOM     13  C   UNL     1      -0.886   4.119  25.343  0.00  0.00    -0.002 A 
ATOM     14  C   UNL     1      -0.527   4.720  24.908  0.00  0.00    -0.003 A 
ATOM     15  C   UNL     1      -0.939   5.417  24.748  0.00  0.00    -0.000 A 
ATOM     16  C   UNL     1      -1.711   5.512  25.023  0.00  0.00    -0.000 A 
ATOM     17  C   UNL     1      -2.070   4.911  25.457  0.00  0.00    -0.000 A 
ATOM     18  C   UNL     1      -1.659   4.214  25.618  0.00  0.00    -0.003 A 
ENDBRANCH  12  13
ENDBRANCH  10  12
ENDBRANCH   7   8
ENDBRANCH   6   7
BRANCH  22  23
ATOM     23  C   UNL     1      -3.285  -0.537  24.372  0.00  0.00    +0.119 C 
BRANCH  23  24
ATOM     24  N   UNL     1      -3.197  -1.357  24.407  0.00  0.00    -0.205 NA
ATOM     25  C   UNL     1      -3.855  -1.847  24.320  0.00  0.00    +0.240 C 
ATOM     26  O   UNL     1      -4.601  -1.518  24.198  0.00  0.00    -0.273 OA
BRANCH  25  27
ATOM     27  C   UNL     1      -3.766  -2.667  24.354  0.00  0.00    +0.071 C 
ATOM     28  C   UNL     1      -3.677  -3.486  24.389  0.00  0.00    +0.009 C 
ATOM     29  C   UNL     1      -3.521  -2.607  25.140  0.00  0.00    +0.009 C 
ATOM     30  C   UNL     1      -4.011  -2.727  23.569  0.00  0.00    +0.009 C 
ENDBRANCH  25  27
ENDBRANCH  23  24
ENDBRANCH  22  23
TORSDOF 8
ENDMDL
MODEL 2
REMARK VINA RESULT:     -11.2      1.030      5.843
REMARK  Name = 
REMARK  8 active torsions:
REMARK  status: ('A' for Active; 'I' for Inactive)
REMARK    1  A    between atoms: C_2  and  C_4
REMARK    2  A    between atoms: C_6  and  C_7
REMARK    3  A    between atoms: C_7  and  C_8
REMARK    4  A    between atoms: N_10  and  C_12
REMARK    5  A    between atoms: C_12  and  C_13
REMARK    6  A    between atoms: C_22  and  C_23
REMARK    7  A    between atoms: C_23  and  N_24
REMARK    8  A    between atoms: C_25  and  C_27
REMARK                            x       y       z     vdW  Elec       q    Type
REMARK                         _______ _______ _______ _____ _____    ______ ____
ROOT
ATOM      4  C   UNL     1      -2.030   1.573  24.674  0.00  0.00    +0.006 C 
ATOM      5  C   UNL     1      -2.644   1.065  24.462  0.00  0.00    +0.005 C 
ATOM      6  C   UNL     1      -3.400   1.366  24.326  0.00  0.00    +0.027 C 
ATOM     19  C   UNL     1      -3.542   2.175  24.402  0.00  0.00    -0.048 C 
ATOM     20  C   UNL     1      -4.297   2.476  24.266  0.00  0.00    +0.026 C 
ATOM     21  C   UNL     1      -2.928   2.683  24.614  0.00  0.00    -0.033 C 
ATOM     22  C   UNL     1      -2.171   2.383  24.750  0.00  0.00    +0.043 C 
ENDROOT
BRANCH   4   2
ATOM      1  C   UNL     1      -1.045   1.063  25.575  0.00  0.00    +0.000 C 
ATOM      2  C   UNL     1      -1.274   1.272  24.810  0.00  0.00    +0.000 C 
ATOM      3  C   UNL     1      -0.748   1.179  24.183  0.00  0.00    +0.000 C 
ENDBRANCH   4   2
BRANCH   6   7
ATOM      7  C   UNL     1      -4.014   0.858  24.114  0.00  0.00    +0.089 C 
BRANCH   7   8
ATOM      8  C   UNL     1      -4.193   0.207  24.589  0.00  0.00    +0.226 C 
ATOM      9  O   UNL     1      -4.353   0.314  25.391  0.00  0.00    -0.275 OA
ATOM     10  N   UNL     1      -4.211  -0.551  24.262  0.00  0.00    -0.274 N 
ATOM     11  C   UNL     1      -4.051  -0.658  23.461  0.00  0.00    +0.115 C 
BRANCH  10  12
ATOM     12  C   UNL     1      -4.390  -1.201  24.738  0.00  0.00    +0.120 C 
BRANCH  12  13
ATOM     13  C   UNL     1      -3.956  -1.898  24.661  0.00  0.00    -0.002 A 
ATOM     14  C   UNL     1      -4.113  -2.415  24.039  0.00  0.00    -0.003 A 
ATOM     15  C   UNL     1      -3.679  -3.113  23.963  0.00  0.00    -0.000 A 
ATOM     16  C   UNL     1      -3.088  -3.292  24.510  0.00  0.00    -0.000 A 
ATOM     17  C   UNL     1      -2.931  -2.775  25.132  0.00  0.00    -0.000 A 
ATOM     18  C   UNL     1      -3.365  -2.078  25.209  0.00  0.00    -0.003 A 
ENDBRANCH  12  13
ENDBRANCH  10  12
ENDBRANCH   7   8
ENDBRANCH   6   7
BRANCH  22  23
ATOM     23  C   UNL     1      -1.557   2.890  24.962  0.00  0.00    +0.119 C 
BRANCH  23  24
ATOM     24  N   UNL     1      -1.616   3.697  24.802  0.00  0.00    -0.205 NA
ATOM     25  C   UNL     1      -1.076   4.225  25.136  0.00  0.00    +0.240 C 
ATOM     26  O   UNL     1      -0.478   3.944  25.630  0.00  0.00    -0.273 OA
BRANCH  25  27
ATOM     27  C   UNL     1      -1.134   5.032  24.976  0.00  0.00    +0.071 C 
ATOM     28  C   UNL     1      -1.193   5.839  24.816  0.00  0.00    +0.009 C 
ATOM     29  C   UNL     1      -0.482   4.980  24.474  0.00  0.00    +0.009 C 
ATOM     30  C   UNL     1      -1.787   5.084  25.478  0.00  0.00    +0.009 C 
ENDBRANCH  25  27
ENDBRANCH  23  24
ENDBRANCH  22  23
TORSDOF 8
ENDMDL
MODEL 3
REMARK VINA RESULT:     -11.2      1.138      2.091
REMARK  Name = 
REMARK  8 active torsions:
REMARK  status: ('A' for Active; 'I' for Inactive)
REMARK    1  A    between atoms: C_2  and  C_4
REMARK    2  A    between atoms: C_6  and  C_7
REMARK    3  A    between atoms: C_7  and  C_8
REMARK    4  A    between atoms: N_10  and  C_12
REMARK    5  A    between atoms: C_12  and  C_13
REMARK    6  A    between atoms: C_22  and  C_23
REMARK    7  A    between atoms: C_23  and  N_24
REMARK    8  A    between atoms: C_25  and  C_27
REMARK                            x       y       z     vdW  Elec       q    Type
REMARK                         _______ _______ _______ _____ _____    ______ ____
ROOT
ATOM      4  C   UNL     1      -2.544   0.714  24.634  0.00  0.00    +0.006 C 
ATOM      5  C   UNL     1      -2.793   1.496  24.723  0.00  0.00    +0.005 C 
ATOM      6  C   UNL     1      -3.598   1.667  24.787  0.00  0.00    +0.027 C 
ATOM     19  C   UNL     1      -4.153   1.057  24.761  0.00  0.00    -0.048 C 
ATOM     20  C   UNL     1      -4.956   1.228  24.825  0.00  0.00    +0.026 C 
ATOM     21  C   UNL     1      -3.903   0.276  24.672  0.00  0.00    -0.033 C 
ATOM     22  C   UNL     1      -3.099   0.104  24.608  0.00  0.00    +0.043 C 
ENDROOT
BRANCH   4   2
ATOM      1  C   UNL     1      -1.361   0.606  23.839  0.00  0.00    +0.000 C 
ATOM      2  C   UNL     1      -1.739   0.543  24.570  0.00  0.00    +0.000 C 
ATOM      3  C   UNL     1      -1.313   0.309  25.235  0.00  0.00    +0.000 C 
ENDBRANCH   4   2
BRANCH   6   7
ATOM      7  C   UNL     1      -3.846   2.448  24.877  0.00  0.00    +0.089 C 
BRANCH   7   8
ATOM      8  C   UNL     1      -3.437   2.955  25.384  0.00  0.00    +0.226 C 
ATOM      9  O   UNL     1      -3.309   2.737  26.170  0.00  0.00    -0.275 OA
ATOM     10  N   UNL     1      -3.157   3.680  25.106  0.00  0.00    -0.274 N 
ATOM     11  C   UNL     1      -3.284   3.897  24.321  0.00  0.00    +0.115 C 
BRANCH  10  12
ATOM     12  C   UNL     1      -2.748   4.186  25.613  0.00  0.00    +0.120 C 
BRANCH  12  13
ATOM     13  C   UNL     1      -2.057   4.556  25.357  0.00  0.00    -0.002 A 
ATOM     14  C   UNL     1      -1.352   4.132  25.319  0.00  0.00    -0.003 A 
ATOM     15  C   UNL     1      -0.660   4.503  25.062  0.00  0.00    -0.000 A 
ATOM     16  C   UNL     1      -0.676   5.298  24.843  0.00  0.00    -0.000 A 
ATOM     17  C   UNL     1      -1.382   5.722  24.881  0.00  0.00    -0.000 A 
ATOM     18  C   UNL     1      -2.073   5.352  25.138  0.00  0.00    -0.003 A 
ENDBRANCH  12  13
ENDBRANCH  10  12
ENDBRANCH   7   8
ENDBRANCH   6   7
BRANCH  22  23
ATOM     23  C   UNL     1      -2.850  -0.677  24.518  0.00  0.00    +0.119 C 
BRANCH  23  24
ATOM     24  N   UNL     1      -3.404  -1.287  24.498  0.00  0.00    -0.205 NA
ATOM     25  C   UNL     1      -3.160  -2.063  24.357  0.00  0.00    +0.240 C 
ATOM     26  O   UNL     1      -2.361  -2.227  24.236  0.00  0.00    -0.273 OA
BRANCH  25  27
ATOM     27  C   UNL     1      -3.715  -2.673  24.337  0.00  0.00    +0.071 C 
ATOM     28  C   UNL     1      -4.270  -3.284  24.317  0.00  0.00    +0.009 C 
ATOM     29  C   UNL     1      -3.974  -2.413  23.599  0.00  0.00    +0.009 C 
ATOM     30  C   UNL     1      -3.455  -2.933  25.076  0.00  0.00    +0.009 C 
ENDBRANCH  25  27
ENDBRANCH  23  24
ENDBRANCH  22  23
TORSDOF 8
ENDMDL
MODEL 4
REMARK VINA RESULT:     -10.3      1.194      5.526
REMARK  Name = 
REMARK  8 active torsions:
REMARK  status: ('A' for Active; 'I' for Inactive)
REMARK    1  A    between atoms: C_2  and  C_4
REMARK    2  A    between atoms: C_6  and  C_7
REMARK    3  A    between atoms: C_7  and  C_8
REMARK    4  A    between atoms: N_10  and  C_12
REMARK    5  A    between atoms: C_12  and  C_13
REMARK    6  A    between atoms: C_22  and  C_23
REMARK    7  A    between atoms: C_23  and  N_24
REMARK    8  A    between atoms: C_25  and  C_27
REMARK                            x       y       z     vdW  Elec       q    Type
REMARK                         _______ _______ _______ _____ _____    ______ ____
ROOT
ATOM      4  C   UNL     1      -2.484   1.675  24.420  0.00  0.00    +0.006 C 
ATOM      5  C   UNL     1      -2.318   0.882  24.581  0.00  0.00    +0.005 C 
ATOM      6  C   UNL     1      -1.689   0.686  25.077  0.00  0.00    +0.027 C 
ATOM     19  C   UNL     1      -1.225   1.282  25.411  0.00  0.00    -0.048 C 
ATOM     20  C   UNL     1      -0.596   1.085  25.906  0.00  0.00    +0.026 C 
ATOM     21  C   UNL     1      -1.391   2.073  25.249  0.00  0.00    -0.033 C 
ATOM     22  C   UNL     1      -2.020   2.270  24.753  0.00  0.00    +0.043 C 
ENDROOT
BRANCH   4   2
ATOM      1  C   UNL     1      -3.001   1.902  23.107  0.00  0.00    +0.000 C 
ATOM      2  C   UNL     1      -3.114   1.871  23.924  0.00  0.00    +0.000 C 
ATOM      3  C   UNL     1      -3.855   2.036  24.244  0.00  0.00    +0.000 C 
ENDBRANCH   4   2
BRANCH   6   7
ATOM      7  C   UNL     1      -1.523  -0.105  25.238  0.00  0.00    +0.089 C 
BRANCH   7   8
ATOM      8  C   UNL     1      -2.129  -0.612  25.480  0.00  0.00    +0.226 C 
ATOM      9  O   UNL     1      -2.638  -0.386  26.089  0.00  0.00    -0.275 OA
ATOM     10  N   UNL     1      -2.225  -1.345  25.112  0.00  0.00    -0.274 N 
ATOM     11  C   UNL     1      -1.717  -1.571  24.504  0.00  0.00    +0.115 C 
BRANCH  10  12
ATOM     12  C   UNL     1      -2.830  -1.850  25.354  0.00  0.00    +0.120 C 
BRANCH  12  13
ATOM     13  C   UNL     1      -3.328  -2.195  24.793  0.00  0.00    -0.002 A 
ATOM     14  C   UNL     1      -3.219  -2.981  24.572  0.00  0.00    -0.003 A 
ATOM     15  C   UNL     1      -3.717  -3.325  24.011  0.00  0.00    -0.000 A 
ATOM     16  C   UNL     1      -4.323  -2.881  23.670  0.00  0.00    -0.000 A 
ATOM     17  C   UNL     1      -4.431  -2.094  23.891  0.00  0.00    -0.000 A 
ATOM     18  C   UNL     1      -3.934  -1.750  24.452  0.00  0.00    -0.003 A 
ENDBRANCH  12  13
ENDBRANCH  10  12
ENDBRANCH   7   8
ENDBRANCH   6   7
BRANCH  22  23
ATOM     23  C   UNL     1      -2.186   3.061  24.591  0.00  0.00    +0.119 C 
BRANCH  23  24
ATOM     24  N   UNL     1      -1.610   3.638  24.721  0.00  0.00    -0.205 NA
ATOM     25  C   UNL     1      -1.820   4.437  24.725  0.00  0.00    +0.240 C 
ATOM     26  O   UNL     1      -2.605   4.657  24.600  0.00  0.00    -0.273 OA
BRANCH  25  27
ATOM     27  C   UNL     1      -1.244   5.013  24.854  0.00  0.00    +0.071 C 
ATOM     28  C   UNL     1      -0.668   5.590  24.983  0.00  0.00    +0.009 C 
ATOM     29  C   UNL     1      -0.743   4.633  24.320  0.00  0.00    +0.009 C 
ATOM     30  C   UNL     1      -1.745   5.394  25.388  0.00  0.00    +0.009 C 
ENDBRANCH  25  27
ENDBRANCH  23  24
ENDBRANCH  22  23
TORSDOF 8
ENDMDL
MODEL 5
REMARK VINA RESULT:      -9.5      2.197      4.100
REMARK  Name = 
REMARK  8 active torsions:
REMARK  status: ('A' for Active; 'I' for Inactive)
REMARK    1  A    between atoms: C_2  and  C_4
REMARK    2  A    between atoms: C_6  and  C_7
REMARK    3  A    between atoms: C_7  and  C_8
REMARK    4  A    between atoms: N_10  and  C_12
REMARK    5  A    between atoms: C_12  and  C_13
REMARK    6  A    between atoms: C_22  and  C_23
REMARK    7  A    between atoms: C_23  and  N_24
REMARK    8  A    between atoms: C_25  and  C_27
REMARK                            x       y       z     vdW  Elec       q    Type
REMARK                         _______ _______ _______ _____ _____    ______ ____
ROOT
ATOM      4  C   UNL     1      -1.424   0.997  24.703  0.00  0.00    +0.006 C 
ATOM      5  C   UNL     1      -1.892   1.647  24.904  0.00  0.00    +0.005 C 
ATOM      6  C   UNL     1      -1.633   2.410  24.728  0.00  0.00    +0.027 C 
ATOM     19  C   UNL     1      -0.908   2.524  24.351  0.00  0.00    -0.048 C 
ATOM     20  C   UNL     1      -0.650   3.287  24.176  0.00  0.00    +0.026 C 
ATOM     21  C   UNL     1      -0.442   1.875  24.151  0.00  0.00    -0.033 C 
ATOM     22  C   UNL     1      -0.699   1.111  24.327  0.00  0.00    +0.043 C 
ENDROOT
BRANCH   4   2
ATOM      1  C   UNL     1      -1.454  -0.126  25.587  0.00  0.00    +0.000 C 
ATOM      2  C   UNL     1      -1.683   0.234  24.879  0.00  0.00    +0.000 C 
ATOM      3  C   UNL     1      -2.169  -0.170  24.350  0.00  0.00    +0.000 C 
ENDBRANCH   4   2
BRANCH   6   7
ATOM      7  C   UNL     1      -2.101   3.059  24.929  0.00  0.00    +0.089 C 
BRANCH   7   8
ATOM      8  C   UNL     1      -2.860   3.134  24.613  0.00  0.00    +0.226 C 
ATOM      9  O   UNL     1      -2.987   3.003  23.808  0.00  0.00    -0.275 OA
ATOM     10  N   UNL     1      -3.492   3.341  25.102  0.00  0.00    -0.274 N 
ATOM     11  C   UNL     1      -3.365   3.472  25.906  0.00  0.00    +0.115 C 
BRANCH  10  12
ATOM     12  C   UNL     1      -4.250   3.415  24.786  0.00  0.00    +0.120 C 
BRANCH  12  13
ATOM     13  C   UNL     1      -4.868   2.961  25.088  0.00  0.00    -0.002 A 
ATOM     14  C   UNL     1      -5.202   3.150  25.818  0.00  0.00    -0.003 A 
ATOM     15  C   UNL     1      -5.820   2.694  26.120  0.00  0.00    -0.000 A 
ATOM     16  C   UNL     1      -6.105   2.050  25.690  0.00  0.00    -0.000 A 
ATOM     17  C   UNL     1      -5.772   1.861  24.961  0.00  0.00    -0.000 A 
ATOM     18  C   UNL     1      -5.153   2.315  24.659  0.00  0.00    -0.003 A 
ENDBRANCH  12  13
ENDBRANCH  10  12
ENDBRANCH   7   8
ENDBRANCH   6   7
BRANCH  22  23
ATOM     23  C   UNL     1      -0.232   0.461  24.126  0.00  0.00    +0.119 C 
BRANCH  23  24
ATOM     24  N   UNL     1       0.349   0.535  23.545  0.00  0.00    -0.205 NA
ATOM     25  C   UNL     1       0.844  -0.103  23.373  0.00  0.00    +0.240 C 
ATOM     26  O   UNL     1       0.756  -0.814  23.782  0.00  0.00    -0.273 OA
BRANCH  25  27
ATOM     27  C   UNL     1       1.425  -0.030  22.792  0.00  0.00    +0.071 C 
ATOM     28  C   UNL     1       2.006   0.044  22.211  0.00  0.00    +0.009 C 
ATOM     29  C   UNL     1       1.932   0.316  23.343  0.00  0.00    +0.009 C 
ATOM     30  C   UNL     1       0.918  -0.376  22.241  0.00  0.00    +0.009 C 
ENDBRANCH  25  27
ENDBRANCH  23  24
ENDBRANCH  22  23
TORSDOF 8
ENDMDL
