REMARK  Name = 
REMARK  6 active torsions:
REMARK  status: ('A' for Active; 'I' for Inactive)
REMARK    1  A    between atoms: O_2  and  C_3
REMARK    2  A    between atoms: C_6  and  C_7
REMARK    3  A    between atoms: C_7  and  N_8
REMARK    4  A    between atoms: C_13  and  O_15
REMARK    5  A    between atoms: O_15  and  C_16
REMARK    6  A    between atoms: C_16  and  C_17
REMARK                            x       y       z     vdW  Elec       q    Type
REMARK                         _______ _______ _______ _____ _____    ______ ____
ROOT
ATOM      8  N   UNL     1      -0.401  -3.868   0.000  0.00  0.00    -0.265 NA
ATOM      9  C   UNL     1       0.281  -3.403   0.000  0.00  0.00    +0.105 C 
ATOM     10  C   UNL     1       1.069  -3.646   0.000  0.00  0.00    +0.160 C 
ATOM     11  O   UNL     1       1.371  -4.414   0.000  0.00  0.00    -0.350 OA
ATOM     12  C   UNL     1       0.958  -5.128   0.000  0.00  0.00    +0.173 C 
ATOM     13  C   UNL     1       0.142  -5.251   0.000  0.00  0.00    +0.161 C 
ATOM     14  C   UNL     1      -0.462  -4.690   0.000  0.00  0.00    +0.105 C 
ENDROOT
BRANCH   8   7
ATOM      7  C   UNL     1      -1.115  -3.455   0.000  0.00  0.00    +0.099 C 
BRANCH   7   6
ATOM      3  C   UNL     1      -1.115  -0.980   0.000  0.00  0.00    +0.139 A 
ATOM      4  C   UNL     1      -0.401  -1.393   0.000  0.00  0.00    +0.037 A 
ATOM      5  C   UNL     1      -0.401  -2.217   0.000  0.00  0.00    +0.000 A 
ATOM      6  C   UNL     1      -1.115  -2.630   0.000  0.00  0.00    -0.006 A 
ATOM     23  C   UNL     1      -1.830  -2.217   0.000  0.00  0.00    +0.000 A 
ATOM     24  C   UNL     1      -1.830  -1.393   0.000  0.00  0.00    +0.037 A 
BRANCH   3   2
ATOM      1  C   UNL     1      -1.830   0.258   0.000  0.00  0.00    +0.252 C 
ATOM      2  O   UNL     1      -1.115  -0.155   0.000  0.00  0.00    -0.471 OA
ENDBRANCH   3   2
ENDBRANCH   7   6
ENDBRANCH   8   7
BRANCH  13  15
ATOM     15  O   UNL     1      -0.101  -6.040   0.000  0.00  0.00    -0.347 OA
BRANCH  15  16
ATOM     16  C   UNL     1       0.460  -6.644   0.000  0.00  0.00    +0.169 C 
BRANCH  16  17
ATOM     17  C   UNL     1       0.217  -7.433   0.000  0.00  0.00    +0.007 A 
ATOM     18  C   UNL     1       0.778  -8.038   0.000  0.00  0.00    -0.002 A 
ATOM     19  C   UNL     1       0.535  -8.826   0.000  0.00  0.00    -0.000 A 
ATOM     20  C   UNL     1      -0.269  -9.009   0.000  0.00  0.00    -0.000 A 
ATOM     21  C   UNL     1      -0.830  -8.405   0.000  0.00  0.00    -0.000 A 
ATOM     22  C   UNL     1      -0.587  -7.616   0.000  0.00  0.00    -0.002 A 
ENDBRANCH  16  17
ENDBRANCH  15  16
ENDBRANCH  13  15
TORSDOF 6
