MODEL 1
REMARK VINA RESULT:     -15.3      0.000      0.000
REMARK  Name = 
REMARK  4 active torsions:
REMARK  status: ('A' for Active; 'I' for Inactive)
REMARK    1  A    between atoms: C_2  and  C_3
REMARK    2  A    between atoms: C_11  and  C_12
REMARK    3  A    between atoms: C_12  and  C_13
REMARK    4  A    between atoms: C_23  and  C_25
REMARK                            x       y       z     vdW  Elec       q    Type
REMARK                         _______ _______ _______ _____ _____    ______ ____
ROOT
ATOM      1  C   UNL     1      -0.839   4.418  24.998  0.00  0.00    +0.005 C 
ATOM      2  C   UNL     1      -1.520   3.955  25.045  0.00  0.00    +0.059 C 
ATOM      5  C   UNL     1      -1.837   4.693  25.230  0.00  0.00    +0.154 C 
ATOM      6  O   UNL     1      -1.348   5.358  25.254  0.00  0.00    -0.223 OA
ATOM      7  C   UNL     1      -2.643   4.767  25.393  0.00  0.00    +0.033 C 
ATOM      8  C   UNL     1      -3.131   4.103  25.369  0.00  0.00    +0.003 C 
ATOM      9  C   UNL     1      -2.815   3.365  25.184  0.00  0.00    +0.006 C 
ATOM     10  C   UNL     1      -3.619   3.439  25.346  0.00  0.00    +0.000 C 
ATOM     11  C   UNL     1      -3.303   2.700  25.160  0.00  0.00    +0.052 C 
ATOM     16  C   UNL     1      -2.986   1.962  24.975  0.00  0.00    +0.063 A 
ATOM     17  C   UNL     1      -2.180   1.887  24.813  0.00  0.00    +0.023 A 
ATOM     18  C   UNL     1      -1.692   2.551  24.836  0.00  0.00    +0.034 C 
ATOM     19  C   UNL     1      -2.008   3.291  25.022  0.00  0.00    +0.010 C 
ATOM     20  S   UNL     1      -2.026   1.094  24.648  0.00  0.00    -0.054 S 
ATOM     21  C   UNL     1      -2.735   0.678  24.708  0.00  0.00    +0.185 A 
ATOM     22  N   UNL     1      -2.834  -0.133  24.587  0.00  0.00    -0.154 NA
ATOM     23  C   UNL     1      -3.581  -0.473  24.667  0.00  0.00    +0.247 C 
ATOM     24  O   UNL     1      -4.230  -0.004  24.868  0.00  0.00    -0.273 OA
ATOM     31  N   UNL     1      -3.328   1.214  24.910  0.00  0.00    -0.227 NA
ENDROOT
BRANCH  23  25
ATOM     25  C   UNL     1      -3.680  -1.283  24.547  0.00  0.00    +0.079 C 
ATOM     26  C   UNL     1      -4.118  -1.554  23.901  0.00  0.00    +0.009 C 
ATOM     27  C   UNL     1      -4.217  -2.364  23.781  0.00  0.00    +0.000 C 
ATOM     28  C   UNL     1      -3.878  -2.903  24.305  0.00  0.00    +0.000 C 
ATOM     29  C   UNL     1      -3.441  -2.633  24.950  0.00  0.00    +0.000 C 
ATOM     30  C   UNL     1      -3.342  -1.823  25.071  0.00  0.00    +0.009 C 
ENDBRANCH  23  25
BRANCH   2   3
ATOM      3  C   UNL     1      -0.967   3.377  24.843  0.00  0.00    +0.184 C 
ATOM      4  O   UNL     1      -0.179   3.586  24.719  0.00  0.00    -0.220 OA
ENDBRANCH   2   3
BRANCH  11  12
ATOM     12  C   UNL     1      -4.108   2.774  25.322  0.00  0.00    +0.120 C 
BRANCH  12  13
ATOM     13  C   UNL     1      -4.661   2.698  24.714  0.00  0.00    +0.365 C 
ATOM     14  O   UNL     1      -5.396   2.357  24.866  0.00  0.00    -0.246 OA
ATOM     15  O   UNL     1      -4.477   2.961  23.955  0.00  0.00    -0.246 OA
ENDBRANCH  12  13
ENDBRANCH  11  12
TORSDOF 4
ENDMDL
MODEL 2
REMARK VINA RESULT:     -15.0      1.247      5.067
REMARK  Name = 
REMARK  4 active torsions:
REMARK  status: ('A' for Active; 'I' for Inactive)
REMARK    1  A    between atoms: C_2  and  C_3
REMARK    2  A    between atoms: C_11  and  C_12
REMARK    3  A    between atoms: C_12  and  C_13
REMARK    4  A    between atoms: C_23  and  C_25
REMARK                            x       y       z     vdW  Elec       q    Type
REMARK                         _______ _______ _______ _____ _____    ______ ____
ROOT
ATOM      1  C   UNL     1      -2.566  -2.704  24.618  0.00  0.00    +0.005 C 
ATOM      2  C   UNL     1      -2.869  -1.940  24.552  0.00  0.00    +0.059 C 
ATOM      5  C   UNL     1      -3.545  -2.378  24.374  0.00  0.00    +0.154 C 
ATOM      6  O   UNL     1      -3.514  -3.203  24.371  0.00  0.00    -0.223 OA
ATOM      7  C   UNL     1      -4.254  -1.991  24.200  0.00  0.00    +0.033 C 
ATOM      8  C   UNL     1      -4.285  -1.168  24.203  0.00  0.00    +0.003 C 
ATOM      9  C   UNL     1      -3.610  -0.730  24.381  0.00  0.00    +0.006 C 
ATOM     10  C   UNL     1      -4.317  -0.344  24.207  0.00  0.00    +0.000 C 
ATOM     11  C   UNL     1      -3.641   0.095  24.384  0.00  0.00    +0.052 C 
ATOM     16  C   UNL     1      -2.966   0.533  24.561  0.00  0.00    +0.063 A 
ATOM     17  C   UNL     1      -2.257   0.146  24.736  0.00  0.00    +0.023 A 
ATOM     18  C   UNL     1      -2.225  -0.677  24.732  0.00  0.00    +0.034 C 
ATOM     19  C   UNL     1      -2.901  -1.116  24.555  0.00  0.00    +0.010 C 
ATOM     20  S   UNL     1      -1.685   0.721  24.889  0.00  0.00    -0.054 S 
ATOM     21  C   UNL     1      -2.039   1.462  24.809  0.00  0.00    +0.185 A 
ATOM     22  N   UNL     1      -1.667   2.191  24.914  0.00  0.00    -0.154 NA
ATOM     23  C   UNL     1      -2.094   2.889  24.815  0.00  0.00    +0.247 C 
ATOM     24  O   UNL     1      -2.893   2.860  24.612  0.00  0.00    -0.273 OA
ATOM     31  N   UNL     1      -2.830   1.346  24.607  0.00  0.00    -0.227 NA
ENDROOT
BRANCH  23  25
ATOM     25  C   UNL     1      -1.722   3.618  24.919  0.00  0.00    +0.079 C 
ATOM     26  C   UNL     1      -2.112   4.228  25.316  0.00  0.00    +0.009 C 
ATOM     27  C   UNL     1      -1.740   4.957  25.420  0.00  0.00    +0.000 C 
ATOM     28  C   UNL     1      -0.978   5.076  25.128  0.00  0.00    +0.000 C 
ATOM     29  C   UNL     1      -0.588   4.467  24.732  0.00  0.00    +0.000 C 
ATOM     30  C   UNL     1      -0.960   3.738  24.628  0.00  0.00    +0.009 C 
ENDBRANCH  23  25
BRANCH   2   3
ATOM      3  C   UNL     1      -2.088  -1.767  24.752  0.00  0.00    +0.184 C 
ATOM      4  O   UNL     1      -1.541  -2.378  24.841  0.00  0.00    -0.220 OA
ENDBRANCH   2   3
BRANCH  11  12
ATOM     12  C   UNL     1      -4.349   0.481  24.210  0.00  0.00    +0.120 C 
BRANCH  12  13
ATOM     13  C   UNL     1      -4.763   0.874  24.807  0.00  0.00    +0.365 C 
ATOM     14  O   UNL     1      -5.152   1.582  24.640  0.00  0.00    -0.246 OA
ATOM     15  O   UNL     1      -4.786   0.560  25.568  0.00  0.00    -0.246 OA
ENDBRANCH  12  13
ENDBRANCH  11  12
TORSDOF 4
ENDMDL
MODEL 3
REMARK VINA RESULT:     -14.2      1.582      5.529
REMARK  Name = 
REMARK  4 active torsions:
REMARK  status: ('A' for Active; 'I' for Inactive)
REMARK    1  A    between atoms: C_2  and  C_3
REMARK    2  A    between atoms: C_11  and  C_12
REMARK    3  A    between atoms: C_12  and  C_13
REMARK    4  A    between atoms: C_23  and  C_25
REMARK                            x       y       z     vdW  Elec       q    Type
REMARK                         _______ _______ _______ _____ _____    ______ ____
ROOT
ATOM      1  C   UNL     1      -4.160  -2.294  24.108  0.00  0.00    +0.005 C 
ATOM      2  C   UNL     1      -3.518  -1.821  24.321  0.00  0.00    +0.059 C 
ATOM      5  C   UNL     1      -3.174  -2.567  24.386  0.00  0.00    +0.154 C 
ATOM      6  O   UNL     1      -3.618  -3.243  24.221  0.00  0.00    -0.223 OA
ATOM      7  C   UNL     1      -2.383  -2.639  24.615  0.00  0.00    +0.033 C 
ATOM      8  C   UNL     1      -1.939  -1.964  24.779  0.00  0.00    +0.003 C 
ATOM      9  C   UNL     1      -2.284  -1.218  24.715  0.00  0.00    +0.006 C 
ATOM     10  C   UNL     1      -1.495  -1.289  24.944  0.00  0.00    +0.000 C 
ATOM     11  C   UNL     1      -1.839  -0.542  24.879  0.00  0.00    +0.052 C 
ATOM     16  C   UNL     1      -2.184   0.204  24.814  0.00  0.00    +0.063 A 
ATOM     17  C   UNL     1      -2.974   0.276  24.585  0.00  0.00    +0.023 A 
ATOM     18  C   UNL     1      -3.418  -0.399  24.420  0.00  0.00    +0.034 C 
ATOM     19  C   UNL     1      -3.074  -1.146  24.485  0.00  0.00    +0.010 C 
ATOM     20  S   UNL     1      -3.162   1.079  24.569  0.00  0.00    -0.054 S 
ATOM     21  C   UNL     1      -2.490   1.504  24.788  0.00  0.00    +0.185 A 
ATOM     22  N   UNL     1      -2.432   2.325  24.845  0.00  0.00    -0.154 NA
ATOM     23  C   UNL     1      -1.720   2.673  25.072  0.00  0.00    +0.247 C 
ATOM     24  O   UNL     1      -1.065   2.201  25.242  0.00  0.00    -0.273 OA
ATOM     31  N   UNL     1      -1.886   0.964  24.939  0.00  0.00    -0.227 NA
ENDROOT
BRANCH  23  25
ATOM     25  C   UNL     1      -1.663   3.494  25.130  0.00  0.00    +0.079 C 
ATOM     26  C   UNL     1      -1.011   3.886  24.809  0.00  0.00    +0.009 C 
ATOM     27  C   UNL     1      -0.953   4.707  24.866  0.00  0.00    +0.000 C 
ATOM     28  C   UNL     1      -1.547   5.136  25.245  0.00  0.00    +0.000 C 
ATOM     29  C   UNL     1      -2.199   4.745  25.566  0.00  0.00    +0.000 C 
ATOM     30  C   UNL     1      -2.256   3.924  25.508  0.00  0.00    +0.009 C 
ENDBRANCH  23  25
BRANCH   2   3
ATOM      3  C   UNL     1      -4.086  -1.239  24.182  0.00  0.00    +0.184 C 
ATOM      4  O   UNL     1      -4.823  -1.446  23.877  0.00  0.00    -0.220 OA
ENDBRANCH   2   3
BRANCH  11  12
ATOM     12  C   UNL     1      -1.050  -0.613  25.108  0.00  0.00    +0.120 C 
BRANCH  12  13
ATOM     13  C   UNL     1      -0.448  -0.389  24.590  0.00  0.00    +0.365 C 
ATOM     14  O   UNL     1       0.156   0.109  24.852  0.00  0.00    -0.246 OA
ATOM     15  O   UNL     1      -0.450  -0.662  23.813  0.00  0.00    -0.246 OA
ENDBRANCH  12  13
ENDBRANCH  11  12
TORSDOF 4
ENDMDL
MODEL 4
REMARK VINA RESULT:     -14.2      1.144      2.267
REMARK  Name = 
REMARK  4 active torsions:
REMARK  status: ('A' for Active; 'I' for Inactive)
REMARK    1  A    between atoms: C_2  and  C_3
REMARK    2  A    between atoms: C_11  and  C_12
REMARK    3  A    between atoms: C_12  and  C_13
REMARK    4  A    between atoms: C_23  and  C_25
REMARK                            x       y       z     vdW  Elec       q    Type
REMARK                         _______ _______ _______ _____ _____    ______ ____
ROOT
ATOM      1  C   UNL     1      -2.422   4.923  25.589  0.00  0.00    +0.005 C 
ATOM      2  C   UNL     1      -2.129   4.207  25.303  0.00  0.00    +0.059 C 
ATOM      5  C   UNL     1      -1.475   4.692  25.173  0.00  0.00    +0.154 C 
ATOM      6  O   UNL     1      -1.504   5.490  25.379  0.00  0.00    -0.223 OA
ATOM      7  C   UNL     1      -0.789   4.378  24.836  0.00  0.00    +0.033 C 
ATOM      8  C   UNL     1      -0.759   3.580  24.630  0.00  0.00    +0.003 C 
ATOM      9  C   UNL     1      -1.414   3.096  24.760  0.00  0.00    +0.006 C 
ATOM     10  C   UNL     1      -0.730   2.782  24.424  0.00  0.00    +0.000 C 
ATOM     11  C   UNL     1      -1.384   2.297  24.554  0.00  0.00    +0.052 C 
ATOM     16  C   UNL     1      -2.039   1.813  24.684  0.00  0.00    +0.063 A 
ATOM     17  C   UNL     1      -2.724   2.127  25.021  0.00  0.00    +0.023 A 
ATOM     18  C   UNL     1      -2.754   2.924  25.227  0.00  0.00    +0.034 C 
ATOM     19  C   UNL     1      -2.099   3.410  25.097  0.00  0.00    +0.010 C 
ATOM     20  S   UNL     1      -3.278   1.519  25.082  0.00  0.00    -0.054 S 
ATOM     21  C   UNL     1      -2.937   0.830  24.784  0.00  0.00    +0.185 A 
ATOM     22  N   UNL     1      -3.298   0.089  24.740  0.00  0.00    -0.154 NA
ATOM     23  C   UNL     1      -2.885  -0.552  24.427  0.00  0.00    +0.247 C 
ATOM     24  O   UNL     1      -2.111  -0.454  24.157  0.00  0.00    -0.273 OA
ATOM     31  N   UNL     1      -2.171   1.012  24.538  0.00  0.00    -0.227 NA
ENDROOT
BRANCH  23  25
ATOM     25  C   UNL     1      -3.246  -1.293  24.383  0.00  0.00    +0.079 C 
ATOM     26  C   UNL     1      -2.936  -1.929  24.808  0.00  0.00    +0.009 C 
ATOM     27  C   UNL     1      -3.297  -2.670  24.764  0.00  0.00    +0.000 C 
ATOM     28  C   UNL     1      -3.967  -2.774  24.295  0.00  0.00    +0.000 C 
ATOM     29  C   UNL     1      -4.277  -2.139  23.870  0.00  0.00    +0.000 C 
ATOM     30  C   UNL     1      -3.916  -1.398  23.914  0.00  0.00    +0.009 C 
ENDBRANCH  23  25
BRANCH   2   3
ATOM      3  C   UNL     1      -2.885   3.972  25.533  0.00  0.00    +0.184 C 
ATOM      4  O   UNL     1      -3.374   4.495  25.942  0.00  0.00    -0.220 OA
ENDBRANCH   2   3
BRANCH  11  12
ATOM     12  C   UNL     1      -0.699   1.984  24.217  0.00  0.00    +0.120 C 
BRANCH  12  13
ATOM     13  C   UNL     1      -0.224   1.468  24.653  0.00  0.00    +0.365 C 
ATOM     14  O   UNL     1       0.148   0.835  24.278  0.00  0.00    -0.246 OA
ATOM     15  O   UNL     1      -0.120   1.588  25.462  0.00  0.00    -0.246 OA
ENDBRANCH  12  13
ENDBRANCH  11  12
TORSDOF 4
ENDMDL
MODEL 5
REMARK VINA RESULT:     -12.4      1.696      2.598
REMARK  Name = 
REMARK  4 active torsions:
REMARK  status: ('A' for Active; 'I' for Inactive)
REMARK    1  A    between atoms: C_2  and  C_3
REMARK    2  A    between atoms: C_11  and  C_12
REMARK    3  A    between atoms: C_12  and  C_13
REMARK    4  A    between atoms: C_23  and  C_25
REMARK                            x       y       z     vdW  Elec       q    Type
REMARK                         _______ _______ _______ _____ _____    ______ ____
ROOT
ATOM      1  C   UNL     1      -5.518   3.958  25.712  0.00  0.00    +0.005 C 
ATOM      2  C   UNL     1      -5.025   3.456  25.281  0.00  0.00    +0.059 C 
ATOM      5  C   UNL     1      -4.769   4.186  24.998  0.00  0.00    +0.154 C 
ATOM      6  O   UNL     1      -5.113   4.882  25.277  0.00  0.00    -0.223 OA
ATOM      7  C   UNL     1      -4.167   4.222  24.433  0.00  0.00    +0.033 C 
ATOM      8  C   UNL     1      -3.823   3.527  24.153  0.00  0.00    +0.003 C 
ATOM      9  C   UNL     1      -4.079   2.796  24.437  0.00  0.00    +0.006 C 
ATOM     10  C   UNL     1      -3.479   2.832  23.874  0.00  0.00    +0.000 C 
ATOM     11  C   UNL     1      -3.735   2.100  24.158  0.00  0.00    +0.052 C 
ATOM     16  C   UNL     1      -3.991   1.370  24.441  0.00  0.00    +0.063 A 
ATOM     17  C   UNL     1      -4.593   1.335  25.006  0.00  0.00    +0.023 A 
ATOM     18  C   UNL     1      -4.937   2.030  25.286  0.00  0.00    +0.034 C 
ATOM     19  C   UNL     1      -4.681   2.761  25.002  0.00  0.00    +0.010 C 
ATOM     20  S   UNL     1      -4.730   0.540  25.182  0.00  0.00    -0.054 S 
ATOM     21  C   UNL     1      -4.214   0.085  24.728  0.00  0.00    +0.185 A 
ATOM     22  N   UNL     1      -4.163  -0.739  24.730  0.00  0.00    -0.154 NA
ATOM     23  C   UNL     1      -3.618  -1.119  24.243  0.00  0.00    +0.247 C 
ATOM     24  O   UNL     1      -3.122  -0.677  23.753  0.00  0.00    -0.273 OA
ATOM     31  N   UNL     1      -3.758   0.597  24.270  0.00  0.00    -0.227 NA
ENDROOT
BRANCH  23  25
ATOM     25  C   UNL     1      -3.567  -1.943  24.246  0.00  0.00    +0.079 C 
ATOM     26  C   UNL     1      -4.146  -2.393  23.867  0.00  0.00    +0.009 C 
ATOM     27  C   UNL     1      -4.095  -3.217  23.869  0.00  0.00    +0.000 C 
ATOM     28  C   UNL     1      -3.466  -3.590  24.251  0.00  0.00    +0.000 C 
ATOM     29  C   UNL     1      -2.888  -3.140  24.629  0.00  0.00    +0.000 C 
ATOM     30  C   UNL     1      -2.938  -2.317  24.627  0.00  0.00    +0.009 C 
ENDBRANCH  23  25
BRANCH   2   3
ATOM      3  C   UNL     1      -5.453   2.900  25.715  0.00  0.00    +0.184 C 
ATOM      4  O   UNL     1      -6.008   3.149  26.272  0.00  0.00    -0.220 OA
ENDBRANCH   2   3
BRANCH  11  12
ATOM     12  C   UNL     1      -3.134   2.136  23.594  0.00  0.00    +0.120 C 
BRANCH  12  13
ATOM     13  C   UNL     1      -2.356   1.961  23.808  0.00  0.00    +0.365 C 
ATOM     14  O   UNL     1      -1.858   1.578  23.274  0.00  0.00    -0.246 OA
ATOM     15  O   UNL     1      -2.077   2.171  24.554  0.00  0.00    -0.246 OA
ENDBRANCH  12  13
ENDBRANCH  11  12
TORSDOF 4
ENDMDL
MODEL 6
REMARK VINA RESULT:     -11.6      2.061      3.778
REMARK  Name = 
REMARK  4 active torsions:
REMARK  status: ('A' for Active; 'I' for Inactive)
REMARK    1  A    between atoms: C_2  and  C_3
REMARK    2  A    between atoms: C_11  and  C_12
REMARK    3  A    between atoms: C_12  and  C_13
REMARK    4  A    between atoms: C_23  and  C_25
REMARK                            x       y       z     vdW  Elec       q    Type
REMARK                         _______ _______ _______ _____ _____    ______ ____
ROOT
ATOM      1  C   UNL     1      -5.230   3.376  25.537  0.00  0.00    +0.005 C 
ATOM      2  C   UNL     1      -4.839   2.701  25.269  0.00  0.00    +0.059 C 
ATOM      5  C   UNL     1      -5.600   2.398  25.364  0.00  0.00    +0.154 C 
ATOM      6  O   UNL     1      -6.209   2.885  25.633  0.00  0.00    -0.223 OA
ATOM      7  C   UNL     1      -5.753   1.605  25.191  0.00  0.00    +0.033 C 
ATOM      8  C   UNL     1      -5.144   1.117  24.922  0.00  0.00    +0.003 C 
ATOM      9  C   UNL     1      -4.384   1.421  24.828  0.00  0.00    +0.006 C 
ATOM     10  C   UNL     1      -4.536   0.630  24.654  0.00  0.00    +0.000 C 
ATOM     11  C   UNL     1      -3.775   0.933  24.559  0.00  0.00    +0.052 C 
ATOM     16  C   UNL     1      -3.014   1.236  24.464  0.00  0.00    +0.063 A 
ATOM     17  C   UNL     1      -2.861   2.029  24.638  0.00  0.00    +0.023 A 
ATOM     18  C   UNL     1      -3.469   2.517  24.906  0.00  0.00    +0.034 C 
ATOM     19  C   UNL     1      -4.231   2.214  25.001  0.00  0.00    +0.010 C 
ATOM     20  S   UNL     1      -2.062   2.172  24.492  0.00  0.00    -0.054 S 
ATOM     21  C   UNL     1      -1.720   1.469  24.229  0.00  0.00    +0.185 A 
ATOM     22  N   UNL     1      -0.929   1.363  24.019  0.00  0.00    -0.154 NA
ATOM     23  C   UNL     1      -0.667   0.624  23.764  0.00  0.00    +0.247 C 
ATOM     24  O   UNL     1      -1.194  -0.009  23.718  0.00  0.00    -0.273 OA
ATOM     31  N   UNL     1      -2.308   0.891  24.212  0.00  0.00    -0.227 NA
ENDROOT
BRANCH  23  25
ATOM     25  C   UNL     1       0.124   0.518  23.554  0.00  0.00    +0.079 C 
ATOM     26  C   UNL     1       0.690   1.075  23.781  0.00  0.00    +0.009 C 
ATOM     27  C   UNL     1       1.481   0.969  23.571  0.00  0.00    +0.000 C 
ATOM     28  C   UNL     1       1.706   0.305  23.135  0.00  0.00    +0.000 C 
ATOM     29  C   UNL     1       1.141  -0.251  22.909  0.00  0.00    +0.000 C 
ATOM     30  C   UNL     1       0.350  -0.145  23.119  0.00  0.00    +0.009 C 
ENDBRANCH  23  25
BRANCH   2   3
ATOM      3  C   UNL     1      -4.214   3.240  25.268  0.00  0.00    +0.184 C 
ATOM      4  O   UNL     1      -4.337   4.015  25.520  0.00  0.00    -0.220 OA
ENDBRANCH   2   3
BRANCH  11  12
ATOM     12  C   UNL     1      -3.927   0.141  24.386  0.00  0.00    +0.120 C 
BRANCH  12  13
ATOM     13  C   UNL     1      -3.642  -0.453  24.883  0.00  0.00    +0.365 C 
ATOM     14  O   UNL     1      -3.362  -1.160  24.562  0.00  0.00    -0.246 OA
ATOM     15  O   UNL     1      -3.637  -0.340  25.699  0.00  0.00    -0.246 OA
ENDBRANCH  12  13
ENDBRANCH  11  12
TORSDOF 4
ENDMDL
MODEL 7
REMARK VINA RESULT:     -11.5      1.983      3.502
REMARK  Name = 
REMARK  4 active torsions:
REMARK  status: ('A' for Active; 'I' for Inactive)
REMARK    1  A    between atoms: C_2  and  C_3
REMARK    2  A    between atoms: C_11  and  C_12
REMARK    3  A    between atoms: C_12  and  C_13
REMARK    4  A    between atoms: C_23  and  C_25
REMARK                            x       y       z     vdW  Elec       q    Type
REMARK                         _______ _______ _______ _____ _____    ______ ____
ROOT
ATOM      1  C   UNL     1      -6.019   2.630  25.505  0.00  0.00    +0.005 C 
ATOM      2  C   UNL     1      -5.219   2.768  25.357  0.00  0.00    +0.059 C 
ATOM      5  C   UNL     1      -5.459   3.529  25.566  0.00  0.00    +0.154 C 
ATOM      6  O   UNL     1      -6.246   3.673  25.769  0.00  0.00    -0.223 OA
ATOM      7  C   UNL     1      -4.912   4.147  25.572  0.00  0.00    +0.033 C 
ATOM      8  C   UNL     1      -4.126   4.004  25.370  0.00  0.00    +0.003 C 
ATOM      9  C   UNL     1      -3.885   3.243  25.161  0.00  0.00    +0.006 C 
ATOM     10  C   UNL     1      -3.339   3.860  25.167  0.00  0.00    +0.000 C 
ATOM     11  C   UNL     1      -3.099   3.099  24.959  0.00  0.00    +0.052 C 
ATOM     16  C   UNL     1      -2.858   2.339  24.750  0.00  0.00    +0.063 A 
ATOM     17  C   UNL     1      -3.406   1.720  24.744  0.00  0.00    +0.023 A 
ATOM     18  C   UNL     1      -4.192   1.863  24.946  0.00  0.00    +0.034 C 
ATOM     19  C   UNL     1      -4.433   2.625  25.155  0.00  0.00    +0.010 C 
ATOM     20  S   UNL     1      -3.010   1.033  24.516  0.00  0.00    -0.054 S 
ATOM     21  C   UNL     1      -2.219   1.225  24.381  0.00  0.00    +0.185 A 
ATOM     22  N   UNL     1      -1.626   0.703  24.144  0.00  0.00    -0.154 NA
ATOM     23  C   UNL     1      -0.857   0.977  24.031  0.00  0.00    +0.247 C 
ATOM     24  O   UNL     1      -0.680   1.773  24.155  0.00  0.00    -0.273 OA
ATOM     31  N   UNL     1      -2.126   2.032  24.526  0.00  0.00    -0.227 NA
ENDROOT
BRANCH  23  25
ATOM     25  C   UNL     1      -0.264   0.455  23.794  0.00  0.00    +0.079 C 
ATOM     26  C   UNL     1       0.323   0.707  23.270  0.00  0.00    +0.009 C 
ATOM     27  C   UNL     1       0.916   0.185  23.033  0.00  0.00    +0.000 C 
ATOM     28  C   UNL     1       0.922  -0.590  23.319  0.00  0.00    +0.000 C 
ATOM     29  C   UNL     1       0.336  -0.841  23.841  0.00  0.00    +0.000 C 
ATOM     30  C   UNL     1      -0.257  -0.319  24.078  0.00  0.00    +0.009 C 
ENDBRANCH  23  25
BRANCH   2   3
ATOM      3  C   UNL     1      -5.257   1.959  25.200  0.00  0.00    +0.184 C 
ATOM      4  O   UNL     1      -5.981   1.565  25.235  0.00  0.00    -0.220 OA
ENDBRANCH   2   3
BRANCH  11  12
ATOM     12  C   UNL     1      -2.552   3.717  24.965  0.00  0.00    +0.120 C 
BRANCH  12  13
ATOM     13  C   UNL     1      -1.971   3.749  25.551  0.00  0.00    +0.365 C 
ATOM     14  O   UNL     1      -1.211   4.010  25.364  0.00  0.00    -0.246 OA
ATOM     15  O   UNL     1      -2.151   3.521  26.322  0.00  0.00    -0.246 OA
ENDBRANCH  12  13
ENDBRANCH  11  12
TORSDOF 4
ENDMDL
