REMARK  Name = 
REMARK  2 active torsions:
REMARK  status: ('A' for Active; 'I' for Inactive)
REMARK    1  A    between atoms: C_7  and  C_8
REMARK    2  A    between atoms: N_16  and  S_18
REMARK                            x       y       z     vdW  Elec       q    Type
REMARK                         _______ _______ _______ _____ _____    ______ ____
ROOT
ATOM      8  C   UNL     1      -1.296  -1.150   0.000  0.00  0.00    +0.056 A 
ATOM      9  C   UNL     1      -1.167  -0.335   0.000  0.00  0.00    +0.006 A 
ATOM     10  C   UNL     1      -0.397  -0.039   0.000  0.00  0.00    +0.013 A 
ATOM     11  C   UNL     1       0.244  -0.558   0.000  0.00  0.00    +0.041 A 
ATOM     12  C   UNL     1       1.163  -0.557   0.000  0.00  0.00    +0.056 C 
ATOM     13  C   UNL     1       1.713  -0.121   0.000  0.00  0.00    +0.011 C 
ATOM     14  C   UNL     1       1.582  -0.925   0.000  0.00  0.00    +0.041 C 
ATOM     15  C   UNL     1       1.629  -1.912   0.000  0.00  0.00    +0.097 C 
ATOM     16  N   UNL     1       0.813  -2.091   0.000  0.00  0.00    -0.159 NA
ATOM     17  C   UNL     1       1.225  -1.510   0.000  0.00  0.00    +0.101 C 
ATOM     22  C   UNL     1       0.622  -0.936   0.000  0.00  0.00    +0.110 C 
ATOM     23  N   UNL     1       0.115  -1.373   0.000  0.00  0.00    -0.299 N 
ATOM     24  C   UNL     1      -0.655  -1.669   0.000  0.00  0.00    +0.261 A 
ATOM     25  O   UNL     1      -0.784  -2.484   0.000  0.00  0.00    -0.267 OA
ENDROOT
BRANCH   8   7
ATOM      1  C   UNL     1      -1.554  -2.779   0.000  0.00  0.00    +0.031 C 
ATOM      2  C   UNL     1      -2.195  -2.260   0.000  0.00  0.00    -0.022 A 
ATOM      3  C   UNL     1      -2.965  -2.556   0.000  0.00  0.00    -0.004 A 
ATOM      4  C   UNL     1      -3.606  -2.037   0.000  0.00  0.00    -0.000 A 
ATOM      5  C   UNL     1      -3.478  -1.222   0.000  0.00  0.00    -0.000 A 
ATOM      6  C   UNL     1      -2.707  -0.926   0.000  0.00  0.00    -0.000 A 
ATOM      7  C   UNL     1      -2.066  -1.445   0.000  0.00  0.00    +0.001 A 
ENDBRANCH   8   7
BRANCH  16  18
ATOM     18  S   UNL     1       0.125  -2.547   0.000  0.00  0.00    +0.046 S 
ATOM     19  C   UNL     1      -0.331  -1.859   0.000  0.00  0.00    +0.196 C 
ATOM     20  O   UNL     1       0.581  -3.235   0.000  0.00  0.00    -0.157 OA
ATOM     21  O   UNL     1      -0.563  -3.003   0.000  0.00  0.00    -0.157 OA
ENDBRANCH  16  18
TORSDOF 2
