REMARK  Name = 
REMARK  5 active torsions:
REMARK  status: ('A' for Active; 'I' for Inactive)
REMARK    1  A    between atoms: C_2  and  C_3
REMARK    2  A    between atoms: C_11  and  C_12
REMARK    3  A    between atoms: C_12  and  C_13
REMARK    4  A    between atoms: N_15  and  C_16
REMARK    5  A    between atoms: C_28  and  C_30
REMARK                            x       y       z     vdW  Elec       q    Type
REMARK                         _______ _______ _______ _____ _____    ______ ____
ROOT
ATOM      1  C   UNL     1       0.899  -2.282   0.000  0.00  0.00    +0.005 C 
ATOM      2  C   UNL     1       1.429  -1.650   0.000  0.00  0.00    +0.059 C 
ATOM      5  C   UNL     1       0.715  -1.238   0.000  0.00  0.00    +0.154 C 
ATOM      6  O   UNL     1       0.000  -1.650   0.000  0.00  0.00    -0.223 OA
ATOM      7  C   UNL     1       0.715  -0.412   0.000  0.00  0.00    +0.033 C 
ATOM      8  C   UNL     1       1.429   0.000   0.000  0.00  0.00    +0.003 C 
ATOM      9  C   UNL     1       2.143  -0.412   0.000  0.00  0.00    +0.006 C 
ATOM     10  C   UNL     1       2.143   0.412   0.000  0.00  0.00    +0.000 C 
ATOM     11  C   UNL     1       2.858   0.000   0.000  0.00  0.00    +0.050 C 
ATOM     23  C   UNL     1       3.572  -0.412   0.000  0.00  0.00    +0.062 A 
ATOM     24  C   UNL     1       3.572  -1.238   0.000  0.00  0.00    +0.022 A 
ATOM     25  C   UNL     1       2.858  -1.650   0.000  0.00  0.00    +0.034 C 
ATOM     26  C   UNL     1       2.143  -1.238   0.000  0.00  0.00    +0.010 C 
ATOM     27  S   UNL     1       4.357  -1.492   0.000  0.00  0.00    -0.071 S 
ATOM     28  C   UNL     1       4.842  -0.825   0.000  0.00  0.00    +0.111 A 
ATOM     29  N   UNL     1       4.357  -0.158   0.000  0.00  0.00    -0.243 NA
ENDROOT
BRANCH  28  30
ATOM     30  C   UNL     1       5.667  -0.825   0.000  0.00  0.00    +0.031 A 
ATOM     31  C   UNL     1       6.152  -0.158   0.000  0.00  0.00    +0.037 A 
ATOM     32  S   UNL     1       6.936  -0.412   0.000  0.00  0.00    -0.086 S 
ATOM     33  C   UNL     1       6.936  -1.238   0.000  0.00  0.00    +0.036 A 
ATOM     34  C   UNL     1       6.152  -1.492   0.000  0.00  0.00    +0.010 A 
ENDBRANCH  28  30
BRANCH   2   3
ATOM      3  C   UNL     1       1.959  -2.282   0.000  0.00  0.00    +0.184 C 
ATOM      4  O   UNL     1       2.772  -2.139   0.000  0.00  0.00    -0.220 OA
ENDBRANCH   2   3
BRANCH  11  12
ATOM     12  C   UNL     1       2.858   0.825   0.000  0.00  0.00    +0.093 C 
BRANCH  12  13
ATOM     13  C   UNL     1       2.143   1.238   0.000  0.00  0.00    +0.246 C 
ATOM     14  O   UNL     1       1.429   0.825   0.000  0.00  0.00    -0.273 OA
ATOM     15  N   UNL     1       2.143   2.062   0.000  0.00  0.00    -0.179 NA
BRANCH  15  16
ATOM     16  C   UNL     1       1.429   2.475   0.000  0.00  0.00    +0.077 A 
ATOM     17  C   UNL     1       0.715   2.062   0.000  0.00  0.00    +0.059 A 
ATOM     18  C   UNL     1       0.000   2.475   0.000  0.00  0.00    +0.197 A 
ATOM     19  O   UNL     1      -0.715   2.062   0.000  0.00  0.00    -0.287 OA
ATOM     20  C   UNL     1       0.000   3.300   0.000  0.00  0.00    +0.042 A 
ATOM     21  C   UNL     1       0.715   3.712   0.000  0.00  0.00    +0.005 A 
ATOM     22  C   UNL     1       1.429   3.300   0.000  0.00  0.00    +0.017 A 
ENDBRANCH  15  16
ENDBRANCH  12  13
ENDBRANCH  11  12
TORSDOF 5
