REMARK  Name = 
REMARK  3 active torsions:
REMARK  status: ('A' for Active; 'I' for Inactive)
REMARK    1  A    between atoms: O_2  and  C_3
REMARK    2  A    between atoms: N_8  and  C_9
REMARK    3  A    between atoms: C_9  and  C_10
REMARK                            x       y       z     vdW  Elec       q    Type
REMARK                         _______ _______ _______ _____ _____    ______ ____
ROOT
ATOM      3  C   UNL     1       1.211   0.808   0.000  0.00  0.00    +0.161 C 
ATOM      4  C   UNL     1       0.910   1.576   0.000  0.00  0.00    +0.173 C 
ATOM      5  O   UNL     1       1.322   2.290   0.000  0.00  0.00    -0.350 OA
ATOM      6  C   UNL     1       2.138   2.413   0.000  0.00  0.00    +0.160 C 
ATOM      7  C   UNL     1       2.743   1.852   0.000  0.00  0.00    +0.105 C 
ATOM      8  N   UNL     1       2.681   1.030   0.000  0.00  0.00    -0.265 NA
ATOM     17  C   UNL     1       2.000   0.565   0.000  0.00  0.00    +0.105 C 
ENDROOT
BRANCH   3   2
ATOM      1  C   UNL     1      -0.154   0.387   0.000  0.00  0.00    +0.174 C 
ATOM      2  O   UNL     1       0.650   0.203   0.000  0.00  0.00    -0.350 OA
ENDBRANCH   3   2
BRANCH   8   9
ATOM      9  C   UNL     1       3.396   0.617   0.000  0.00  0.00    +0.103 C 
BRANCH   9  10
ATOM     10  C   UNL     1       3.396  -0.208   0.000  0.00  0.00    +0.043 A 
ATOM     11  C   UNL     1       4.063  -0.693   0.000  0.00  0.00    +0.152 A 
ATOM     12  C   UNL     1       4.848  -0.438   0.000  0.00  0.00    +0.075 C 
ATOM     13  O   UNL     1       3.808  -1.478   0.000  0.00  0.00    -0.358 OA
ATOM     14  N   UNL     1       2.983  -1.478   0.000  0.00  0.00    -0.082 NA
ATOM     15  C   UNL     1       2.728  -0.693   0.000  0.00  0.00    +0.098 A 
ATOM     16  C   UNL     1       1.944  -0.438   0.000  0.00  0.00    +0.055 C 
ENDBRANCH   9  10
ENDBRANCH   8   9
TORSDOF 3
