MODEL 1
REMARK VINA RESULT:      -9.5      0.000      0.000
REMARK  Name = 
REMARK  8 active torsions:
REMARK  status: ('A' for Active; 'I' for Inactive)
REMARK    1  A    between atoms: O_2  and  C_3
REMARK    2  A    between atoms: C_3  and  C_4
REMARK    3  A    between atoms: N_6  and  C_7
REMARK    4  A    between atoms: C_7  and  C_8
REMARK    5  A    between atoms: C_10  and  C_11
REMARK    6  A    between atoms: C_15  and  N_16
REMARK    7  A    between atoms: N_19  and  C_22
REMARK    8  A    between atoms: C_27  and  O_28
REMARK                            x       y       z     vdW  Elec       q    Type
REMARK                         _______ _______ _______ _____ _____    ______ ____
ROOT
ATOM      8  C   UNL     1      -3.905   2.439  25.086  0.00  0.00    +0.154 C 
ATOM      9  O   UNL     1      -4.360   3.115  25.215  0.00  0.00    -0.350 OA
ATOM     10  C   UNL     1      -5.154   2.892  25.218  0.00  0.00    +0.180 C 
ATOM     13  C   UNL     1      -5.190   2.078  25.090  0.00  0.00    +0.198 C 
ATOM     14  O   UNL     1      -5.878   1.623  25.051  0.00  0.00    -0.219 OA
ATOM     15  C   UNL     1      -4.419   1.798  25.008  0.00  0.00    +0.120 C 
ENDROOT
BRANCH  15  16
ATOM     16  N   UNL     1      -4.199   1.014  24.873  0.00  0.00    -0.267 NA
ATOM     17  C   UNL     1      -4.008   0.764  24.110  0.00  0.00    +0.094 C 
ATOM     18  C   UNL     1      -3.789  -0.020  23.975  0.00  0.00    +0.108 C 
ATOM     19  N   UNL     1      -3.761  -0.554  24.603  0.00  0.00    -0.302 N 
ATOM     20  C   UNL     1      -3.953  -0.305  25.366  0.00  0.00    +0.108 C 
ATOM     21  C   UNL     1      -4.172   0.479  25.501  0.00  0.00    +0.094 C 
BRANCH  19  22
ATOM     22  C   UNL     1      -3.542  -1.338  24.468  0.00  0.00    +0.082 A 
ATOM     23  C   UNL     1      -4.108  -1.888  24.225  0.00  0.00    +0.018 A 
ATOM     24  C   UNL     1      -3.889  -2.671  24.091  0.00  0.00    +0.001 A 
ATOM     25  C   UNL     1      -3.105  -2.906  24.199  0.00  0.00    +0.003 A 
ATOM     26  C   UNL     1      -2.541  -2.357  24.442  0.00  0.00    +0.038 A 
ATOM     27  C   UNL     1      -2.759  -1.572  24.577  0.00  0.00    +0.152 A 
BRANCH  27  28
ATOM     28  O   UNL     1      -2.194  -1.022  24.820  0.00  0.00    -0.470 OA
ATOM     29  C   UNL     1      -1.409  -1.255  24.920  0.00  0.00    +0.253 C 
ENDBRANCH  27  28
ENDBRANCH  19  22
ENDBRANCH  15  16
BRANCH  10  11
ATOM     11  C   UNL     1      -5.798   3.396  25.329  0.00  0.00    +0.214 C 
ATOM     12  O   UNL     1      -5.707   4.092  25.763  0.00  0.00    -0.218 OA
ENDBRANCH  10  11
BRANCH   8   7
ATOM      7  C   UNL     1      -3.082   2.408  25.041  0.00  0.00    +0.146 C 
BRANCH   7   6
ATOM      4  C   UNL     1      -1.817   3.066  25.138  0.00  0.00    +0.272 C 
ATOM      5  O   UNL     1      -1.450   2.411  24.796  0.00  0.00    -0.271 OA
ATOM      6  N   UNL     1      -2.632   3.065  25.261  0.00  0.00    -0.201 NA
BRANCH   4   3
ATOM      3  C   UNL     1      -1.367   3.723  25.358  0.00  0.00    +0.229 C 
BRANCH   3   2
ATOM      1  C   UNL     1      -0.679   4.898  24.924  0.00  0.00    +0.175 C 
ATOM      2  O   UNL     1      -0.911   4.116  24.795  0.00  0.00    -0.342 OA
ENDBRANCH   3   2
ENDBRANCH   4   3
ENDBRANCH   7   6
ENDBRANCH   8   7
TORSDOF 8
ENDMDL
MODEL 2
REMARK VINA RESULT:      -8.7      0.922      4.500
REMARK  Name = 
REMARK  8 active torsions:
REMARK  status: ('A' for Active; 'I' for Inactive)
REMARK    1  A    between atoms: O_2  and  C_3
REMARK    2  A    between atoms: C_3  and  C_4
REMARK    3  A    between atoms: N_6  and  C_7
REMARK    4  A    between atoms: C_7  and  C_8
REMARK    5  A    between atoms: C_10  and  C_11
REMARK    6  A    between atoms: C_15  and  N_16
REMARK    7  A    between atoms: N_19  and  C_22
REMARK    8  A    between atoms: C_27  and  O_28
REMARK                            x       y       z     vdW  Elec       q    Type
REMARK                         _______ _______ _______ _____ _____    ______ ____
ROOT
ATOM      8  C   UNL     1      -4.594   1.424  24.987  0.00  0.00    +0.154 C 
ATOM      9  O   UNL     1      -5.388   1.212  25.055  0.00  0.00    -0.350 OA
ATOM     10  C   UNL     1      -5.828   1.900  25.168  0.00  0.00    +0.180 C 
ATOM     13  C   UNL     1      -5.305   2.538  25.171  0.00  0.00    +0.198 C 
ATOM     14  O   UNL     1      -5.510   3.332  25.268  0.00  0.00    -0.219 OA
ATOM     15  C   UNL     1      -4.543   2.244  25.059  0.00  0.00    +0.120 C 
ENDROOT
BRANCH  15  16
ATOM     16  N   UNL     1      -3.851   2.692  25.025  0.00  0.00    -0.267 NA
ATOM     17  C   UNL     1      -3.574   2.969  24.299  0.00  0.00    +0.094 C 
ATOM     18  C   UNL     1      -2.882   3.417  24.265  0.00  0.00    +0.108 C 
ATOM     19  N   UNL     1      -2.467   3.588  24.957  0.00  0.00    -0.302 N 
ATOM     20  C   UNL     1      -2.744   3.311  25.684  0.00  0.00    +0.108 C 
ATOM     21  C   UNL     1      -3.436   2.863  25.718  0.00  0.00    +0.094 C 
BRANCH  19  22
ATOM     22  C   UNL     1      -1.775   4.036  24.924  0.00  0.00    +0.082 A 
ATOM     23  C   UNL     1      -1.806   4.852  25.045  0.00  0.00    +0.018 A 
ATOM     24  C   UNL     1      -1.115   5.300  25.012  0.00  0.00    +0.001 A 
ATOM     25  C   UNL     1      -0.391   4.933  24.858  0.00  0.00    +0.003 A 
ATOM     26  C   UNL     1      -0.361   4.118  24.737  0.00  0.00    +0.038 A 
ATOM     27  C   UNL     1      -1.052   3.669  24.770  0.00  0.00    +0.152 A 
BRANCH  27  28
ATOM     28  O   UNL     1      -1.022   2.853  24.648  0.00  0.00    -0.470 OA
ATOM     29  C   UNL     1      -0.297   2.485  24.504  0.00  0.00    +0.253 C 
ENDBRANCH  27  28
ENDBRANCH  19  22
ENDBRANCH  15  16
BRANCH  10  11
ATOM     11  C   UNL     1      -6.647   1.942  25.263  0.00  0.00    +0.214 C 
ATOM     12  O   UNL     1      -7.144   1.579  24.712  0.00  0.00    -0.218 OA
ENDBRANCH  10  11
BRANCH   8   7
ATOM      7  C   UNL     1      -3.962   0.907  24.869  0.00  0.00    +0.146 C 
BRANCH   7   6
ATOM      4  C   UNL     1      -3.456  -0.426  24.782  0.00  0.00    +0.272 C 
ATOM      5  O   UNL     1      -2.730  -0.134  24.521  0.00  0.00    -0.271 OA
ATOM      6  N   UNL     1      -4.072   0.094  24.957  0.00  0.00    -0.201 NA
BRANCH   4   3
ATOM      3  C   UNL     1      -3.566  -1.240  24.870  0.00  0.00    +0.229 C 
BRANCH   3   2
ATOM      1  C   UNL     1      -3.239  -2.579  24.495  0.00  0.00    +0.175 C 
ATOM      2  O   UNL     1      -3.106  -1.767  24.432  0.00  0.00    -0.342 OA
ENDBRANCH   3   2
ENDBRANCH   4   3
ENDBRANCH   7   6
ENDBRANCH   8   7
TORSDOF 8
ENDMDL
MODEL 3
REMARK VINA RESULT:      -8.6      2.353      5.316
REMARK  Name = 
REMARK  8 active torsions:
REMARK  status: ('A' for Active; 'I' for Inactive)
REMARK    1  A    between atoms: O_2  and  C_3
REMARK    2  A    between atoms: C_3  and  C_4
REMARK    3  A    between atoms: N_6  and  C_7
REMARK    4  A    between atoms: C_7  and  C_8
REMARK    5  A    between atoms: C_10  and  C_11
REMARK    6  A    between atoms: C_15  and  N_16
REMARK    7  A    between atoms: N_19  and  C_22
REMARK    8  A    between atoms: C_27  and  O_28
REMARK                            x       y       z     vdW  Elec       q    Type
REMARK                         _______ _______ _______ _____ _____    ______ ____
ROOT
ATOM      8  C   UNL     1      -0.609  -0.027  24.231  0.00  0.00    +0.154 C 
ATOM      9  O   UNL     1      -0.748  -0.839  24.253  0.00  0.00    -0.350 OA
ATOM     10  C   UNL     1      -1.453  -0.967  24.663  0.00  0.00    +0.180 C 
ATOM     13  C   UNL     1      -1.749  -0.233  24.895  0.00  0.00    +0.198 C 
ATOM     14  O   UNL     1      -2.445  -0.102  25.319  0.00  0.00    -0.219 OA
ATOM     15  C   UNL     1      -1.227   0.348  24.628  0.00  0.00    +0.120 C 
ENDROOT
BRANCH  15  16
ATOM     16  N   UNL     1      -1.310   1.162  24.739  0.00  0.00    -0.267 NA
ATOM     17  C   UNL     1      -1.691   1.620  24.169  0.00  0.00    +0.094 C 
ATOM     18  C   UNL     1      -1.774   2.433  24.280  0.00  0.00    +0.108 C 
ATOM     19  N   UNL     1      -1.475   2.788  24.962  0.00  0.00    -0.302 N 
ATOM     20  C   UNL     1      -1.094   2.330  25.533  0.00  0.00    +0.108 C 
ATOM     21  C   UNL     1      -1.012   1.517  25.422  0.00  0.00    +0.094 C 
BRANCH  19  22
ATOM     22  C   UNL     1      -1.558   3.602  25.074  0.00  0.00    +0.082 A 
ATOM     23  C   UNL     1      -0.940   4.110  24.872  0.00  0.00    +0.018 A 
ATOM     24  C   UNL     1      -1.022   4.922  24.984  0.00  0.00    +0.001 A 
ATOM     25  C   UNL     1      -1.722   5.228  25.297  0.00  0.00    +0.003 A 
ATOM     26  C   UNL     1      -2.339   4.720  25.498  0.00  0.00    +0.038 A 
ATOM     27  C   UNL     1      -2.257   3.907  25.387  0.00  0.00    +0.152 A 
BRANCH  27  28
ATOM     28  O   UNL     1      -2.876   3.398  25.588  0.00  0.00    -0.470 OA
ATOM     29  C   UNL     1      -3.583   3.705  25.880  0.00  0.00    +0.253 C 
ENDBRANCH  27  28
ENDBRANCH  19  22
ENDBRANCH  15  16
BRANCH  10  11
ATOM     11  C   UNL     1      -1.800  -1.700  24.814  0.00  0.00    +0.214 C 
ATOM     12  O   UNL     1      -1.634  -2.344  24.324  0.00  0.00    -0.218 OA
ENDBRANCH  10  11
BRANCH   8   7
ATOM      7  C   UNL     1       0.036   0.346  23.876  0.00  0.00    +0.146 C 
BRANCH   7   6
ATOM      4  C   UNL     1       1.269   0.260  23.160  0.00  0.00    +0.272 C 
ATOM      5  O   UNL     1       1.406   1.061  23.300  0.00  0.00    -0.271 OA
ATOM      6  N   UNL     1       0.584  -0.099  23.448  0.00  0.00    -0.201 NA
BRANCH   4   3
ATOM      3  C   UNL     1       1.818  -0.185  22.731  0.00  0.00    +0.229 C 
BRANCH   3   2
ATOM      1  C   UNL     1       3.194  -0.202  22.346  0.00  0.00    +0.175 C 
ATOM      2  O   UNL     1       2.467   0.187  22.383  0.00  0.00    -0.342 OA
ENDBRANCH   3   2
ENDBRANCH   4   3
ENDBRANCH   7   6
ENDBRANCH   8   7
TORSDOF 8
ENDMDL
MODEL 4
REMARK VINA RESULT:      -8.5      0.979      2.863
REMARK  Name = 
REMARK  8 active torsions:
REMARK  status: ('A' for Active; 'I' for Inactive)
REMARK    1  A    between atoms: O_2  and  C_3
REMARK    2  A    between atoms: C_3  and  C_4
REMARK    3  A    between atoms: N_6  and  C_7
REMARK    4  A    between atoms: C_7  and  C_8
REMARK    5  A    between atoms: C_10  and  C_11
REMARK    6  A    between atoms: C_15  and  N_16
REMARK    7  A    between atoms: N_19  and  C_22
REMARK    8  A    between atoms: C_27  and  O_28
REMARK                            x       y       z     vdW  Elec       q    Type
REMARK                         _______ _______ _______ _____ _____    ______ ____
ROOT
ATOM      8  C   UNL     1      -2.544   2.518  24.958  0.00  0.00    +0.154 C 
ATOM      9  O   UNL     1      -2.039   3.163  25.049  0.00  0.00    -0.350 OA
ATOM     10  C   UNL     1      -1.262   2.889  24.997  0.00  0.00    +0.180 C 
ATOM     13  C   UNL     1      -1.288   2.074  24.874  0.00  0.00    +0.198 C 
ATOM     14  O   UNL     1      -0.636   1.575  24.791  0.00  0.00    -0.219 OA
ATOM     15  C   UNL     1      -2.080   1.844  24.850  0.00  0.00    +0.120 C 
ENDROOT
BRANCH  15  16
ATOM     16  N   UNL     1      -2.359   1.076  24.737  0.00  0.00    -0.267 NA
ATOM     17  C   UNL     1      -2.509   0.592  25.388  0.00  0.00    +0.094 C 
ATOM     18  C   UNL     1      -2.788  -0.177  25.275  0.00  0.00    +0.108 C 
ATOM     19  N   UNL     1      -2.916  -0.461  24.511  0.00  0.00    -0.302 N 
ATOM     20  C   UNL     1      -2.766   0.023  23.860  0.00  0.00    +0.108 C 
ATOM     21  C   UNL     1      -2.487   0.792  23.973  0.00  0.00    +0.094 C 
BRANCH  19  22
ATOM     22  C   UNL     1      -3.194  -1.229  24.398  0.00  0.00    +0.082 A 
ATOM     23  C   UNL     1      -3.988  -1.356  24.209  0.00  0.00    +0.018 A 
ATOM     24  C   UNL     1      -4.266  -2.124  24.096  0.00  0.00    +0.001 A 
ATOM     25  C   UNL     1      -3.752  -2.765  24.171  0.00  0.00    +0.003 A 
ATOM     26  C   UNL     1      -2.960  -2.638  24.359  0.00  0.00    +0.038 A 
ATOM     27  C   UNL     1      -2.680  -1.870  24.473  0.00  0.00    +0.152 A 
BRANCH  27  28
ATOM     28  O   UNL     1      -1.887  -1.743  24.661  0.00  0.00    -0.470 OA
ATOM     29  C   UNL     1      -1.365  -2.381  24.700  0.00  0.00    +0.253 C 
ENDBRANCH  27  28
ENDBRANCH  19  22
ENDBRANCH  15  16
BRANCH  10  11
ATOM     11  C   UNL     1      -0.581   3.350  25.058  0.00  0.00    +0.214 C 
ATOM     12  O   UNL     1      -0.643   4.169  25.137  0.00  0.00    -0.218 OA
ENDBRANCH  10  11
BRANCH   8   7
ATOM      7  C   UNL     1      -3.369   2.541  24.972  0.00  0.00    +0.146 C 
BRANCH   7   6
ATOM      4  C   UNL     1      -4.583   3.267  25.176  0.00  0.00    +0.272 C 
ATOM      5  O   UNL     1      -5.018   2.592  24.987  0.00  0.00    -0.271 OA
ATOM      6  N   UNL     1      -3.758   3.242  25.169  0.00  0.00    -0.201 NA
BRANCH   4   3
ATOM      3  C   UNL     1      -4.972   3.967  25.373  0.00  0.00    +0.229 C 
BRANCH   3   2
ATOM      1  C   UNL     1      -6.182   4.648  25.711  0.00  0.00    +0.175 C 
ATOM      2  O   UNL     1      -5.758   3.946  25.623  0.00  0.00    -0.342 OA
ENDBRANCH   3   2
ENDBRANCH   4   3
ENDBRANCH   7   6
ENDBRANCH   8   7
TORSDOF 8
ENDMDL
MODEL 5
REMARK VINA RESULT:      -8.4      1.456      4.425
REMARK  Name = 
REMARK  8 active torsions:
REMARK  status: ('A' for Active; 'I' for Inactive)
REMARK    1  A    between atoms: O_2  and  C_3
REMARK    2  A    between atoms: C_3  and  C_4
REMARK    3  A    between atoms: N_6  and  C_7
REMARK    4  A    between atoms: C_7  and  C_8
REMARK    5  A    between atoms: C_10  and  C_11
REMARK    6  A    between atoms: C_15  and  N_16
REMARK    7  A    between atoms: N_19  and  C_22
REMARK    8  A    between atoms: C_27  and  O_28
REMARK                            x       y       z     vdW  Elec       q    Type
REMARK                         _______ _______ _______ _____ _____    ______ ____
ROOT
ATOM      8  C   UNL     1      -2.728  -1.005  24.453  0.00  0.00    +0.154 C 
ATOM      9  O   UNL     1      -2.741  -1.809  24.271  0.00  0.00    -0.350 OA
ATOM     10  C   UNL     1      -3.527  -2.035  24.167  0.00  0.00    +0.180 C 
ATOM     13  C   UNL     1      -4.001  -1.370  24.285  0.00  0.00    +0.198 C 
ATOM     14  O   UNL     1      -4.824  -1.346  24.234  0.00  0.00    -0.219 OA
ATOM     15  C   UNL     1      -3.507  -0.733  24.462  0.00  0.00    +0.120 C 
ENDROOT
BRANCH  15  16
ATOM     16  N   UNL     1      -3.750   0.040  24.620  0.00  0.00    -0.267 NA
ATOM     17  C   UNL     1      -3.799   0.590  24.008  0.00  0.00    +0.094 C 
ATOM     18  C   UNL     1      -4.042   1.363  24.166  0.00  0.00    +0.108 C 
ATOM     19  N   UNL     1      -4.237   1.584  24.936  0.00  0.00    -0.302 N 
ATOM     20  C   UNL     1      -4.188   1.033  25.549  0.00  0.00    +0.108 C 
ATOM     21  C   UNL     1      -3.945   0.261  25.391  0.00  0.00    +0.094 C 
BRANCH  19  22
ATOM     22  C   UNL     1      -4.480   2.356  25.095  0.00  0.00    +0.082 A 
ATOM     23  C   UNL     1      -5.284   2.533  25.145  0.00  0.00    +0.018 A 
ATOM     24  C   UNL     1      -5.528   3.304  25.304  0.00  0.00    +0.001 A 
ATOM     25  C   UNL     1      -4.967   3.900  25.413  0.00  0.00    +0.003 A 
ATOM     26  C   UNL     1      -4.163   3.724  25.363  0.00  0.00    +0.038 A 
ATOM     27  C   UNL     1      -3.919   2.952  25.204  0.00  0.00    +0.152 A 
BRANCH  27  28
ATOM     28  O   UNL     1      -3.115   2.775  25.154  0.00  0.00    -0.470 OA
ATOM     29  C   UNL     1      -2.554   3.366  25.285  0.00  0.00    +0.253 C 
ENDBRANCH  27  28
ENDBRANCH  19  22
ENDBRANCH  15  16
BRANCH  10  11
ATOM     11  C   UNL     1      -3.793  -2.793  23.977  0.00  0.00    +0.214 C 
ATOM     12  O   UNL     1      -3.403  -3.454  24.282  0.00  0.00    -0.218 OA
ENDBRANCH  10  11
BRANCH   8   7
ATOM      7  C   UNL     1      -2.055  -0.551  24.601  0.00  0.00    +0.146 C 
BRANCH   7   6
ATOM      4  C   UNL     1      -0.659  -0.314  24.412  0.00  0.00    +0.272 C 
ATOM      5  O   UNL     1      -0.684   0.288  24.976  0.00  0.00    -0.271 OA
ATOM      6  N   UNL     1      -1.344  -0.733  24.224  0.00  0.00    -0.201 NA
BRANCH   4   3
ATOM      3  C   UNL     1       0.053  -0.496  24.034  0.00  0.00    +0.229 C 
BRANCH   3   2
ATOM      1  C   UNL     1       1.055  -0.157  23.074  0.00  0.00    +0.175 C 
ATOM      2  O   UNL     1       0.415   0.063  23.547  0.00  0.00    -0.342 OA
ENDBRANCH   3   2
ENDBRANCH   4   3
ENDBRANCH   7   6
ENDBRANCH   8   7
TORSDOF 8
ENDMDL
MODEL 6
REMARK VINA RESULT:      -8.2      1.600      5.180
REMARK  Name = 
REMARK  8 active torsions:
REMARK  status: ('A' for Active; 'I' for Inactive)
REMARK    1  A    between atoms: O_2  and  C_3
REMARK    2  A    between atoms: C_3  and  C_4
REMARK    3  A    between atoms: N_6  and  C_7
REMARK    4  A    between atoms: C_7  and  C_8
REMARK    5  A    between atoms: C_10  and  C_11
REMARK    6  A    between atoms: C_15  and  N_16
REMARK    7  A    between atoms: N_19  and  C_22
REMARK    8  A    between atoms: C_27  and  O_28
REMARK                            x       y       z     vdW  Elec       q    Type
REMARK                         _______ _______ _______ _____ _____    ______ ____
ROOT
ATOM      8  C   UNL     1      -1.371   0.098  24.422  0.00  0.00    +0.154 C 
ATOM      9  O   UNL     1      -0.644  -0.181  24.148  0.00  0.00    -0.350 OA
ATOM     10  C   UNL     1      -0.228   0.458  23.832  0.00  0.00    +0.180 C 
ATOM     13  C   UNL     1      -0.698   1.131  23.911  0.00  0.00    +0.198 C 
ATOM     14  O   UNL     1      -0.497   1.894  23.667  0.00  0.00    -0.219 OA
ATOM     15  C   UNL     1      -1.404   0.909  24.275  0.00  0.00    +0.120 C 
ENDROOT
BRANCH  15  16
ATOM     16  N   UNL     1      -2.033   1.411  24.460  0.00  0.00    -0.267 NA
ATOM     17  C   UNL     1      -2.610   1.575  23.895  0.00  0.00    +0.094 C 
ATOM     18  C   UNL     1      -3.239   2.076  24.080  0.00  0.00    +0.108 C 
ATOM     19  N   UNL     1      -3.290   2.413  24.831  0.00  0.00    -0.302 N 
ATOM     20  C   UNL     1      -2.712   2.249  25.397  0.00  0.00    +0.108 C 
ATOM     21  C   UNL     1      -2.083   1.748  25.212  0.00  0.00    +0.094 C 
BRANCH  19  22
ATOM     22  C   UNL     1      -3.918   2.915  25.017  0.00  0.00    +0.082 A 
ATOM     23  C   UNL     1      -3.814   3.733  24.989  0.00  0.00    +0.018 A 
ATOM     24  C   UNL     1      -4.441   4.234  25.175  0.00  0.00    +0.001 A 
ATOM     25  C   UNL     1      -5.174   3.919  25.388  0.00  0.00    +0.003 A 
ATOM     26  C   UNL     1      -5.277   3.101  25.415  0.00  0.00    +0.038 A 
ATOM     27  C   UNL     1      -4.649   2.599  25.230  0.00  0.00    +0.152 A 
BRANCH  27  28
ATOM     28  O   UNL     1      -4.753   1.780  25.257  0.00  0.00    -0.470 OA
ATOM     29  C   UNL     1      -5.491   1.465  25.449  0.00  0.00    +0.253 C 
ENDBRANCH  27  28
ENDBRANCH  19  22
ENDBRANCH  15  16
BRANCH  10  11
ATOM     11  C   UNL     1       0.525   0.427  23.496  0.00  0.00    +0.214 C 
ATOM     12  O   UNL     1       0.788  -0.268  23.137  0.00  0.00    -0.218 OA
ENDBRANCH  10  11
BRANCH   8   7
ATOM      7  C   UNL     1      -1.961  -0.354  24.780  0.00  0.00    +0.146 C 
BRANCH   7   6
ATOM      4  C   UNL     1      -2.606  -1.616  24.963  0.00  0.00    +0.272 C 
ATOM      5  O   UNL     1      -3.019  -1.311  25.609  0.00  0.00    -0.271 OA
ATOM      6  N   UNL     1      -2.077  -1.138  24.548  0.00  0.00    -0.201 NA
BRANCH   4   3
ATOM      3  C   UNL     1      -2.722  -2.400  24.732  0.00  0.00    +0.229 C 
BRANCH   3   2
ATOM      1  C   UNL     1      -3.695  -3.324  24.240  0.00  0.00    +0.175 C 
ATOM      2  O   UNL     1      -3.474  -2.735  24.775  0.00  0.00    -0.342 OA
ENDBRANCH   3   2
ENDBRANCH   4   3
ENDBRANCH   7   6
ENDBRANCH   8   7
TORSDOF 8
ENDMDL
MODEL 7
REMARK VINA RESULT:      -7.9      2.242      3.243
REMARK  Name = 
REMARK  8 active torsions:
REMARK  status: ('A' for Active; 'I' for Inactive)
REMARK    1  A    between atoms: O_2  and  C_3
REMARK    2  A    between atoms: C_3  and  C_4
REMARK    3  A    between atoms: N_6  and  C_7
REMARK    4  A    between atoms: C_7  and  C_8
REMARK    5  A    between atoms: C_10  and  C_11
REMARK    6  A    between atoms: C_15  and  N_16
REMARK    7  A    between atoms: N_19  and  C_22
REMARK    8  A    between atoms: C_27  and  O_28
REMARK                            x       y       z     vdW  Elec       q    Type
REMARK                         _______ _______ _______ _____ _____    ______ ____
ROOT
ATOM      8  C   UNL     1      -0.625   1.846  24.401  0.00  0.00    +0.154 C 
ATOM      9  O   UNL     1      -0.409   2.629  24.543  0.00  0.00    -0.350 OA
ATOM     10  C   UNL     1      -1.076   3.034  24.811  0.00  0.00    +0.180 C 
ATOM     13  C   UNL     1      -1.705   2.501  24.835  0.00  0.00    +0.198 C 
ATOM     14  O   UNL     1      -2.477   2.672  25.070  0.00  0.00    -0.219 OA
ATOM     15  C   UNL     1      -1.427   1.766  24.581  0.00  0.00    +0.120 C 
ENDROOT
BRANCH  15  16
ATOM     16  N   UNL     1      -1.872   1.075  24.519  0.00  0.00    -0.267 NA
ATOM     17  C   UNL     1      -1.958   0.579  25.172  0.00  0.00    +0.094 C 
ATOM     18  C   UNL     1      -2.403  -0.113  25.110  0.00  0.00    +0.108 C 
ATOM     19  N   UNL     1      -2.763  -0.309  24.394  0.00  0.00    -0.302 N 
ATOM     20  C   UNL     1      -2.677   0.187  23.740  0.00  0.00    +0.108 C 
ATOM     21  C   UNL     1      -2.231   0.879  23.802  0.00  0.00    +0.094 C 
BRANCH  19  22
ATOM     22  C   UNL     1      -3.208  -1.000  24.330  0.00  0.00    +0.082 A 
ATOM     23  C   UNL     1      -4.027  -0.956  24.238  0.00  0.00    +0.018 A 
ATOM     24  C   UNL     1      -4.472  -1.646  24.175  0.00  0.00    +0.001 A 
ATOM     25  C   UNL     1      -4.100  -2.383  24.204  0.00  0.00    +0.003 A 
ATOM     26  C   UNL     1      -3.282  -2.427  24.296  0.00  0.00    +0.038 A 
ATOM     27  C   UNL     1      -2.835  -1.736  24.359  0.00  0.00    +0.152 A 
BRANCH  27  28
ATOM     28  O   UNL     1      -2.016  -1.780  24.452  0.00  0.00    -0.470 OA
ATOM     29  C   UNL     1      -1.639  -2.513  24.440  0.00  0.00    +0.253 C 
ENDBRANCH  27  28
ENDBRANCH  19  22
ENDBRANCH  15  16
BRANCH  10  11
ATOM     11  C   UNL     1      -1.107   3.832  25.019  0.00  0.00    +0.214 C 
ATOM     12  O   UNL     1      -0.411   4.272  25.073  0.00  0.00    -0.218 OA
ENDBRANCH  10  11
BRANCH   8   7
ATOM      7  C   UNL     1      -0.129   1.247  24.127  0.00  0.00    +0.146 C 
BRANCH   7   6
ATOM      4  C   UNL     1       1.113   0.843  23.547  0.00  0.00    +0.272 C 
ATOM      5  O   UNL     1       0.815   0.082  23.438  0.00  0.00    -0.271 OA
ATOM      6  N   UNL     1       0.642   1.426  23.891  0.00  0.00    -0.201 NA
BRANCH   4   3
ATOM      3  C   UNL     1       1.884   1.022  23.311  0.00  0.00    +0.229 C 
BRANCH   3   2
ATOM      1  C   UNL     1       3.105   0.623  22.684  0.00  0.00    +0.175 C 
ATOM      2  O   UNL     1       2.305   0.491  22.841  0.00  0.00    -0.342 OA
ENDBRANCH   3   2
ENDBRANCH   4   3
ENDBRANCH   7   6
ENDBRANCH   8   7
TORSDOF 8
ENDMDL
MODEL 8
REMARK VINA RESULT:      -7.7     17.267     19.336
REMARK  Name = 
REMARK  8 active torsions:
REMARK  status: ('A' for Active; 'I' for Inactive)
REMARK    1  A    between atoms: O_2  and  C_3
REMARK    2  A    between atoms: C_3  and  C_4
REMARK    3  A    between atoms: N_6  and  C_7
REMARK    4  A    between atoms: C_7  and  C_8
REMARK    5  A    between atoms: C_10  and  C_11
REMARK    6  A    between atoms: C_15  and  N_16
REMARK    7  A    between atoms: N_19  and  C_22
REMARK    8  A    between atoms: C_27  and  O_28
REMARK                            x       y       z     vdW  Elec       q    Type
REMARK                         _______ _______ _______ _____ _____    ______ ____
ROOT
ATOM      8  C   UNL     1      12.270   8.173  19.871  0.00  0.00    +0.154 C 
ATOM      9  O   UNL     1      11.646   8.512  20.291  0.00  0.00    -0.350 OA
ATOM     10  C   UNL     1      11.885   8.602  21.076  0.00  0.00    +0.180 C 
ATOM     13  C   UNL     1      12.657   8.319  21.140  0.00  0.00    +0.198 C 
ATOM     14  O   UNL     1      13.111   8.303  21.830  0.00  0.00    -0.219 OA
ATOM     15  C   UNL     1      12.895   8.054  20.396  0.00  0.00    +0.120 C 
ENDROOT
BRANCH  15  16
ATOM     16  N   UNL     1      13.629   7.727  20.211  0.00  0.00    -0.267 NA
ATOM     17  C   UNL     1      14.233   8.207  19.919  0.00  0.00    +0.094 C 
ATOM     18  C   UNL     1      14.968   7.880  19.734  0.00  0.00    +0.108 C 
ATOM     19  N   UNL     1      15.098   7.072  19.839  0.00  0.00    -0.302 N 
ATOM     20  C   UNL     1      14.493   6.591  20.131  0.00  0.00    +0.108 C 
ATOM     21  C   UNL     1      13.759   6.918  20.316  0.00  0.00    +0.094 C 
BRANCH  19  22
ATOM     22  C   UNL     1      15.832   6.744  19.654  0.00  0.00    +0.082 A 
ATOM     23  C   UNL     1      15.947   6.377  18.923  0.00  0.00    +0.018 A 
ATOM     24  C   UNL     1      16.679   6.050  18.738  0.00  0.00    +0.001 A 
ATOM     25  C   UNL     1      17.299   6.088  19.282  0.00  0.00    +0.003 A 
ATOM     26  C   UNL     1      17.184   6.454  20.011  0.00  0.00    +0.038 A 
ATOM     27  C   UNL     1      16.451   6.783  20.198  0.00  0.00    +0.152 A 
BRANCH  27  28
ATOM     28  O   UNL     1      16.336   7.149  20.928  0.00  0.00    -0.470 OA
ATOM     29  C   UNL     1      16.960   7.204  21.464  0.00  0.00    +0.253 C 
ENDBRANCH  27  28
ENDBRANCH  19  22
ENDBRANCH  15  16
BRANCH  10  11
ATOM     11  C   UNL     1      11.431   8.920  21.687  0.00  0.00    +0.214 C 
ATOM     12  O   UNL     1      10.609   8.845  21.671  0.00  0.00    -0.218 OA
ENDBRANCH  10  11
BRANCH   8   7
ATOM      7  C   UNL     1      12.270   7.987  19.068  0.00  0.00    +0.146 C 
BRANCH   7   6
ATOM      4  C   UNL     1      11.646   8.088  17.786  0.00  0.00    +0.272 C 
ATOM      5  O   UNL     1      12.075   7.432  17.526  0.00  0.00    -0.271 OA
ATOM      6  N   UNL     1      11.743   8.365  18.556  0.00  0.00    -0.201 NA
BRANCH   4   3
ATOM      3  C   UNL     1      11.120   8.466  17.275  0.00  0.00    +0.229 C 
BRANCH   3   2
ATOM      1  C   UNL     1      10.757   8.856  15.948  0.00  0.00    +0.175 C 
ATOM      2  O   UNL     1      11.217   8.396  16.458  0.00  0.00    -0.342 OA
ENDBRANCH   3   2
ENDBRANCH   4   3
ENDBRANCH   7   6
ENDBRANCH   8   7
TORSDOF 8
ENDMDL
MODEL 9
REMARK VINA RESULT:      -7.7     16.704     19.335
REMARK  Name = 
REMARK  8 active torsions:
REMARK  status: ('A' for Active; 'I' for Inactive)
REMARK    1  A    between atoms: O_2  and  C_3
REMARK    2  A    between atoms: C_3  and  C_4
REMARK    3  A    between atoms: N_6  and  C_7
REMARK    4  A    between atoms: C_7  and  C_8
REMARK    5  A    between atoms: C_10  and  C_11
REMARK    6  A    between atoms: C_15  and  N_16
REMARK    7  A    between atoms: N_19  and  C_22
REMARK    8  A    between atoms: C_27  and  O_28
REMARK                            x       y       z     vdW  Elec       q    Type
REMARK                         _______ _______ _______ _____ _____    ______ ____
ROOT
ATOM      8  C   UNL     1      12.267   8.361  19.022  0.00  0.00    +0.154 C 
ATOM      9  O   UNL     1      11.609   8.547  18.562  0.00  0.00    -0.350 OA
ATOM     10  C   UNL     1      11.755   8.291  17.791  0.00  0.00    +0.180 C 
ATOM     13  C   UNL     1      12.505   7.946  17.776  0.00  0.00    +0.198 C 
ATOM     14  O   UNL     1      12.873   7.615  17.115  0.00  0.00    -0.219 OA
ATOM     15  C   UNL     1      12.821   7.989  18.537  0.00  0.00    +0.120 C 
ENDROOT
BRANCH  15  16
ATOM     16  N   UNL     1      13.562   7.710  18.770  0.00  0.00    -0.267 NA
ATOM     17  C   UNL     1      13.631   6.965  19.117  0.00  0.00    +0.094 C 
ATOM     18  C   UNL     1      14.372   6.685  19.350  0.00  0.00    +0.108 C 
ATOM     19  N   UNL     1      15.043   7.151  19.236  0.00  0.00    -0.302 N 
ATOM     20  C   UNL     1      14.974   7.897  18.889  0.00  0.00    +0.108 C 
ATOM     21  C   UNL     1      14.233   8.176  18.656  0.00  0.00    +0.094 C 
BRANCH  19  22
ATOM     22  C   UNL     1      15.783   6.873  19.469  0.00  0.00    +0.082 A 
ATOM     23  C   UNL     1      16.240   6.427  18.946  0.00  0.00    +0.018 A 
ATOM     24  C   UNL     1      16.979   6.148  19.178  0.00  0.00    +0.001 A 
ATOM     25  C   UNL     1      17.265   6.315  19.935  0.00  0.00    +0.003 A 
ATOM     26  C   UNL     1      16.809   6.760  20.458  0.00  0.00    +0.038 A 
ATOM     27  C   UNL     1      16.068   7.039  20.226  0.00  0.00    +0.152 A 
BRANCH  27  28
ATOM     28  O   UNL     1      15.612   7.485  20.749  0.00  0.00    -0.470 OA
ATOM     29  C   UNL     1      15.903   7.663  21.500  0.00  0.00    +0.253 C 
ENDBRANCH  27  28
ENDBRANCH  19  22
ENDBRANCH  15  16
BRANCH  10  11
ATOM     11  C   UNL     1      11.242   8.366  17.149  0.00  0.00    +0.214 C 
ATOM     12  O   UNL     1      10.426   8.382  17.274  0.00  0.00    -0.218 OA
ENDBRANCH  10  11
BRANCH   8   7
ATOM      7  C   UNL     1      12.357   8.519  19.827  0.00  0.00    +0.146 C 
BRANCH   7   6
ATOM      4  C   UNL     1      11.791   8.926  21.074  0.00  0.00    +0.272 C 
ATOM      5  O   UNL     1      12.548   9.000  21.394  0.00  0.00    -0.271 OA
ATOM      6  N   UNL     1      11.695   8.686  20.291  0.00  0.00    -0.201 NA
BRANCH   4   3
ATOM      3  C   UNL     1      11.129   9.094  21.538  0.00  0.00    +0.229 C 
BRANCH   3   2
ATOM      1  C   UNL     1      10.495   9.094  22.819  0.00  0.00    +0.175 C 
ATOM      2  O   UNL     1      11.180   9.049  22.360  0.00  0.00    -0.342 OA
ENDBRANCH   3   2
ENDBRANCH   4   3
ENDBRANCH   7   6
ENDBRANCH   8   7
TORSDOF 8
ENDMDL
MODEL 10
REMARK VINA RESULT:      -7.5     16.769     19.511
REMARK  Name = 
REMARK  8 active torsions:
REMARK  status: ('A' for Active; 'I' for Inactive)
REMARK    1  A    between atoms: O_2  and  C_3
REMARK    2  A    between atoms: C_3  and  C_4
REMARK    3  A    between atoms: N_6  and  C_7
REMARK    4  A    between atoms: C_7  and  C_8
REMARK    5  A    between atoms: C_10  and  C_11
REMARK    6  A    between atoms: C_15  and  N_16
REMARK    7  A    between atoms: N_19  and  C_22
REMARK    8  A    between atoms: C_27  and  O_28
REMARK                            x       y       z     vdW  Elec       q    Type
REMARK                         _______ _______ _______ _____ _____    ______ ____
ROOT
ATOM      8  C   UNL     1      14.852   7.027  18.880  0.00  0.00    +0.154 C 
ATOM      9  O   UNL     1      15.603   6.725  18.724  0.00  0.00    -0.350 OA
ATOM     10  C   UNL     1      15.939   6.491  19.440  0.00  0.00    +0.180 C 
ATOM     13  C   UNL     1      15.394   6.648  20.040  0.00  0.00    +0.198 C 
ATOM     14  O   UNL     1      15.502   6.499  20.845  0.00  0.00    -0.219 OA
ATOM     15  C   UNL     1      14.722   6.979  19.694  0.00  0.00    +0.120 C 
ENDROOT
BRANCH  15  16
ATOM     16  N   UNL     1      14.041   7.220  20.092  0.00  0.00    -0.267 NA
ATOM     17  C   UNL     1      13.415   6.693  20.196  0.00  0.00    +0.094 C 
ATOM     18  C   UNL     1      12.734   6.934  20.594  0.00  0.00    +0.108 C 
ATOM     19  N   UNL     1      12.679   7.702  20.889  0.00  0.00    -0.302 N 
ATOM     20  C   UNL     1      13.305   8.230  20.785  0.00  0.00    +0.108 C 
ATOM     21  C   UNL     1      13.986   7.989  20.387  0.00  0.00    +0.094 C 
BRANCH  19  22
ATOM     22  C   UNL     1      11.998   7.944  21.287  0.00  0.00    +0.082 A 
ATOM     23  C   UNL     1      11.952   7.869  22.107  0.00  0.00    +0.018 A 
ATOM     24  C   UNL     1      11.272   8.110  22.505  0.00  0.00    +0.001 A 
ATOM     25  C   UNL     1      10.636   8.427  22.084  0.00  0.00    +0.003 A 
ATOM     26  C   UNL     1      10.683   8.503  21.265  0.00  0.00    +0.038 A 
ATOM     27  C   UNL     1      11.363   8.261  20.865  0.00  0.00    +0.152 A 
BRANCH  27  28
ATOM     28  O   UNL     1      11.410   8.337  20.045  0.00  0.00    -0.470 OA
ATOM     29  C   UNL     1      10.787   8.681  19.627  0.00  0.00    +0.253 C 
ENDBRANCH  27  28
ENDBRANCH  19  22
ENDBRANCH  15  16
BRANCH  10  11
ATOM     11  C   UNL     1      16.687   6.158  19.539  0.00  0.00    +0.214 C 
ATOM     12  O   UNL     1      17.053   5.771  18.908  0.00  0.00    -0.218 OA
ENDBRANCH  10  11
BRANCH   8   7
ATOM      7  C   UNL     1      14.322   7.324  18.322  0.00  0.00    +0.146 C 
BRANCH   7   6
ATOM      4  C   UNL     1      14.079   7.838  17.011  0.00  0.00    +0.272 C 
ATOM      5  O   UNL     1      13.271   7.698  17.106  0.00  0.00    -0.271 OA
ATOM      6  N   UNL     1      14.604   7.651  17.619  0.00  0.00    -0.201 NA
BRANCH   4   3
ATOM      3  C   UNL     1      14.362   8.165  16.308  0.00  0.00    +0.229 C 
BRANCH   3   2
ATOM      1  C   UNL     1      14.117   8.995  15.171  0.00  0.00    +0.175 C 
ATOM      2  O   UNL     1      13.835   8.501  15.769  0.00  0.00    -0.342 OA
ENDBRANCH   3   2
ENDBRANCH   4   3
ENDBRANCH   7   6
ENDBRANCH   8   7
TORSDOF 8
ENDMDL
