MODEL 1
REMARK VINA RESULT:     -12.9      0.000      0.000
REMARK  Name = 
REMARK  6 active torsions:
REMARK  status: ('A' for Active; 'I' for Inactive)
REMARK    1  A    between atoms: C_2  and  C_5
REMARK    2  A    between atoms: C_8  and  C_11
REMARK    3  A    between atoms: C_13  and  C_14
REMARK    4  A    between atoms: C_14  and  C_15
REMARK    5  A    between atoms: C_20  and  C_21
REMARK    6  A    between atoms: C_21  and  C_22
REMARK                            x       y       z     vdW  Elec       q    Type
REMARK                         _______ _______ _______ _____ _____    ______ ____
ROOT
ATOM     14  C   UNL     1      -4.324   2.526  24.481  0.00  0.00    +0.051 C 
ENDROOT
BRANCH  14  15
ATOM     15  C   UNL     1      -4.458   3.038  25.115  0.00  0.00    +0.024 C 
ATOM     16  C   UNL     1      -5.203   3.073  25.467  0.00  0.00    +0.089 C 
ATOM     17  N   UNL     1      -5.337   3.584  26.101  0.00  0.00    -0.218 NA
ATOM     18  C   UNL     1      -4.724   4.061  26.382  0.00  0.00    +0.089 C 
ATOM     19  C   UNL     1      -3.979   4.026  26.029  0.00  0.00    +0.019 C 
ATOM     20  C   UNL     1      -3.846   3.514  25.396  0.00  0.00    +0.012 C 
BRANCH  20  21
ATOM     21  C   UNL     1      -3.100   3.479  25.043  0.00  0.00    +0.085 C 
BRANCH  21  22
ATOM     22  C   UNL     1      -2.622   4.151  25.023  0.00  0.00    +0.226 C 
ATOM     23  O   UNL     1      -2.963   4.902  25.042  0.00  0.00    -0.275 OA
ATOM     24  N   UNL     1      -1.802   4.072  24.985  0.00  0.00    -0.280 N 
ATOM     25  C   UNL     1      -1.323   4.744  24.966  0.00  0.00    +0.093 C 
ATOM     26  C   UNL     1      -0.502   4.664  24.927  0.00  0.00    +0.022 C 
ATOM     27  C   UNL     1      -0.161   3.914  24.909  0.00  0.00    +0.004 C 
ATOM     28  C   UNL     1      -0.641   3.242  24.929  0.00  0.00    +0.022 C 
ATOM     29  C   UNL     1      -1.460   3.321  24.967  0.00  0.00    +0.093 C 
ENDBRANCH  21  22
ENDBRANCH  20  21
ENDBRANCH  14  15
BRANCH  14  13
ATOM     11  C   UNL     1      -4.482   0.400  24.589  0.00  0.00    +0.177 A 
ATOM     12  C   UNL     1      -4.030   1.086  24.505  0.00  0.00    +0.058 A 
ATOM     13  C   UNL     1      -4.541   1.732  24.541  0.00  0.00    +0.101 A 
ATOM     30  N   UNL     1      -5.308   1.446  24.647  0.00  0.00    -0.081 NA
ATOM     31  O   UNL     1      -5.271   0.623  24.677  0.00  0.00    -0.354 OA
BRANCH  11   8
ATOM      5  C   UNL     1      -3.618  -1.919  24.579  0.00  0.00    -0.023 A 
ATOM      6  C   UNL     1      -3.963  -1.606  23.899  0.00  0.00    -0.004 A 
ATOM      7  C   UNL     1      -4.251  -0.832  23.902  0.00  0.00    +0.003 A 
ATOM      8  C   UNL     1      -4.194  -0.373  24.586  0.00  0.00    +0.037 A 
ATOM      9  C   UNL     1      -3.849  -0.688  25.265  0.00  0.00    +0.003 A 
ATOM     10  C   UNL     1      -3.561  -1.461  25.262  0.00  0.00    -0.004 A 
BRANCH   5   2
ATOM      1  C   UNL     1      -3.042  -3.466  24.573  0.00  0.00    +0.004 C 
ATOM      2  C   UNL     1      -3.330  -2.693  24.576  0.00  0.00    +0.019 C 
ATOM      3  C   UNL     1      -4.023  -2.949  24.209  0.00  0.00    +0.004 C 
ATOM      4  C   UNL     1      -2.637  -2.436  24.944  0.00  0.00    +0.004 C 
ENDBRANCH   5   2
ENDBRANCH  11   8
ENDBRANCH  14  13
TORSDOF 6
ENDMDL
MODEL 2
REMARK VINA RESULT:     -11.4      1.591      3.099
REMARK  Name = 
REMARK  6 active torsions:
REMARK  status: ('A' for Active; 'I' for Inactive)
REMARK    1  A    between atoms: C_2  and  C_5
REMARK    2  A    between atoms: C_8  and  C_11
REMARK    3  A    between atoms: C_13  and  C_14
REMARK    4  A    between atoms: C_14  and  C_15
REMARK    5  A    between atoms: C_20  and  C_21
REMARK    6  A    between atoms: C_21  and  C_22
REMARK                            x       y       z     vdW  Elec       q    Type
REMARK                         _______ _______ _______ _____ _____    ______ ____
ROOT
ATOM     14  C   UNL     1      -1.046   1.772  25.825  0.00  0.00    +0.051 C 
ENDROOT
BRANCH  14  15
ATOM     15  C   UNL     1      -0.837   2.384  25.311  0.00  0.00    +0.024 C 
ATOM     16  C   UNL     1      -0.110   2.368  24.924  0.00  0.00    +0.089 C 
ATOM     17  N   UNL     1       0.099   2.979  24.411  0.00  0.00    -0.218 NA
ATOM     18  C   UNL     1      -0.421   3.607  24.285  0.00  0.00    +0.089 C 
ATOM     19  C   UNL     1      -1.150   3.623  24.672  0.00  0.00    +0.019 C 
ATOM     20  C   UNL     1      -1.358   3.012  25.185  0.00  0.00    +0.012 C 
BRANCH  20  21
ATOM     21  C   UNL     1      -2.087   3.028  25.572  0.00  0.00    +0.085 C 
BRANCH  21  22
ATOM     22  C   UNL     1      -2.536   3.720  25.577  0.00  0.00    +0.226 C 
ATOM     23  O   UNL     1      -2.163   4.454  25.645  0.00  0.00    -0.275 OA
ATOM     24  N   UNL     1      -3.357   3.680  25.514  0.00  0.00    -0.280 N 
ATOM     25  C   UNL     1      -3.806   4.372  25.519  0.00  0.00    +0.093 C 
ATOM     26  C   UNL     1      -4.628   4.330  25.456  0.00  0.00    +0.022 C 
ATOM     27  C   UNL     1      -5.000   3.598  25.389  0.00  0.00    +0.004 C 
ATOM     28  C   UNL     1      -4.551   2.905  25.384  0.00  0.00    +0.022 C 
ATOM     29  C   UNL     1      -3.730   2.946  25.447  0.00  0.00    +0.093 C 
ENDBRANCH  21  22
ENDBRANCH  20  21
ENDBRANCH  14  15
BRANCH  14  13
ATOM     11  C   UNL     1      -1.581  -0.173  25.128  0.00  0.00    +0.177 A 
ATOM     12  C   UNL     1      -1.790   0.576  25.406  0.00  0.00    +0.058 A 
ATOM     13  C   UNL     1      -1.096   0.998  25.544  0.00  0.00    +0.101 A 
ATOM     30  N   UNL     1      -0.458   0.512  25.351  0.00  0.00    -0.081 NA
ATOM     31  O   UNL     1      -0.758  -0.212  25.094  0.00  0.00    -0.354 OA
BRANCH  11   8
ATOM      5  C   UNL     1      -3.150  -1.983  24.505  0.00  0.00    -0.023 A 
ATOM      6  C   UNL     1      -2.338  -2.087  24.399  0.00  0.00    -0.004 A 
ATOM      7  C   UNL     1      -1.815  -1.483  24.607  0.00  0.00    +0.003 A 
ATOM      8  C   UNL     1      -2.104  -0.776  24.920  0.00  0.00    +0.037 A 
ATOM      9  C   UNL     1      -2.916  -0.674  25.026  0.00  0.00    +0.003 A 
ATOM     10  C   UNL     1      -3.439  -1.277  24.818  0.00  0.00    -0.004 A 
BRANCH   5   2
ATOM      1  C   UNL     1      -4.196  -3.189  24.089  0.00  0.00    +0.004 C 
ATOM      2  C   UNL     1      -3.673  -2.586  24.297  0.00  0.00    +0.019 C 
ATOM      3  C   UNL     1      -3.277  -3.104  24.802  0.00  0.00    +0.004 C 
ATOM      4  C   UNL     1      -4.069  -2.068  23.792  0.00  0.00    +0.004 C 
ENDBRANCH   5   2
ENDBRANCH  11   8
ENDBRANCH  14  13
TORSDOF 6
ENDMDL
MODEL 3
REMARK VINA RESULT:     -11.2      2.392      6.423
REMARK  Name = 
REMARK  6 active torsions:
REMARK  status: ('A' for Active; 'I' for Inactive)
REMARK    1  A    between atoms: C_2  and  C_5
REMARK    2  A    between atoms: C_8  and  C_11
REMARK    3  A    between atoms: C_13  and  C_14
REMARK    4  A    between atoms: C_14  and  C_15
REMARK    5  A    between atoms: C_20  and  C_21
REMARK    6  A    between atoms: C_21  and  C_22
REMARK                            x       y       z     vdW  Elec       q    Type
REMARK                         _______ _______ _______ _____ _____    ______ ____
ROOT
ATOM     14  C   UNL     1      -1.248   0.098  25.488  0.00  0.00    +0.051 C 
ENDROOT
BRANCH  14  15
ATOM     15  C   UNL     1      -0.850  -0.319  24.897  0.00  0.00    +0.024 C 
ATOM     16  C   UNL     1      -0.088  -0.096  24.675  0.00  0.00    +0.089 C 
ATOM     17  N   UNL     1       0.310  -0.513  24.085  0.00  0.00    -0.218 NA
ATOM     18  C   UNL     1      -0.056  -1.155  23.717  0.00  0.00    +0.089 C 
ATOM     19  C   UNL     1      -0.819  -1.379  23.940  0.00  0.00    +0.019 C 
ATOM     20  C   UNL     1      -1.215  -0.962  24.529  0.00  0.00    +0.012 C 
BRANCH  20  21
ATOM     21  C   UNL     1      -1.978  -1.186  24.752  0.00  0.00    +0.085 C 
BRANCH  21  22
ATOM     22  C   UNL     1      -2.241  -1.954  24.607  0.00  0.00    +0.226 C 
ATOM     23  O   UNL     1      -1.725  -2.592  24.702  0.00  0.00    -0.275 OA
ATOM     24  N   UNL     1      -3.019  -2.086  24.366  0.00  0.00    -0.280 N 
ATOM     25  C   UNL     1      -3.281  -2.854  24.221  0.00  0.00    +0.093 C 
ATOM     26  C   UNL     1      -4.060  -2.985  23.980  0.00  0.00    +0.022 C 
ATOM     27  C   UNL     1      -4.575  -2.348  23.885  0.00  0.00    +0.004 C 
ATOM     28  C   UNL     1      -4.311  -1.579  24.030  0.00  0.00    +0.022 C 
ATOM     29  C   UNL     1      -3.534  -1.448  24.271  0.00  0.00    +0.093 C 
ENDBRANCH  21  22
ENDBRANCH  20  21
ENDBRANCH  14  15
BRANCH  14  13
ATOM     11  C   UNL     1      -0.953   2.203  25.687  0.00  0.00    +0.177 A 
ATOM     12  C   UNL     1      -1.345   1.559  25.352  0.00  0.00    +0.058 A 
ATOM     13  C   UNL     1      -1.021   0.870  25.669  0.00  0.00    +0.101 A 
ATOM     30  N   UNL     1      -0.429   1.089  26.200  0.00  0.00    -0.081 NA
ATOM     31  O   UNL     1      -0.387   1.912  26.211  0.00  0.00    -0.354 OA
BRANCH  11   8
ATOM      5  C   UNL     1      -1.400   4.589  25.204  0.00  0.00    -0.023 A 
ATOM      6  C   UNL     1      -1.959   4.140  25.611  0.00  0.00    -0.004 A 
ATOM      7  C   UNL     1      -1.810   3.344  25.772  0.00  0.00    +0.003 A 
ATOM      8  C   UNL     1      -1.102   2.998  25.526  0.00  0.00    +0.037 A 
ATOM      9  C   UNL     1      -0.544   3.449  25.119  0.00  0.00    +0.003 A 
ATOM     10  C   UNL     1      -0.693   4.244  24.957  0.00  0.00    -0.004 A 
BRANCH   5   2
ATOM      1  C   UNL     1      -1.697   6.180  24.881  0.00  0.00    +0.004 C 
ATOM      2  C   UNL     1      -1.548   5.384  25.042  0.00  0.00    +0.019 C 
ATOM      3  C   UNL     1      -0.804   5.453  24.693  0.00  0.00    +0.004 C 
ATOM      4  C   UNL     1      -2.293   5.316  25.391  0.00  0.00    +0.004 C 
ENDBRANCH   5   2
ENDBRANCH  11   8
ENDBRANCH  14  13
TORSDOF 6
ENDMDL
MODEL 4
REMARK VINA RESULT:     -10.7      2.265      5.680
REMARK  Name = 
REMARK  6 active torsions:
REMARK  status: ('A' for Active; 'I' for Inactive)
REMARK    1  A    between atoms: C_2  and  C_5
REMARK    2  A    between atoms: C_8  and  C_11
REMARK    3  A    between atoms: C_13  and  C_14
REMARK    4  A    between atoms: C_14  and  C_15
REMARK    5  A    between atoms: C_20  and  C_21
REMARK    6  A    between atoms: C_21  and  C_22
REMARK                            x       y       z     vdW  Elec       q    Type
REMARK                         _______ _______ _______ _____ _____    ______ ____
ROOT
ATOM     14  C   UNL     1      -0.695   0.918  25.293  0.00  0.00    +0.051 C 
ENDROOT
BRANCH  14  15
ATOM     15  C   UNL     1      -0.340   0.608  24.615  0.00  0.00    +0.024 C 
ATOM     16  C   UNL     1       0.205   1.059  24.191  0.00  0.00    +0.089 C 
ATOM     17  N   UNL     1       0.560   0.750  23.514  0.00  0.00    -0.218 NA
ATOM     18  C   UNL     1       0.368  -0.012  23.260  0.00  0.00    +0.089 C 
ATOM     19  C   UNL     1      -0.178  -0.463  23.684  0.00  0.00    +0.019 C 
ATOM     20  C   UNL     1      -0.532  -0.153  24.361  0.00  0.00    +0.012 C 
BRANCH  20  21
ATOM     21  C   UNL     1      -1.078  -0.605  24.785  0.00  0.00    +0.085 C 
BRANCH  21  22
ATOM     22  C   UNL     1      -1.183  -1.402  24.602  0.00  0.00    +0.226 C 
ATOM     23  O   UNL     1      -0.547  -1.851  24.329  0.00  0.00    -0.275 OA
ATOM     24  N   UNL     1      -1.925  -1.751  24.692  0.00  0.00    -0.280 N 
ATOM     25  C   UNL     1      -2.031  -2.549  24.509  0.00  0.00    +0.093 C 
ATOM     26  C   UNL     1      -2.773  -2.898  24.600  0.00  0.00    +0.022 C 
ATOM     27  C   UNL     1      -3.409  -2.449  24.873  0.00  0.00    +0.004 C 
ATOM     28  C   UNL     1      -3.303  -1.651  25.055  0.00  0.00    +0.022 C 
ATOM     29  C   UNL     1      -2.562  -1.302  24.965  0.00  0.00    +0.093 C 
ENDBRANCH  21  22
ENDBRANCH  20  21
ENDBRANCH  14  15
BRANCH  14  13
ATOM     11  C   UNL     1      -2.134   2.494  25.245  0.00  0.00    +0.177 A 
ATOM     12  C   UNL     1      -1.942   1.696  25.330  0.00  0.00    +0.058 A 
ATOM     13  C   UNL     1      -1.125   1.620  25.248  0.00  0.00    +0.101 A 
ATOM     30  N   UNL     1      -0.812   2.372  25.112  0.00  0.00    -0.081 NA
ATOM     31  O   UNL     1      -1.435   2.911  25.110  0.00  0.00    -0.354 OA
BRANCH  11   8
ATOM      5  C   UNL     1      -4.407   3.464  25.373  0.00  0.00    -0.023 A 
ATOM      6  C   UNL     1      -4.265   2.808  24.892  0.00  0.00    -0.004 A 
ATOM      7  C   UNL     1      -3.508   2.485  24.850  0.00  0.00    +0.003 A 
ATOM      8  C   UNL     1      -2.892   2.817  25.288  0.00  0.00    +0.037 A 
ATOM      9  C   UNL     1      -3.035   3.473  25.768  0.00  0.00    +0.003 A 
ATOM     10  C   UNL     1      -3.792   3.796  25.810  0.00  0.00    -0.004 A 
BRANCH   5   2
ATOM      1  C   UNL     1      -5.923   4.111  25.458  0.00  0.00    +0.004 C 
ATOM      2  C   UNL     1      -5.165   3.788  25.415  0.00  0.00    +0.019 C 
ATOM      3  C   UNL     1      -5.442   3.093  25.764  0.00  0.00    +0.004 C 
ATOM      4  C   UNL     1      -4.888   4.482  25.066  0.00  0.00    +0.004 C 
ENDBRANCH   5   2
ENDBRANCH  11   8
ENDBRANCH  14  13
TORSDOF 6
ENDMDL
