MODEL 1
REMARK VINA RESULT:     -11.1      0.000      0.000
REMARK  Name = 
REMARK  8 active torsions:
REMARK  status: ('A' for Active; 'I' for Inactive)
REMARK    1  A    between atoms: O_2  and  C_3
REMARK    2  A    between atoms: C_8  and  O_9
REMARK    3  A    between atoms: C_11  and  C_12
REMARK    4  A    between atoms: C_12  and  C_13
REMARK    5  A    between atoms: N_15  and  S_23
REMARK    6  A    between atoms: C_18  and  C_19
REMARK    7  A    between atoms: C_19  and  C_20
REMARK    8  A    between atoms: S_23  and  C_26
REMARK                            x       y       z     vdW  Elec       q    Type
REMARK                         _______ _______ _______ _____ _____    ______ ____
ROOT
ATOM     13  C   UNL     1      -3.782   1.497  24.907  0.00  0.00    +0.024 C 
ATOM     14  C   UNL     1      -3.623   0.697  24.786  0.00  0.00    +0.096 C 
ATOM     15  N   UNL     1      -4.222   0.138  24.886  0.00  0.00    -0.155 NA
ATOM     16  C   UNL     1      -4.979   0.379  25.108  0.00  0.00    +0.096 C 
ATOM     17  C   UNL     1      -5.137   1.179  25.229  0.00  0.00    +0.020 C 
ATOM     18  C   UNL     1      -4.540   1.738  25.129  0.00  0.00    +0.014 C 
ENDROOT
BRANCH  15  23
ATOM     23  S   UNL     1      -4.063  -0.663  24.764  0.00  0.00    +0.069 S 
ATOM     24  O   UNL     1      -4.410  -0.618  24.017  0.00  0.00    -0.152 OA
ATOM     25  O   UNL     1      -3.716  -0.707  25.512  0.00  0.00    -0.152 OA
BRANCH  23  26
ATOM     26  C   UNL     1      -3.904  -1.463  24.643  0.00  0.00    +0.152 A 
ATOM     27  C   UNL     1      -4.159  -1.916  24.002  0.00  0.00    +0.027 A 
ATOM     28  C   UNL     1      -3.875  -2.684  24.104  0.00  0.00    +0.009 A 
ATOM     29  C   UNL     1      -3.446  -2.705  24.808  0.00  0.00    +0.037 A 
ATOM     30  S   UNL     1      -3.464  -1.951  25.141  0.00  0.00    -0.067 S 
ENDBRANCH  23  26
ENDBRANCH  15  23
BRANCH  13  12
ATOM     12  C   UNL     1      -3.184   2.056  24.807  0.00  0.00    +0.047 C 
BRANCH  12  11
ATOM      3  C   UNL     1      -0.240   2.011  24.380  0.00  0.00    +0.172 A 
ATOM      4  C   UNL     1      -0.581   1.994  23.628  0.00  0.00    +0.036 A 
ATOM      5  C   UNL     1      -1.402   2.001  23.547  0.00  0.00    -0.016 A 
ATOM      6  C   UNL     1      -1.883   2.025  24.218  0.00  0.00    +0.012 A 
ATOM      7  C   UNL     1      -1.542   2.043  24.969  0.00  0.00    +0.041 A 
ATOM      8  C   UNL     1      -0.721   2.036  25.051  0.00  0.00    +0.172 A 
ATOM     11  C   UNL     1      -2.704   2.032  24.137  0.00  0.00    +0.053 C 
ATOM     31  N   UNL     1      -3.044   2.014  23.386  0.00  0.00    -0.274 NA
ATOM     32  C   UNL     1      -2.563   1.990  22.715  0.00  0.00    +0.130 C 
ATOM     33  C   UNL     1      -1.743   1.983  22.796  0.00  0.00    +0.053 C 
BRANCH   3   2
ATOM      1  C   UNL     1       1.047   1.616  23.903  0.00  0.00    +0.253 C 
ATOM      2  O   UNL     1       0.580   2.005  24.461  0.00  0.00    -0.468 OA
ENDBRANCH   3   2
BRANCH   8   9
ATOM      9  O   UNL     1      -0.381   2.053  25.801  0.00  0.00    -0.468 OA
ATOM     10  C   UNL     1      -0.569   2.661  26.326  0.00  0.00    +0.253 C 
ENDBRANCH   8   9
ENDBRANCH  12  11
ENDBRANCH  13  12
BRANCH  18  19
ATOM     19  C   UNL     1      -4.698   2.539  25.250  0.00  0.00    +0.114 C 
BRANCH  19  20
ATOM     20  C   UNL     1      -5.420   2.771  25.573  0.00  0.00    +0.365 C 
ATOM     21  O   UNL     1      -5.491   2.889  26.387  0.00  0.00    -0.246 OA
ATOM     22  O   UNL     1      -6.074   2.886  25.082  0.00  0.00    -0.246 OA
ENDBRANCH  19  20
ENDBRANCH  18  19
TORSDOF 8
ENDMDL
MODEL 2
REMARK VINA RESULT:     -10.5      1.408      3.589
REMARK  Name = 
REMARK  8 active torsions:
REMARK  status: ('A' for Active; 'I' for Inactive)
REMARK    1  A    between atoms: O_2  and  C_3
REMARK    2  A    between atoms: C_8  and  O_9
REMARK    3  A    between atoms: C_11  and  C_12
REMARK    4  A    between atoms: C_12  and  C_13
REMARK    5  A    between atoms: N_15  and  S_23
REMARK    6  A    between atoms: C_18  and  C_19
REMARK    7  A    between atoms: C_19  and  C_20
REMARK    8  A    between atoms: S_23  and  C_26
REMARK                            x       y       z     vdW  Elec       q    Type
REMARK                         _______ _______ _______ _____ _____    ______ ____
ROOT
ATOM     13  C   UNL     1      -1.519   1.387  24.564  0.00  0.00    +0.024 C 
ATOM     14  C   UNL     1      -1.996   0.726  24.686  0.00  0.00    +0.096 C 
ATOM     15  N   UNL     1      -1.661  -0.028  24.702  0.00  0.00    -0.155 NA
ATOM     16  C   UNL     1      -0.848  -0.120  24.597  0.00  0.00    +0.096 C 
ATOM     17  C   UNL     1      -0.371   0.541  24.475  0.00  0.00    +0.020 C 
ATOM     18  C   UNL     1      -0.705   1.295  24.458  0.00  0.00    +0.014 C 
ENDROOT
BRANCH  15  23
ATOM     23  S   UNL     1      -2.139  -0.690  24.824  0.00  0.00    +0.069 S 
ATOM     24  O   UNL     1      -2.050  -0.900  24.032  0.00  0.00    -0.152 OA
ATOM     25  O   UNL     1      -2.228  -0.479  25.617  0.00  0.00    -0.152 OA
BRANCH  23  26
ATOM     26  C   UNL     1      -2.617  -1.351  24.946  0.00  0.00    +0.152 A 
ATOM     27  C   UNL     1      -3.288  -1.383  25.426  0.00  0.00    +0.027 A 
ATOM     28  C   UNL     1      -3.593  -2.147  25.386  0.00  0.00    +0.009 A 
ATOM     29  C   UNL     1      -3.111  -2.589  24.883  0.00  0.00    +0.037 A 
ATOM     30  S   UNL     1      -2.508  -2.097  24.611  0.00  0.00    -0.067 S 
ENDBRANCH  23  26
ENDBRANCH  15  23
BRANCH  13  12
ATOM     12  C   UNL     1      -1.854   2.140  24.547  0.00  0.00    +0.047 C 
BRANCH  12  11
ATOM      3  C   UNL     1      -4.382   3.604  25.110  0.00  0.00    +0.172 A 
ATOM      4  C   UNL     1      -4.459   3.298  24.348  0.00  0.00    +0.036 A 
ATOM      5  C   UNL     1      -3.847   2.855  24.016  0.00  0.00    -0.016 A 
ATOM      6  C   UNL     1      -3.156   2.719  24.447  0.00  0.00    +0.012 A 
ATOM      7  C   UNL     1      -3.079   3.025  25.210  0.00  0.00    +0.041 A 
ATOM      8  C   UNL     1      -3.691   3.468  25.541  0.00  0.00    +0.172 A 
ATOM     11  C   UNL     1      -2.544   2.277  24.116  0.00  0.00    +0.053 C 
ATOM     31  N   UNL     1      -2.621   1.971  23.355  0.00  0.00    -0.274 NA
ATOM     32  C   UNL     1      -3.312   2.107  22.923  0.00  0.00    +0.130 C 
ATOM     33  C   UNL     1      -3.924   2.549  23.254  0.00  0.00    +0.053 C 
BRANCH   3   2
ATOM      1  C   UNL     1      -5.763   3.749  25.442  0.00  0.00    +0.253 C 
ATOM      2  O   UNL     1      -4.994   4.046  25.441  0.00  0.00    -0.468 OA
ENDBRANCH   3   2
BRANCH   8   9
ATOM      9  O   UNL     1      -3.614   3.774  26.303  0.00  0.00    -0.468 OA
ATOM     10  C   UNL     1      -2.932   4.185  26.515  0.00  0.00    +0.253 C 
ENDBRANCH   8   9
ENDBRANCH  12  11
ENDBRANCH  13  12
BRANCH  18  19
ATOM     19  C   UNL     1      -0.228   1.956  24.337  0.00  0.00    +0.114 C 
BRANCH  19  20
ATOM     20  C   UNL     1       0.560   1.946  24.581  0.00  0.00    +0.365 C 
ATOM     21  O   UNL     1       0.754   2.142  25.358  0.00  0.00    -0.246 OA
ATOM     22  O   UNL     1       1.155   1.740  24.046  0.00  0.00    -0.246 OA
ENDBRANCH  19  20
ENDBRANCH  18  19
TORSDOF 8
ENDMDL
MODEL 3
REMARK VINA RESULT:     -10.0      1.542      4.311
REMARK  Name = 
REMARK  8 active torsions:
REMARK  status: ('A' for Active; 'I' for Inactive)
REMARK    1  A    between atoms: O_2  and  C_3
REMARK    2  A    between atoms: C_8  and  O_9
REMARK    3  A    between atoms: C_11  and  C_12
REMARK    4  A    between atoms: C_12  and  C_13
REMARK    5  A    between atoms: N_15  and  S_23
REMARK    6  A    between atoms: C_18  and  C_19
REMARK    7  A    between atoms: C_19  and  C_20
REMARK    8  A    between atoms: S_23  and  C_26
REMARK                            x       y       z     vdW  Elec       q    Type
REMARK                         _______ _______ _______ _____ _____    ______ ____
ROOT
ATOM     13  C   UNL     1      -3.416   0.498  24.618  0.00  0.00    +0.024 C 
ATOM     14  C   UNL     1      -2.716   0.920  24.721  0.00  0.00    +0.096 C 
ATOM     15  N   UNL     1      -1.994   0.521  24.756  0.00  0.00    -0.155 NA
ATOM     16  C   UNL     1      -1.975  -0.301  24.689  0.00  0.00    +0.096 C 
ATOM     17  C   UNL     1      -2.675  -0.723  24.586  0.00  0.00    +0.020 C 
ATOM     18  C   UNL     1      -3.396  -0.325  24.551  0.00  0.00    +0.014 C 
ENDROOT
BRANCH  15  23
ATOM     23  S   UNL     1      -1.294   0.944  24.859  0.00  0.00    +0.069 S 
ATOM     24  O   UNL     1      -1.476   1.052  25.657  0.00  0.00    -0.152 OA
ATOM     25  O   UNL     1      -1.111   0.836  24.062  0.00  0.00    -0.152 OA
BRANCH  23  26
ATOM     26  C   UNL     1      -0.593   1.367  24.962  0.00  0.00    +0.152 A 
ATOM     27  C   UNL     1      -0.384   1.804  25.630  0.00  0.00    +0.027 A 
ATOM     28  C   UNL     1       0.360   2.134  25.496  0.00  0.00    +0.009 A 
ATOM     29  C   UNL     1       0.610   1.901  24.745  0.00  0.00    +0.037 A 
ATOM     30  S   UNL     1       0.022   1.427  24.416  0.00  0.00    -0.067 S 
ENDBRANCH  23  26
ENDBRANCH  15  23
BRANCH  13  12
ATOM     12  C   UNL     1      -4.138   0.896  24.583  0.00  0.00    +0.047 C 
BRANCH  12  11
ATOM      3  C   UNL     1      -5.474   3.401  25.473  0.00  0.00    +0.172 A 
ATOM      4  C   UNL     1      -5.073   3.590  24.777  0.00  0.00    +0.036 A 
ATOM      5  C   UNL     1      -4.638   3.011  24.380  0.00  0.00    -0.016 A 
ATOM      6  C   UNL     1      -4.605   2.242  24.679  0.00  0.00    +0.012 A 
ATOM      7  C   UNL     1      -5.006   2.054  25.376  0.00  0.00    +0.041 A 
ATOM      8  C   UNL     1      -5.440   2.632  25.773  0.00  0.00    +0.172 A 
ATOM     11  C   UNL     1      -4.171   1.664  24.283  0.00  0.00    +0.053 C 
ATOM     31  N   UNL     1      -3.771   1.853  23.588  0.00  0.00    -0.274 NA
ATOM     32  C   UNL     1      -3.804   2.622  23.288  0.00  0.00    +0.130 C 
ATOM     33  C   UNL     1      -4.238   3.200  23.684  0.00  0.00    +0.053 C 
BRANCH   3   2
ATOM      1  C   UNL     1      -5.875   4.764  25.618  0.00  0.00    +0.253 C 
ATOM      2  O   UNL     1      -5.907   3.979  25.869  0.00  0.00    -0.468 OA
ENDBRANCH   3   2
BRANCH   8   9
ATOM      9  O   UNL     1      -5.840   2.443  26.468  0.00  0.00    -0.468 OA
ATOM     10  C   UNL     1      -6.309   1.766  26.504  0.00  0.00    +0.253 C 
ENDBRANCH   8   9
ENDBRANCH  12  11
ENDBRANCH  13  12
BRANCH  18  19
ATOM     19  C   UNL     1      -4.097  -0.748  24.448  0.00  0.00    +0.114 C 
BRANCH  19  20
ATOM     20  C   UNL     1      -4.071  -1.560  24.309  0.00  0.00    +0.365 C 
ATOM     21  O   UNL     1      -3.944  -2.083  24.934  0.00  0.00    -0.246 OA
ATOM     22  O   UNL     1      -4.173  -1.851  23.542  0.00  0.00    -0.246 OA
ENDBRANCH  19  20
ENDBRANCH  18  19
TORSDOF 8
ENDMDL
MODEL 4
REMARK VINA RESULT:      -9.7      2.212      3.873
REMARK  Name = 
REMARK  8 active torsions:
REMARK  status: ('A' for Active; 'I' for Inactive)
REMARK    1  A    between atoms: O_2  and  C_3
REMARK    2  A    between atoms: C_8  and  O_9
REMARK    3  A    between atoms: C_11  and  C_12
REMARK    4  A    between atoms: C_12  and  C_13
REMARK    5  A    between atoms: N_15  and  S_23
REMARK    6  A    between atoms: C_18  and  C_19
REMARK    7  A    between atoms: C_19  and  C_20
REMARK    8  A    between atoms: S_23  and  C_26
REMARK                            x       y       z     vdW  Elec       q    Type
REMARK                         _______ _______ _______ _____ _____    ______ ____
ROOT
ATOM     13  C   UNL     1      -3.911   1.924  24.866  0.00  0.00    +0.024 C 
ATOM     14  C   UNL     1      -3.281   2.454  24.894  0.00  0.00    +0.096 C 
ATOM     15  N   UNL     1      -3.417   3.249  25.072  0.00  0.00    -0.155 NA
ATOM     16  C   UNL     1      -4.184   3.512  25.221  0.00  0.00    +0.096 C 
ATOM     17  C   UNL     1      -4.815   2.982  25.193  0.00  0.00    +0.020 C 
ATOM     18  C   UNL     1      -4.679   2.188  25.015  0.00  0.00    +0.014 C 
ENDROOT
BRANCH  15  23
ATOM     23  S   UNL     1      -2.785   3.779  25.100  0.00  0.00    +0.069 S 
ATOM     24  O   UNL     1      -2.554   3.464  25.827  0.00  0.00    -0.152 OA
ATOM     25  O   UNL     1      -3.017   4.094  24.373  0.00  0.00    -0.152 OA
BRANCH  23  26
ATOM     26  C   UNL     1      -2.154   4.309  25.128  0.00  0.00    +0.152 A 
ATOM     27  C   UNL     1      -2.213   5.132  25.152  0.00  0.00    +0.027 A 
ATOM     28  C   UNL     1      -1.449   5.441  25.176  0.00  0.00    +0.009 A 
ATOM     29  C   UNL     1      -0.918   4.810  25.167  0.00  0.00    +0.037 A 
ATOM     30  S   UNL     1      -1.354   4.111  25.138  0.00  0.00    -0.067 S 
ENDBRANCH  23  26
ENDBRANCH  15  23
BRANCH  13  12
ATOM     12  C   UNL     1      -3.776   1.130  24.688  0.00  0.00    +0.047 C 
BRANCH  12  11
ATOM      3  C   UNL     1      -1.671  -0.945  25.030  0.00  0.00    +0.172 A 
ATOM      4  C   UNL     1      -1.487  -0.543  24.333  0.00  0.00    +0.036 A 
ATOM      5  C   UNL     1      -1.966   0.075  24.073  0.00  0.00    -0.016 A 
ATOM      6  C   UNL     1      -2.632   0.294  24.511  0.00  0.00    +0.012 A 
ATOM      7  C   UNL     1      -2.816  -0.107  25.208  0.00  0.00    +0.041 A 
ATOM      8  C   UNL     1      -2.336  -0.726  25.468  0.00  0.00    +0.172 A 
ATOM     11  C   UNL     1      -3.111   0.912  24.251  0.00  0.00    +0.053 C 
ATOM     31  N   UNL     1      -2.927   1.312  23.554  0.00  0.00    -0.274 NA
ATOM     32  C   UNL     1      -2.262   1.094  23.116  0.00  0.00    +0.130 C 
ATOM     33  C   UNL     1      -1.782   0.476  23.376  0.00  0.00    +0.053 C 
BRANCH   3   2
ATOM      1  C   UNL     1      -0.398  -1.591  25.068  0.00  0.00    +0.253 C 
ATOM      2  O   UNL     1      -1.191  -1.563  25.290  0.00  0.00    -0.468 OA
ENDBRANCH   3   2
BRANCH   8   9
ATOM      9  O   UNL     1      -2.520  -1.127  26.165  0.00  0.00    -0.468 OA
ATOM     10  C   UNL     1      -3.282  -1.420  26.283  0.00  0.00    +0.253 C 
ENDBRANCH   8   9
ENDBRANCH  12  11
ENDBRANCH  13  12
BRANCH  18  19
ATOM     19  C   UNL     1      -5.311   1.658  24.987  0.00  0.00    +0.114 C 
BRANCH  19  20
ATOM     20  C   UNL     1      -6.050   1.882  25.274  0.00  0.00    +0.365 C 
ATOM     21  O   UNL     1      -6.647   2.105  24.750  0.00  0.00    -0.246 OA
ATOM     22  O   UNL     1      -6.194   1.883  26.088  0.00  0.00    -0.246 OA
ENDBRANCH  19  20
ENDBRANCH  18  19
TORSDOF 8
ENDMDL
MODEL 5
REMARK VINA RESULT:      -9.3      2.019      4.000
REMARK  Name = 
REMARK  8 active torsions:
REMARK  status: ('A' for Active; 'I' for Inactive)
REMARK    1  A    between atoms: O_2  and  C_3
REMARK    2  A    between atoms: C_8  and  O_9
REMARK    3  A    between atoms: C_11  and  C_12
REMARK    4  A    between atoms: C_12  and  C_13
REMARK    5  A    between atoms: N_15  and  S_23
REMARK    6  A    between atoms: C_18  and  C_19
REMARK    7  A    between atoms: C_19  and  C_20
REMARK    8  A    between atoms: S_23  and  C_26
REMARK                            x       y       z     vdW  Elec       q    Type
REMARK                         _______ _______ _______ _____ _____    ______ ____
ROOT
ATOM     13  C   UNL     1      -0.574   0.598  24.081  0.00  0.00    +0.024 C 
ATOM     14  C   UNL     1      -1.204   0.201  24.433  0.00  0.00    +0.096 C 
ATOM     15  N   UNL     1      -1.220  -0.624  24.442  0.00  0.00    -0.155 NA
ATOM     16  C   UNL     1      -0.604  -1.051  24.098  0.00  0.00    +0.096 C 
ATOM     17  C   UNL     1       0.027  -0.655  23.746  0.00  0.00    +0.020 C 
ATOM     18  C   UNL     1       0.043   0.170  23.737  0.00  0.00    +0.014 C 
ENDROOT
BRANCH  15  23
ATOM     23  S   UNL     1      -1.851  -1.021  24.794  0.00  0.00    +0.069 S 
ATOM     24  O   UNL     1      -2.331  -0.830  24.151  0.00  0.00    -0.152 OA
ATOM     25  O   UNL     1      -1.372  -1.212  25.438  0.00  0.00    -0.152 OA
BRANCH  23  26
ATOM     26  C   UNL     1      -2.483  -1.418  25.147  0.00  0.00    +0.152 A 
ATOM     27  C   UNL     1      -2.890  -1.178  25.823  0.00  0.00    +0.027 A 
ATOM     28  C   UNL     1      -3.476  -1.736  25.979  0.00  0.00    +0.009 A 
ATOM     29  C   UNL     1      -3.432  -2.321  25.399  0.00  0.00    +0.037 A 
ATOM     30  S   UNL     1      -2.818  -2.125  24.885  0.00  0.00    -0.067 S 
ENDBRANCH  23  26
ENDBRANCH  15  23
BRANCH  13  12
ATOM     12  C   UNL     1      -0.558   1.423  24.072  0.00  0.00    +0.047 C 
BRANCH  12  11
ATOM      3  C   UNL     1      -2.330   3.567  25.128  0.00  0.00    +0.172 A 
ATOM      4  C   UNL     1      -1.777   3.414  25.721  0.00  0.00    +0.036 A 
ATOM      5  C   UNL     1      -1.195   2.840  25.606  0.00  0.00    -0.016 A 
ATOM      6  C   UNL     1      -1.167   2.418  24.896  0.00  0.00    +0.012 A 
ATOM      7  C   UNL     1      -1.720   2.571  24.303  0.00  0.00    +0.041 A 
ATOM      8  C   UNL     1      -2.301   3.145  24.418  0.00  0.00    +0.172 A 
ATOM     11  C   UNL     1      -0.586   1.844  24.781  0.00  0.00    +0.053 C 
ATOM     31  N   UNL     1      -0.034   1.691  25.374  0.00  0.00    -0.274 NA
ATOM     32  C   UNL     1      -0.062   2.113  26.083  0.00  0.00    +0.130 C 
ATOM     33  C   UNL     1      -0.643   2.687  26.198  0.00  0.00    +0.053 C 
BRANCH   3   2
ATOM      1  C   UNL     1      -3.024   4.468  25.991  0.00  0.00    +0.253 C 
ATOM      2  O   UNL     1      -2.910   4.141  25.243  0.00  0.00    -0.468 OA
ENDBRANCH   3   2
BRANCH   8   9
ATOM      9  O   UNL     1      -2.853   3.298  23.825  0.00  0.00    -0.468 OA
ATOM     10  C   UNL     1      -3.327   2.689  23.536  0.00  0.00    +0.253 C 
ENDBRANCH   8   9
ENDBRANCH  12  11
ENDBRANCH  13  12
BRANCH  18  19
ATOM     19  C   UNL     1       0.674   0.567  23.384  0.00  0.00    +0.114 C 
BRANCH  19  20
ATOM     20  C   UNL     1       1.205   0.155  22.906  0.00  0.00    +0.365 C 
ATOM     21  O   UNL     1       1.947  -0.056  23.199  0.00  0.00    -0.246 OA
ATOM     22  O   UNL     1       0.993  -0.046  22.134  0.00  0.00    -0.246 OA
ENDBRANCH  19  20
ENDBRANCH  18  19
TORSDOF 8
ENDMDL
MODEL 6
REMARK VINA RESULT:      -9.1      2.396      4.058
REMARK  Name = 
REMARK  8 active torsions:
REMARK  status: ('A' for Active; 'I' for Inactive)
REMARK    1  A    between atoms: O_2  and  C_3
REMARK    2  A    between atoms: C_8  and  O_9
REMARK    3  A    between atoms: C_11  and  C_12
REMARK    4  A    between atoms: C_12  and  C_13
REMARK    5  A    between atoms: N_15  and  S_23
REMARK    6  A    between atoms: C_18  and  C_19
REMARK    7  A    between atoms: C_19  and  C_20
REMARK    8  A    between atoms: S_23  and  C_26
REMARK                            x       y       z     vdW  Elec       q    Type
REMARK                         _______ _______ _______ _____ _____    ______ ____
ROOT
ATOM     13  C   UNL     1      -1.530   0.446  24.776  0.00  0.00    +0.024 C 
ATOM     14  C   UNL     1      -0.849   0.485  24.314  0.00  0.00    +0.096 C 
ATOM     15  N   UNL     1      -0.518  -0.206  24.007  0.00  0.00    -0.155 NA
ATOM     16  C   UNL     1      -0.870  -0.936  24.163  0.00  0.00    +0.096 C 
ATOM     17  C   UNL     1      -1.551  -0.975  24.625  0.00  0.00    +0.020 C 
ATOM     18  C   UNL     1      -1.882  -0.285  24.932  0.00  0.00    +0.014 C 
ENDROOT
BRANCH  15  23
ATOM     23  S   UNL     1       0.164  -0.167  23.544  0.00  0.00    +0.069 S 
ATOM     24  O   UNL     1       0.540  -0.695  24.055  0.00  0.00    -0.152 OA
ATOM     25  O   UNL     1      -0.212   0.361  23.034  0.00  0.00    -0.152 OA
BRANCH  23  26
ATOM     26  C   UNL     1       0.846  -0.128  23.082  0.00  0.00    +0.152 A 
ATOM     27  C   UNL     1       0.921  -0.397  22.305  0.00  0.00    +0.027 A 
ATOM     28  C   UNL     1       1.694  -0.248  22.058  0.00  0.00    +0.009 A 
ATOM     29  C   UNL     1       2.096   0.112  22.682  0.00  0.00    +0.037 A 
ATOM     30  S   UNL     1       1.572   0.186  23.314  0.00  0.00    -0.067 S 
ENDBRANCH  23  26
ENDBRANCH  15  23
BRANCH  13  12
ATOM     12  C   UNL     1      -1.861   1.136  25.084  0.00  0.00    +0.047 C 
BRANCH  12  11
ATOM      3  C   UNL     1      -1.909   4.110  25.150  0.00  0.00    +0.172 A 
ATOM      4  C   UNL     1      -1.247   3.882  25.587  0.00  0.00    +0.036 A 
ATOM      5  C   UNL     1      -1.069   3.082  25.680  0.00  0.00    -0.016 A 
ATOM      6  C   UNL     1      -1.554   2.508  25.335  0.00  0.00    +0.012 A 
ATOM      7  C   UNL     1      -2.216   2.737  24.898  0.00  0.00    +0.041 A 
ATOM      8  C   UNL     1      -2.394   3.537  24.805  0.00  0.00    +0.172 A 
ATOM     11  C   UNL     1      -1.377   1.709  25.428  0.00  0.00    +0.053 C 
ATOM     31  N   UNL     1      -0.716   1.481  25.864  0.00  0.00    -0.274 NA
ATOM     32  C   UNL     1      -0.231   2.054  26.209  0.00  0.00    +0.130 C 
ATOM     33  C   UNL     1      -0.408   2.854  26.116  0.00  0.00    +0.053 C 
BRANCH   3   2
ATOM      1  C   UNL     1      -1.483   5.471  25.072  0.00  0.00    +0.253 C 
ATOM      2  O   UNL     1      -2.087   4.910  25.057  0.00  0.00    -0.468 OA
ENDBRANCH   3   2
BRANCH   8   9
ATOM      9  O   UNL     1      -3.055   3.765  24.369  0.00  0.00    -0.468 OA
ATOM     10  C   UNL     1      -3.765   3.355  24.451  0.00  0.00    +0.253 C 
ENDBRANCH   8   9
ENDBRANCH  12  11
ENDBRANCH  13  12
BRANCH  18  19
ATOM     19  C   UNL     1      -2.564  -0.324  25.394  0.00  0.00    +0.114 C 
BRANCH  19  20
ATOM     20  C   UNL     1      -3.066  -0.975  25.334  0.00  0.00    +0.365 C 
ATOM     21  O   UNL     1      -3.646  -0.996  24.746  0.00  0.00    -0.246 OA
ATOM     22  O   UNL     1      -2.990  -1.606  25.861  0.00  0.00    -0.246 OA
ENDBRANCH  19  20
ENDBRANCH  18  19
TORSDOF 8
ENDMDL
MODEL 7
REMARK VINA RESULT:      -8.6      1.803      4.274
REMARK  Name = 
REMARK  8 active torsions:
REMARK  status: ('A' for Active; 'I' for Inactive)
REMARK    1  A    between atoms: O_2  and  C_3
REMARK    2  A    between atoms: C_8  and  O_9
REMARK    3  A    between atoms: C_11  and  C_12
REMARK    4  A    between atoms: C_12  and  C_13
REMARK    5  A    between atoms: N_15  and  S_23
REMARK    6  A    between atoms: C_18  and  C_19
REMARK    7  A    between atoms: C_19  and  C_20
REMARK    8  A    between atoms: S_23  and  C_26
REMARK                            x       y       z     vdW  Elec       q    Type
REMARK                         _______ _______ _______ _____ _____    ______ ____
ROOT
ATOM     13  C   UNL     1      -2.271   2.098  24.729  0.00  0.00    +0.024 C 
ATOM     14  C   UNL     1      -3.049   2.297  24.913  0.00  0.00    +0.096 C 
ATOM     15  N   UNL     1      -3.254   3.085  25.047  0.00  0.00    -0.155 NA
ATOM     16  C   UNL     1      -2.679   3.674  24.996  0.00  0.00    +0.096 C 
ATOM     17  C   UNL     1      -1.901   3.476  24.812  0.00  0.00    +0.020 C 
ATOM     18  C   UNL     1      -1.696   2.688  24.679  0.00  0.00    +0.014 C 
ENDROOT
BRANCH  15  23
ATOM     23  S   UNL     1      -4.034   3.284  25.231  0.00  0.00    +0.069 S 
ATOM     24  O   UNL     1      -3.931   2.983  25.992  0.00  0.00    -0.152 OA
ATOM     25  O   UNL     1      -4.137   3.584  24.469  0.00  0.00    -0.152 OA
BRANCH  23  26
ATOM     26  C   UNL     1      -4.813   3.482  25.415  0.00  0.00    +0.152 A 
ATOM     27  C   UNL     1      -5.139   4.240  25.391  0.00  0.00    +0.027 A 
ATOM     28  C   UNL     1      -5.930   4.184  25.616  0.00  0.00    +0.009 A 
ATOM     29  C   UNL     1      -6.093   3.392  25.779  0.00  0.00    +0.037 A 
ATOM     30  S   UNL     1      -5.403   2.958  25.654  0.00  0.00    -0.067 S 
ENDBRANCH  23  26
ENDBRANCH  15  23
BRANCH  13  12
ATOM     12  C   UNL     1      -2.066   1.311  24.596  0.00  0.00    +0.047 C 
BRANCH  12  11
ATOM      3  C   UNL     1      -2.984  -1.477  25.086  0.00  0.00    +0.172 A 
ATOM      4  C   UNL     1      -3.381  -1.220  24.409  0.00  0.00    +0.036 A 
ATOM      5  C   UNL     1      -3.250  -0.459  24.117  0.00  0.00    -0.016 A 
ATOM      6  C   UNL     1      -2.723   0.046  24.503  0.00  0.00    +0.012 A 
ATOM      7  C   UNL     1      -2.327  -0.211  25.179  0.00  0.00    +0.041 A 
ATOM      8  C   UNL     1      -2.457  -0.971  25.472  0.00  0.00    +0.172 A 
ATOM     11  C   UNL     1      -2.593   0.806  24.211  0.00  0.00    +0.053 C 
ATOM     31  N   UNL     1      -2.989   1.062  23.535  0.00  0.00    -0.274 NA
ATOM     32  C   UNL     1      -3.516   0.557  23.149  0.00  0.00    +0.130 C 
ATOM     33  C   UNL     1      -3.646  -0.203  23.441  0.00  0.00    +0.053 C 
BRANCH   3   2
ATOM      1  C   UNL     1      -3.515  -2.792  24.918  0.00  0.00    +0.253 C 
ATOM      2  O   UNL     1      -3.115  -2.236  25.378  0.00  0.00    -0.468 OA
ENDBRANCH   3   2
BRANCH   8   9
ATOM      9  O   UNL     1      -2.061  -1.227  26.148  0.00  0.00    -0.468 OA
ATOM     10  C   UNL     1      -1.291  -0.973  26.296  0.00  0.00    +0.253 C 
ENDBRANCH   8   9
ENDBRANCH  12  11
ENDBRANCH  13  12
BRANCH  18  19
ATOM     19  C   UNL     1      -0.916   2.490  24.495  0.00  0.00    +0.114 C 
BRANCH  19  20
ATOM     20  C   UNL     1      -0.308   3.025  24.648  0.00  0.00    +0.365 C 
ATOM     21  O   UNL     1       0.065   3.027  25.384  0.00  0.00    -0.246 OA
ATOM     22  O   UNL     1      -0.071   3.559  24.064  0.00  0.00    -0.246 OA
ENDBRANCH  19  20
ENDBRANCH  18  19
TORSDOF 8
ENDMDL
