MODEL 1
REMARK VINA RESULT:     -15.0      0.000      0.000
REMARK  Name = 
REMARK  4 active torsions:
REMARK  status: ('A' for Active; 'I' for Inactive)
REMARK    1  A    between atoms: N_2  and  C_4
REMARK    2  A    between atoms: C_4  and  C_5
REMARK    3  A    between atoms: C_10  and  C_11
REMARK    4  A    between atoms: N_19  and  C_21
REMARK                            x       y       z     vdW  Elec       q    Type
REMARK                         _______ _______ _______ _____ _____    ______ ____
ROOT
ATOM     11  C   UNL     1      -3.583   0.315  24.193  0.00  0.00    +0.056 A 
ATOM     12  C   UNL     1      -4.283  -0.096  24.044  0.00  0.00    +0.006 A 
ATOM     13  C   UNL     1      -4.308  -0.916  24.133  0.00  0.00    +0.013 A 
ATOM     14  C   UNL     1      -3.633  -1.325  24.372  0.00  0.00    +0.041 A 
ATOM     15  C   UNL     1      -3.342  -2.177  24.555  0.00  0.00    +0.054 C 
ATOM     16  C   UNL     1      -3.564  -2.843  24.571  0.00  0.00    +0.011 C 
ATOM     17  C   UNL     1      -2.875  -2.434  24.717  0.00  0.00    +0.039 C 
ATOM     18  C   UNL     1      -1.963  -2.126  24.938  0.00  0.00    +0.074 C 
ATOM     19  N   UNL     1      -2.059  -1.305  24.814  0.00  0.00    -0.273 NA
ATOM     20  C   UNL     1      -2.456  -1.895  24.772  0.00  0.00    +0.078 C 
ATOM     30  C   UNL     1      -3.169  -1.540  24.528  0.00  0.00    +0.110 C 
ATOM     31  N   UNL     1      -2.933  -0.914  24.521  0.00  0.00    -0.299 N 
ATOM     32  C   UNL     1      -2.908  -0.095  24.432  0.00  0.00    +0.261 A 
ATOM     33  O   UNL     1      -2.863   0.819  24.337  0.00  0.00    -0.267 OA
ENDROOT
BRANCH  19  21
ATOM     21  C   UNL     1      -1.862  -0.504  24.776  0.00  0.00    +0.061 C 
ATOM     22  C   UNL     1      -1.712  -0.083  25.468  0.00  0.00    +0.038 C 
ATOM     23  C   UNL     1      -1.516   0.718  25.429  0.00  0.00    +0.095 C 
ATOM     24  N   UNL     1      -1.470   1.097  24.697  0.00  0.00    -0.279 N 
ATOM     25  C   UNL     1      -1.620   0.674  24.005  0.00  0.00    +0.095 C 
ATOM     26  C   UNL     1      -1.816  -0.126  24.043  0.00  0.00    +0.038 C 
ATOM     27  C   UNL     1      -1.230   1.969  25.055  0.00  0.00    +0.226 C 
ATOM     28  C   UNL     1      -1.057   2.500  25.683  0.00  0.00    +0.095 C 
ATOM     29  O   UNL     1      -1.005   2.859  25.102  0.00  0.00    -0.275 OA
ENDBRANCH  19  21
BRANCH  11  10
ATOM      5  C   UNL     1      -3.929   1.620  24.657  0.00  0.00    -0.006 A 
ATOM      6  C   UNL     1      -3.906   2.440  24.568  0.00  0.00    -0.003 A 
ATOM      7  C   UNL     1      -3.512   2.773  23.925  0.00  0.00    -0.000 A 
ATOM      8  C   UNL     1      -3.142   2.288  23.370  0.00  0.00    -0.000 A 
ATOM      9  C   UNL     1      -3.165   1.467  23.460  0.00  0.00    -0.000 A 
ATOM     10  C   UNL     1      -3.559   1.134  24.103  0.00  0.00    +0.002 A 
BRANCH   5   4
ATOM      4  C   UNL     1      -4.442   1.774  25.458  0.00  0.00    +0.099 C 
BRANCH   4   2
ATOM      1  C   UNL     1      -5.109   3.067  25.308  0.00  0.00    +0.090 C 
ATOM      2  N   UNL     1      -5.124   2.247  25.218  0.00  0.00    -0.267 NA
ATOM      3  C   UNL     1      -5.791   1.878  24.900  0.00  0.00    +0.090 C 
ENDBRANCH   4   2
ENDBRANCH   5   4
ENDBRANCH  11  10
TORSDOF 4
ENDMDL
MODEL 2
REMARK VINA RESULT:     -14.1      1.191      3.594
REMARK  Name = 
REMARK  4 active torsions:
REMARK  status: ('A' for Active; 'I' for Inactive)
REMARK    1  A    between atoms: N_2  and  C_4
REMARK    2  A    between atoms: C_4  and  C_5
REMARK    3  A    between atoms: C_10  and  C_11
REMARK    4  A    between atoms: N_19  and  C_21
REMARK                            x       y       z     vdW  Elec       q    Type
REMARK                         _______ _______ _______ _____ _____    ______ ____
ROOT
ATOM     11  C   UNL     1      -3.438   1.451  24.443  0.00  0.00    +0.056 A 
ATOM     12  C   UNL     1      -3.922   0.782  24.427  0.00  0.00    +0.006 A 
ATOM     13  C   UNL     1      -4.699   0.829  24.701  0.00  0.00    +0.013 A 
ATOM     14  C   UNL     1      -4.992   1.543  24.990  0.00  0.00    +0.041 A 
ATOM     15  C   UNL     1      -5.757   1.909  25.345  0.00  0.00    +0.054 C 
ATOM     16  C   UNL     1      -6.415   1.744  25.523  0.00  0.00    +0.011 C 
ATOM     17  C   UNL     1      -5.935   2.402  25.537  0.00  0.00    +0.039 C 
ATOM     18  C   UNL     1      -5.518   3.292  25.635  0.00  0.00    +0.074 C 
ATOM     19  N   UNL     1      -4.757   3.124  25.334  0.00  0.00    -0.273 NA
ATOM     20  C   UNL     1      -5.368   2.776  25.446  0.00  0.00    +0.078 C 
ATOM     30  C   UNL     1      -5.132   2.028  25.167  0.00  0.00    +0.110 C 
ATOM     31  N   UNL     1      -4.509   2.211  25.006  0.00  0.00    -0.299 N 
ATOM     32  C   UNL     1      -3.732   2.165  24.733  0.00  0.00    +0.261 A 
ATOM     33  O   UNL     1      -2.863   2.131  24.431  0.00  0.00    -0.267 OA
ENDROOT
BRANCH  19  21
ATOM     21  C   UNL     1      -3.975   3.252  25.105  0.00  0.00    +0.061 C 
ATOM     22  C   UNL     1      -3.396   3.390  25.675  0.00  0.00    +0.038 C 
ATOM     23  C   UNL     1      -2.613   3.518  25.446  0.00  0.00    +0.095 C 
ATOM     24  N   UNL     1      -2.410   3.508  24.646  0.00  0.00    -0.279 N 
ATOM     25  C   UNL     1      -2.990   3.370  24.076  0.00  0.00    +0.095 C 
ATOM     26  C   UNL     1      -3.772   3.242  24.305  0.00  0.00    +0.038 C 
ATOM     27  C   UNL     1      -1.464   3.687  24.785  0.00  0.00    +0.226 C 
ATOM     28  C   UNL     1      -0.791   3.837  25.266  0.00  0.00    +0.095 C 
ATOM     29  O   UNL     1      -0.573   3.838  24.618  0.00  0.00    -0.275 OA
ENDBRANCH  19  21
BRANCH  11  10
ATOM      5  C   UNL     1      -2.090   1.015  24.619  0.00  0.00    -0.006 A 
ATOM      6  C   UNL     1      -1.313   0.968  24.346  0.00  0.00    -0.003 A 
ATOM      7  C   UNL     1      -1.108   1.309  23.623  0.00  0.00    -0.000 A 
ATOM      8  C   UNL     1      -1.680   1.698  23.173  0.00  0.00    -0.000 A 
ATOM      9  C   UNL     1      -2.458   1.745  23.447  0.00  0.00    -0.000 A 
ATOM     10  C   UNL     1      -2.662   1.404  24.169  0.00  0.00    +0.002 A 
BRANCH   5   4
ATOM      4  C   UNL     1      -1.794   0.521  25.391  0.00  0.00    +0.099 C 
BRANCH   4   2
ATOM      1  C   UNL     1      -0.699  -0.330  24.926  0.00  0.00    +0.090 C 
ATOM      2  N   UNL     1      -1.501  -0.236  25.093  0.00  0.00    -0.267 NA
ATOM      3  C   UNL     1      -2.024  -0.863  24.976  0.00  0.00    +0.090 C 
ENDBRANCH   4   2
ENDBRANCH   5   4
ENDBRANCH  11  10
TORSDOF 4
ENDMDL
MODEL 3
REMARK VINA RESULT:     -13.9      1.085      3.565
REMARK  Name = 
REMARK  4 active torsions:
REMARK  status: ('A' for Active; 'I' for Inactive)
REMARK    1  A    between atoms: N_2  and  C_4
REMARK    2  A    between atoms: C_4  and  C_5
REMARK    3  A    between atoms: C_10  and  C_11
REMARK    4  A    between atoms: N_19  and  C_21
REMARK                            x       y       z     vdW  Elec       q    Type
REMARK                         _______ _______ _______ _____ _____    ______ ____
ROOT
ATOM     11  C   UNL     1      -3.211   0.109  25.139  0.00  0.00    +0.056 A 
ATOM     12  C   UNL     1      -3.938  -0.184  25.395  0.00  0.00    +0.006 A 
ATOM     13  C   UNL     1      -4.617   0.279  25.325  0.00  0.00    +0.013 A 
ATOM     14  C   UNL     1      -4.569   1.035  25.000  0.00  0.00    +0.041 A 
ATOM     15  C   UNL     1      -5.097   1.759  24.794  0.00  0.00    +0.054 C 
ATOM     16  C   UNL     1      -5.762   1.981  24.823  0.00  0.00    +0.011 C 
ATOM     17  C   UNL     1      -5.042   2.267  24.571  0.00  0.00    +0.039 C 
ATOM     18  C   UNL     1      -4.277   2.782  24.216  0.00  0.00    +0.074 C 
ATOM     19  N   UNL     1      -3.666   2.226  24.337  0.00  0.00    -0.273 NA
ATOM     20  C   UNL     1      -4.368   2.269  24.447  0.00  0.00    +0.078 C 
ATOM     30  C   UNL     1      -4.483   1.516  24.783  0.00  0.00    +0.110 C 
ATOM     31  N   UNL     1      -3.841   1.329  24.744  0.00  0.00    -0.299 N 
ATOM     32  C   UNL     1      -3.162   0.866  24.814  0.00  0.00    +0.261 A 
ATOM     33  O   UNL     1      -2.395   0.363  24.884  0.00  0.00    -0.267 OA
ENDROOT
BRANCH  19  21
ATOM     21  C   UNL     1      -2.905   1.906  24.333  0.00  0.00    +0.061 C 
ATOM     22  C   UNL     1      -2.554   1.688  23.619  0.00  0.00    +0.038 C 
ATOM     23  C   UNL     1      -1.793   1.367  23.614  0.00  0.00    +0.095 C 
ATOM     24  N   UNL     1      -1.385   1.264  24.324  0.00  0.00    -0.279 N 
ATOM     25  C   UNL     1      -1.737   1.481  25.037  0.00  0.00    +0.095 C 
ATOM     26  C   UNL     1      -2.497   1.802  25.042  0.00  0.00    +0.038 C 
ATOM     27  C   UNL     1      -0.584   0.887  23.919  0.00  0.00    +0.226 C 
ATOM     28  C   UNL     1      -0.124   0.630  23.265  0.00  0.00    +0.095 C 
ATOM     29  O   UNL     1       0.255   0.524  23.824  0.00  0.00    -0.275 OA
ENDBRANCH  19  21
BRANCH  11  10
ATOM      5  C   UNL     1      -2.427  -1.007  24.715  0.00  0.00    -0.006 A 
ATOM      6  C   UNL     1      -1.748  -1.472  24.785  0.00  0.00    -0.003 A 
ATOM      7  C   UNL     1      -1.176  -1.283  25.348  0.00  0.00    -0.000 A 
ATOM      8  C   UNL     1      -1.280  -0.631  25.841  0.00  0.00    -0.000 A 
ATOM      9  C   UNL     1      -1.960  -0.166  25.772  0.00  0.00    -0.000 A 
ATOM     10  C   UNL     1      -2.532  -0.354  25.209  0.00  0.00    +0.002 A 
BRANCH   5   4
ATOM      4  C   UNL     1      -2.699  -1.602  24.009  0.00  0.00    +0.099 C 
BRANCH   4   2
ATOM      1  C   UNL     1      -2.098  -2.889  24.358  0.00  0.00    +0.090 C 
ATOM      2  N   UNL     1      -2.753  -2.388  24.365  0.00  0.00    -0.267 NA
ATOM      3  C   UNL     1      -3.460  -2.636  24.711  0.00  0.00    +0.090 C 
ENDBRANCH   4   2
ENDBRANCH   5   4
ENDBRANCH  11  10
TORSDOF 4
ENDMDL
MODEL 4
REMARK VINA RESULT:     -13.9      1.491      4.419
REMARK  Name = 
REMARK  4 active torsions:
REMARK  status: ('A' for Active; 'I' for Inactive)
REMARK    1  A    between atoms: N_2  and  C_4
REMARK    2  A    between atoms: C_4  and  C_5
REMARK    3  A    between atoms: C_10  and  C_11
REMARK    4  A    between atoms: N_19  and  C_21
REMARK                            x       y       z     vdW  Elec       q    Type
REMARK                         _______ _______ _______ _____ _____    ______ ____
ROOT
ATOM     11  C   UNL     1      -2.264   1.988  24.459  0.00  0.00    +0.056 A 
ATOM     12  C   UNL     1      -1.447   1.880  24.412  0.00  0.00    +0.006 A 
ATOM     13  C   UNL     1      -0.938   2.510  24.571  0.00  0.00    +0.013 A 
ATOM     14  C   UNL     1      -1.246   3.247  24.777  0.00  0.00    +0.041 A 
ATOM     15  C   UNL     1      -0.974   4.096  25.000  0.00  0.00    +0.054 C 
ATOM     16  C   UNL     1      -0.396   4.483  25.092  0.00  0.00    +0.011 C 
ATOM     17  C   UNL     1      -1.203   4.586  25.137  0.00  0.00    +0.039 C 
ATOM     18  C   UNL     1      -2.132   4.905  25.243  0.00  0.00    +0.074 C 
ATOM     19  N   UNL     1      -2.543   4.200  25.062  0.00  0.00    -0.273 NA
ATOM     20  C   UNL     1      -1.867   4.419  25.107  0.00  0.00    +0.078 C 
ATOM     30  C   UNL     1      -1.496   3.702  24.905  0.00  0.00    +0.110 C 
ATOM     31  N   UNL     1      -2.062   3.355  24.824  0.00  0.00    -0.299 N 
ATOM     32  C   UNL     1      -2.572   2.726  24.665  0.00  0.00    +0.261 A 
ATOM     33  O   UNL     1      -3.154   2.035  24.491  0.00  0.00    -0.267 OA
ENDROOT
BRANCH  19  21
ATOM     21  C   UNL     1      -3.181   3.691  24.939  0.00  0.00    +0.061 C 
ATOM     22  C   UNL     1      -3.645   3.450  25.576  0.00  0.00    +0.038 C 
ATOM     23  C   UNL     1      -4.283   2.941  25.453  0.00  0.00    +0.095 C 
ATOM     24  N   UNL     1      -4.457   2.674  24.691  0.00  0.00    -0.279 N 
ATOM     25  C   UNL     1      -3.992   2.916  24.054  0.00  0.00    +0.095 C 
ATOM     26  C   UNL     1      -3.355   3.425  24.177  0.00  0.00    +0.038 C 
ATOM     27  C   UNL     1      -5.223   2.135  24.951  0.00  0.00    +0.226 C 
ATOM     28  C   UNL     1      -5.764   1.821  25.513  0.00  0.00    +0.095 C 
ATOM     29  O   UNL     1      -5.949   1.573  24.902  0.00  0.00    -0.275 OA
ENDBRANCH  19  21
BRANCH  11  10
ATOM      5  C   UNL     1      -2.847   0.742  24.843  0.00  0.00    -0.006 A 
ATOM      6  C   UNL     1      -3.355   0.112  24.685  0.00  0.00    -0.003 A 
ATOM      7  C   UNL     1      -3.789   0.099  23.984  0.00  0.00    -0.000 A 
ATOM      8  C   UNL     1      -3.716   0.715  23.440  0.00  0.00    -0.000 A 
ATOM      9  C   UNL     1      -3.207   1.346  23.599  0.00  0.00    -0.000 A 
ATOM     10  C   UNL     1      -2.773   1.359  24.300  0.00  0.00    +0.002 A 
BRANCH   5   4
ATOM      4  C   UNL     1      -2.636   0.297  25.671  0.00  0.00    +0.099 C 
BRANCH   4   2
ATOM      1  C   UNL     1      -2.826  -1.132  25.423  0.00  0.00    +0.090 C 
ATOM      2  N   UNL     1      -2.323  -0.478  25.453  0.00  0.00    -0.267 NA
ATOM      3  C   UNL     1      -1.522  -0.565  25.275  0.00  0.00    +0.090 C 
ENDBRANCH   4   2
ENDBRANCH   5   4
ENDBRANCH  11  10
TORSDOF 4
ENDMDL
MODEL 5
REMARK VINA RESULT:     -13.6      1.146      2.493
REMARK  Name = 
REMARK  4 active torsions:
REMARK  status: ('A' for Active; 'I' for Inactive)
REMARK    1  A    between atoms: N_2  and  C_4
REMARK    2  A    between atoms: C_4  and  C_5
REMARK    3  A    between atoms: C_10  and  C_11
REMARK    4  A    between atoms: N_19  and  C_21
REMARK                            x       y       z     vdW  Elec       q    Type
REMARK                         _______ _______ _______ _____ _____    ______ ____
ROOT
ATOM     11  C   UNL     1      -2.333   1.112  24.403  0.00  0.00    +0.056 A 
ATOM     12  C   UNL     1      -1.511   1.057  24.352  0.00  0.00    +0.006 A 
ATOM     13  C   UNL     1      -1.138   0.331  24.466  0.00  0.00    +0.013 A 
ATOM     14  C   UNL     1      -1.586  -0.342  24.631  0.00  0.00    +0.041 A 
ATOM     15  C   UNL     1      -1.489  -1.240  24.800  0.00  0.00    +0.054 C 
ATOM     16  C   UNL     1      -1.000  -1.739  24.861  0.00  0.00    +0.011 C 
ATOM     17  C   UNL     1      -1.811  -1.682  24.911  0.00  0.00    +0.039 C 
ATOM     18  C   UNL     1      -2.785  -1.815  25.010  0.00  0.00    +0.074 C 
ATOM     19  N   UNL     1      -3.047  -1.033  24.877  0.00  0.00    -0.273 NA
ATOM     20  C   UNL     1      -2.428  -1.384  24.899  0.00  0.00    +0.078 C 
ATOM     30  C   UNL     1      -1.921  -0.744  24.736  0.00  0.00    +0.110 C 
ATOM     31  N   UNL     1      -2.408  -0.287  24.683  0.00  0.00    -0.299 N 
ATOM     32  C   UNL     1      -2.781   0.439  24.569  0.00  0.00    +0.261 A 
ATOM     33  O   UNL     1      -3.214   1.242  24.444  0.00  0.00    -0.267 OA
ENDROOT
BRANCH  19  21
ATOM     21  C   UNL     1      -3.571  -0.400  24.793  0.00  0.00    +0.061 C 
ATOM     22  C   UNL     1      -3.975  -0.109  25.450  0.00  0.00    +0.038 C 
ATOM     23  C   UNL     1      -4.498   0.523  25.366  0.00  0.00    +0.095 C 
ATOM     24  N   UNL     1      -4.618   0.864  24.624  0.00  0.00    -0.279 N 
ATOM     25  C   UNL     1      -4.214   0.572  23.967  0.00  0.00    +0.095 C 
ATOM     26  C   UNL     1      -3.690  -0.059  24.051  0.00  0.00    +0.038 C 
ATOM     27  C   UNL     1      -5.260   1.529  24.926  0.00  0.00    +0.226 C 
ATOM     28  C   UNL     1      -5.725   1.911  25.513  0.00  0.00    +0.095 C 
ATOM     29  O   UNL     1      -5.859   2.227  24.921  0.00  0.00    -0.275 OA
ENDBRANCH  19  21
BRANCH  11  10
ATOM      5  C   UNL     1      -2.653   2.424  24.868  0.00  0.00    -0.006 A 
ATOM      6  C   UNL     1      -3.025   3.151  24.755  0.00  0.00    -0.003 A 
ATOM      7  C   UNL     1      -3.450   3.293  24.062  0.00  0.00    -0.000 A 
ATOM      8  C   UNL     1      -3.503   2.708  23.483  0.00  0.00    -0.000 A 
ATOM      9  C   UNL     1      -3.130   1.980  23.597  0.00  0.00    -0.000 A 
ATOM     10  C   UNL     1      -2.705   1.838  24.289  0.00  0.00    +0.002 A 
BRANCH   5   4
ATOM      4  C   UNL     1      -2.354   2.767  25.717  0.00  0.00    +0.099 C 
BRANCH   4   2
ATOM      1  C   UNL     1      -2.261   4.220  25.574  0.00  0.00    +0.090 C 
ATOM      2  N   UNL     1      -1.899   3.480  25.540  0.00  0.00    -0.267 NA
ATOM      3  C   UNL     1      -1.101   3.420  25.338  0.00  0.00    +0.090 C 
ENDBRANCH   4   2
ENDBRANCH   5   4
ENDBRANCH  11  10
TORSDOF 4
ENDMDL
MODEL 6
REMARK VINA RESULT:     -13.5      1.243      4.117
REMARK  Name = 
REMARK  4 active torsions:
REMARK  status: ('A' for Active; 'I' for Inactive)
REMARK    1  A    between atoms: N_2  and  C_4
REMARK    2  A    between atoms: C_4  and  C_5
REMARK    3  A    between atoms: C_10  and  C_11
REMARK    4  A    between atoms: N_19  and  C_21
REMARK                            x       y       z     vdW  Elec       q    Type
REMARK                         _______ _______ _______ _____ _____    ______ ____
ROOT
ATOM     11  C   UNL     1      -2.415   0.774  25.014  0.00  0.00    +0.056 A 
ATOM     12  C   UNL     1      -2.113   1.542  25.010  0.00  0.00    +0.006 A 
ATOM     13  C   UNL     1      -2.622   2.185  24.922  0.00  0.00    +0.013 A 
ATOM     14  C   UNL     1      -3.433   2.060  24.838  0.00  0.00    +0.041 A 
ATOM     15  C   UNL     1      -4.219   2.524  24.727  0.00  0.00    +0.054 C 
ATOM     16  C   UNL     1      -4.469   3.177  24.667  0.00  0.00    +0.011 C 
ATOM     17  C   UNL     1      -4.763   2.417  24.671  0.00  0.00    +0.039 C 
ATOM     18  C   UNL     1      -5.302   1.589  24.651  0.00  0.00    +0.074 C 
ATOM     19  N   UNL     1      -4.695   1.024  24.747  0.00  0.00    -0.273 NA
ATOM     20  C   UNL     1      -4.754   1.733  24.706  0.00  0.00    +0.078 C 
ATOM     30  C   UNL     1      -3.947   1.924  24.787  0.00  0.00    +0.110 C 
ATOM     31  N   UNL     1      -3.735   1.292  24.841  0.00  0.00    -0.299 N 
ATOM     32  C   UNL     1      -3.225   0.649  24.929  0.00  0.00    +0.261 A 
ATOM     33  O   UNL     1      -2.672  -0.079  25.027  0.00  0.00    -0.267 OA
ENDROOT
BRANCH  19  21
ATOM     21  C   UNL     1      -4.337   0.284  24.823  0.00  0.00    +0.061 C 
ATOM     22  C   UNL     1      -4.302  -0.226  24.176  0.00  0.00    +0.038 C 
ATOM     23  C   UNL     1      -3.944  -0.965  24.252  0.00  0.00    +0.095 C 
ATOM     24  N   UNL     1      -3.620  -1.195  24.976  0.00  0.00    -0.279 N 
ATOM     25  C   UNL     1      -3.655  -0.684  25.622  0.00  0.00    +0.095 C 
ATOM     26  C   UNL     1      -4.013   0.055  25.547  0.00  0.00    +0.038 C 
ATOM     27  C   UNL     1      -3.317  -2.068  24.672  0.00  0.00    +0.226 C 
ATOM     28  C   UNL     1      -3.221  -2.669  24.093  0.00  0.00    +0.095 C 
ATOM     29  O   UNL     1      -2.938  -2.906  24.670  0.00  0.00    -0.275 OA
ENDBRANCH  19  21
BRANCH  11  10
ATOM      5  C   UNL     1      -1.397  -0.079  24.487  0.00  0.00    -0.006 A 
ATOM      6  C   UNL     1      -0.887  -0.721  24.574  0.00  0.00    -0.003 A 
ATOM      7  C   UNL     1      -0.884  -1.152  25.277  0.00  0.00    -0.000 A 
ATOM      8  C   UNL     1      -1.392  -0.943  25.893  0.00  0.00    -0.000 A 
ATOM      9  C   UNL     1      -1.902  -0.300  25.805  0.00  0.00    -0.000 A 
ATOM     10  C   UNL     1      -1.905   0.132  25.102  0.00  0.00    +0.002 A 
BRANCH   5   4
ATOM      4  C   UNL     1      -1.025   0.031  23.605  0.00  0.00    +0.099 C 
BRANCH   4   2
ATOM      1  C   UNL     1       0.357  -0.443  23.666  0.00  0.00    +0.090 C 
ATOM      2  N   UNL     1      -0.181   0.179  23.718  0.00  0.00    -0.267 NA
ATOM      3  C   UNL     1       0.085   0.944  23.878  0.00  0.00    +0.090 C 
ENDBRANCH   4   2
ENDBRANCH   5   4
ENDBRANCH  11  10
TORSDOF 4
ENDMDL
MODEL 7
REMARK VINA RESULT:     -13.5      1.104      3.006
REMARK  Name = 
REMARK  4 active torsions:
REMARK  status: ('A' for Active; 'I' for Inactive)
REMARK    1  A    between atoms: N_2  and  C_4
REMARK    2  A    between atoms: C_4  and  C_5
REMARK    3  A    between atoms: C_10  and  C_11
REMARK    4  A    between atoms: N_19  and  C_21
REMARK                            x       y       z     vdW  Elec       q    Type
REMARK                         _______ _______ _______ _____ _____    ______ ____
ROOT
ATOM     11  C   UNL     1      -1.742  -0.476  24.769  0.00  0.00    +0.056 A 
ATOM     12  C   UNL     1      -1.348  -1.200  24.801  0.00  0.00    +0.006 A 
ATOM     13  C   UNL     1      -1.763  -1.902  24.681  0.00  0.00    +0.013 A 
ATOM     14  C   UNL     1      -2.574  -1.881  24.529  0.00  0.00    +0.041 A 
ATOM     15  C   UNL     1      -3.284  -2.440  24.362  0.00  0.00    +0.054 C 
ATOM     16  C   UNL     1      -3.444  -3.119  24.292  0.00  0.00    +0.011 C 
ATOM     17  C   UNL     1      -3.831  -2.403  24.261  0.00  0.00    +0.039 C 
ATOM     18  C   UNL     1      -4.466  -1.650  24.185  0.00  0.00    +0.074 C 
ATOM     19  N   UNL     1      -3.943  -1.012  24.321  0.00  0.00    -0.273 NA
ATOM     20  C   UNL     1      -3.910  -1.723  24.286  0.00  0.00    +0.078 C 
ATOM     30  C   UNL     1      -3.095  -1.811  24.435  0.00  0.00    +0.110 C 
ATOM     31  N   UNL     1      -2.968  -1.157  24.497  0.00  0.00    -0.299 N 
ATOM     32  C   UNL     1      -2.553  -0.454  24.617  0.00  0.00    +0.261 A 
ATOM     33  O   UNL     1      -2.104   0.338  24.749  0.00  0.00    -0.267 OA
ENDROOT
BRANCH  19  21
ATOM     21  C   UNL     1      -3.688  -0.233  24.416  0.00  0.00    +0.061 C 
ATOM     22  C   UNL     1      -3.668   0.276  23.767  0.00  0.00    +0.038 C 
ATOM     23  C   UNL     1      -3.413   1.055  23.861  0.00  0.00    +0.095 C 
ATOM     24  N   UNL     1      -3.178   1.325  24.605  0.00  0.00    -0.279 N 
ATOM     25  C   UNL     1      -3.198   0.816  25.253  0.00  0.00    +0.095 C 
ATOM     26  C   UNL     1      -3.453   0.037  25.159  0.00  0.00    +0.038 C 
ATOM     27  C   UNL     1      -2.964   2.229  24.315  0.00  0.00    +0.226 C 
ATOM     28  C   UNL     1      -2.899   2.836  23.737  0.00  0.00    +0.095 C 
ATOM     29  O   UNL     1      -2.694   3.108  24.331  0.00  0.00    -0.275 OA
ENDBRANCH  19  21
BRANCH  11  10
ATOM      5  C   UNL     1      -0.849   0.529  24.289  0.00  0.00    -0.006 A 
ATOM      6  C   UNL     1      -0.432   1.231  24.408  0.00  0.00    -0.003 A 
ATOM      7  C   UNL     1      -0.492   1.629  25.128  0.00  0.00    -0.000 A 
ATOM      8  C   UNL     1      -0.969   1.326  25.729  0.00  0.00    -0.000 A 
ATOM      9  C   UNL     1      -1.386   0.624  25.609  0.00  0.00    -0.000 A 
ATOM     10  C   UNL     1      -1.326   0.226  24.889  0.00  0.00    +0.002 A 
BRANCH   5   4
ATOM      4  C   UNL     1      -0.461   0.509  23.408  0.00  0.00    +0.099 C 
BRANCH   4   2
ATOM      1  C   UNL     1       0.719  -0.349  23.500  0.00  0.00    +0.090 C 
ATOM      2  N   UNL     1       0.389   0.406  23.522  0.00  0.00    -0.267 NA
ATOM      3  C   UNL     1       0.870   1.064  23.653  0.00  0.00    +0.090 C 
ENDBRANCH   4   2
ENDBRANCH   5   4
ENDBRANCH  11  10
TORSDOF 4
ENDMDL
MODEL 8
REMARK VINA RESULT:     -13.4      1.153      3.755
REMARK  Name = 
REMARK  4 active torsions:
REMARK  status: ('A' for Active; 'I' for Inactive)
REMARK    1  A    between atoms: N_2  and  C_4
REMARK    2  A    between atoms: C_4  and  C_5
REMARK    3  A    between atoms: C_10  and  C_11
REMARK    4  A    between atoms: N_19  and  C_21
REMARK                            x       y       z     vdW  Elec       q    Type
REMARK                         _______ _______ _______ _____ _____    ______ ____
ROOT
ATOM     11  C   UNL     1      -2.970   2.212  24.604  0.00  0.00    +0.056 A 
ATOM     12  C   UNL     1      -3.036   3.028  24.711  0.00  0.00    +0.006 A 
ATOM     13  C   UNL     1      -3.752   3.356  24.954  0.00  0.00    +0.013 A 
ATOM     14  C   UNL     1      -4.404   2.869  25.090  0.00  0.00    +0.041 A 
ATOM     15  C   UNL     1      -5.284   2.911  25.350  0.00  0.00    +0.054 C 
ATOM     16  C   UNL     1      -5.780   3.368  25.543  0.00  0.00    +0.011 C 
ATOM     17  C   UNL     1      -5.712   2.564  25.437  0.00  0.00    +0.039 C 
ATOM     18  C   UNL     1      -5.827   1.585  25.365  0.00  0.00    +0.074 C 
ATOM     19  N   UNL     1      -5.058   1.371  25.119  0.00  0.00    -0.273 NA
ATOM     20  C   UNL     1      -5.412   1.966  25.286  0.00  0.00    +0.078 C 
ATOM     30  C   UNL     1      -4.793   2.510  25.165  0.00  0.00    +0.110 C 
ATOM     31  N   UNL     1      -4.338   2.053  24.984  0.00  0.00    -0.299 N 
ATOM     32  C   UNL     1      -3.622   1.725  24.741  0.00  0.00    +0.261 A 
ATOM     33  O   UNL     1      -2.830   1.342  24.470  0.00  0.00    -0.267 OA
ENDROOT
BRANCH  19  21
ATOM     21  C   UNL     1      -4.432   0.887  24.885  0.00  0.00    +0.061 C 
ATOM     22  C   UNL     1      -4.086   0.371  25.427  0.00  0.00    +0.038 C 
ATOM     23  C   UNL     1      -3.459  -0.113  25.193  0.00  0.00    +0.095 C 
ATOM     24  N   UNL     1      -3.179  -0.080  24.417  0.00  0.00    -0.279 N 
ATOM     25  C   UNL     1      -3.526   0.437  23.876  0.00  0.00    +0.095 C 
ATOM     26  C   UNL     1      -4.152   0.921  24.109  0.00  0.00    +0.038 C 
ATOM     27  C   UNL     1      -2.487  -0.753  24.536  0.00  0.00    +0.226 C 
ATOM     28  C   UNL     1      -2.057  -1.314  24.990  0.00  0.00    +0.095 C 
ATOM     29  O   UNL     1      -1.788  -1.325  24.360  0.00  0.00    -0.275 OA
ENDBRANCH  19  21
BRANCH  11  10
ATOM      5  C   UNL     1      -1.622   1.836  24.890  0.00  0.00    -0.006 A 
ATOM      6  C   UNL     1      -0.905   1.509  24.648  0.00  0.00    -0.003 A 
ATOM      7  C   UNL     1      -0.819   1.230  23.876  0.00  0.00    -0.000 A 
ATOM      8  C   UNL     1      -1.449   1.279  23.347  0.00  0.00    -0.000 A 
ATOM      9  C   UNL     1      -2.168   1.606  23.590  0.00  0.00    -0.000 A 
ATOM     10  C   UNL     1      -2.254   1.885  24.361  0.00  0.00    +0.002 A 
BRANCH   5   4
ATOM      4  C   UNL     1      -1.211   1.971  25.750  0.00  0.00    +0.099 C 
BRANCH   4   2
ATOM      1  C   UNL     1       0.213   2.197  25.504  0.00  0.00    +0.090 C 
ATOM      2  N   UNL     1      -0.544   2.504  25.616  0.00  0.00    -0.267 NA
ATOM      3  C   UNL     1      -0.665   3.320  25.601  0.00  0.00    +0.090 C 
ENDBRANCH   4   2
ENDBRANCH   5   4
ENDBRANCH  11  10
TORSDOF 4
ENDMDL
MODEL 9
REMARK VINA RESULT:     -13.1      1.375      3.792
REMARK  Name = 
REMARK  4 active torsions:
REMARK  status: ('A' for Active; 'I' for Inactive)
REMARK    1  A    between atoms: N_2  and  C_4
REMARK    2  A    between atoms: C_4  and  C_5
REMARK    3  A    between atoms: C_10  and  C_11
REMARK    4  A    between atoms: N_19  and  C_21
REMARK                            x       y       z     vdW  Elec       q    Type
REMARK                         _______ _______ _______ _____ _____    ______ ____
ROOT
ATOM     11  C   UNL     1      -2.883   2.491  24.418  0.00  0.00    +0.056 A 
ATOM     12  C   UNL     1      -3.352   3.167  24.354  0.00  0.00    +0.006 A 
ATOM     13  C   UNL     1      -3.037   3.907  24.536  0.00  0.00    +0.013 A 
ATOM     14  C   UNL     1      -2.252   3.972  24.781  0.00  0.00    +0.041 A 
ATOM     15  C   UNL     1      -1.636   4.601  25.041  0.00  0.00    +0.054 C 
ATOM     16  C   UNL     1      -1.563   5.292  25.143  0.00  0.00    +0.011 C 
ATOM     17  C   UNL     1      -1.103   4.623  25.205  0.00  0.00    +0.039 C 
ATOM     18  C   UNL     1      -0.398   3.944  25.340  0.00  0.00    +0.074 C 
ATOM     19  N   UNL     1      -0.824   3.256  25.131  0.00  0.00    -0.273 NA
ATOM     20  C   UNL     1      -0.944   3.957  25.176  0.00  0.00    +0.078 C 
ATOM     30  C   UNL     1      -1.740   3.958  24.935  0.00  0.00    +0.110 C 
ATOM     31  N   UNL     1      -1.783   3.296  24.845  0.00  0.00    -0.299 N 
ATOM     32  C   UNL     1      -2.098   2.556  24.664  0.00  0.00    +0.261 A 
ATOM     33  O   UNL     1      -2.434   1.722  24.465  0.00  0.00    -0.267 OA
ENDROOT
BRANCH  19  21
ATOM     21  C   UNL     1      -0.975   2.457  24.993  0.00  0.00    +0.061 C 
ATOM     22  C   UNL     1      -1.013   1.929  25.625  0.00  0.00    +0.038 C 
ATOM     23  C   UNL     1      -1.164   1.130  25.487  0.00  0.00    +0.095 C 
ATOM     24  N   UNL     1      -1.277   0.859  24.715  0.00  0.00    -0.279 N 
ATOM     25  C   UNL     1      -1.239   1.387  24.084  0.00  0.00    +0.095 C 
ATOM     26  C   UNL     1      -1.089   2.186  24.221  0.00  0.00    +0.038 C 
ATOM     27  C   UNL     1      -1.418  -0.072  24.961  0.00  0.00    +0.226 C 
ATOM     28  C   UNL     1      -1.480  -0.701  25.515  0.00  0.00    +0.095 C 
ATOM     29  O   UNL     1      -1.581  -0.975  24.896  0.00  0.00    -0.275 OA
ENDBRANCH  19  21
BRANCH  11  10
ATOM      5  C   UNL     1      -3.749   1.403  24.743  0.00  0.00    -0.006 A 
ATOM      6  C   UNL     1      -4.066   0.663  24.562  0.00  0.00    -0.003 A 
ATOM      7  C   UNL     1      -3.832   0.271  23.875  0.00  0.00    -0.000 A 
ATOM      8  C   UNL     1      -3.282   0.619  23.368  0.00  0.00    -0.000 A 
ATOM      9  C   UNL     1      -2.965   1.360  23.550  0.00  0.00    -0.000 A 
ATOM     10  C   UNL     1      -3.199   1.751  24.237  0.00  0.00    +0.002 A 
BRANCH   5   4
ATOM      4  C   UNL     1      -4.297   1.386  25.535  0.00  0.00    +0.099 C 
BRANCH   4   2
ATOM      1  C   UNL     1      -5.517   0.727  25.069  0.00  0.00    +0.090 C 
ATOM      2  N   UNL     1      -5.116   1.422  25.262  0.00  0.00    -0.267 NA
ATOM      3  C   UNL     1      -5.496   2.151  25.193  0.00  0.00    +0.090 C 
ENDBRANCH   4   2
ENDBRANCH   5   4
ENDBRANCH  11  10
TORSDOF 4
ENDMDL
