MODEL 1
REMARK VINA RESULT:     -10.1      0.000      0.000
REMARK  Name = 
REMARK  7 active torsions:
REMARK  status: ('A' for Active; 'I' for Inactive)
REMARK    1  A    between atoms: C_2  and  C_5
REMARK    2  A    between atoms: C_9  and  N_10
REMARK    3  A    between atoms: C_11  and  O_13
REMARK    4  A    between atoms: O_13  and  C_14
REMARK    5  A    between atoms: C_18  and  N_22
REMARK    6  A    between atoms: N_25  and  C_26
REMARK    7  A    between atoms: C_28  and  C_32
REMARK                            x       y       z     vdW  Elec       q    Type
REMARK                         _______ _______ _______ _____ _____    ______ ____
ROOT
ATOM     14  C   UNL     1       0.883   0.381  23.384  0.00  0.00    +0.229 C 
ATOM     15  C   UNL     1       0.774   1.134  23.700  0.00  0.00    +0.188 C 
ATOM     16  O   UNL     1       0.128   1.104  24.212  0.00  0.00    -0.348 OA
ATOM     17  C   UNL     1      -0.162   0.333  24.212  0.00  0.00    +0.168 C 
ATOM     18  C   UNL     1      -0.740  -0.164  24.527  0.00  0.00    +0.156 C 
ATOM     19  C   UNL     1      -0.631  -0.918  24.211  0.00  0.00    +0.166 C 
ATOM     20  O   UNL     1       0.015  -0.887  23.699  0.00  0.00    -0.348 OA
ATOM     21  C   UNL     1       0.305  -0.115  23.700  0.00  0.00    +0.186 C 
ENDROOT
BRANCH  18  22
ATOM     22  N   UNL     1      -1.326   0.055  25.066  0.00  0.00    -0.184 NA
ATOM     23  C   UNL     1      -2.117   0.066  24.833  0.00  0.00    +0.344 C 
ATOM     24  O   UNL     1      -2.323  -0.142  24.062  0.00  0.00    -0.249 OA
ATOM     25  N   UNL     1      -2.703   0.285  25.371  0.00  0.00    -0.161 NA
BRANCH  25  26
ATOM     26  C   UNL     1      -3.494   0.297  25.139  0.00  0.00    +0.076 A 
ATOM     27  C   UNL     1      -3.901   1.012  25.093  0.00  0.00    +0.027 A 
ATOM     28  C   UNL     1      -4.692   1.024  24.860  0.00  0.00    +0.070 A 
ATOM     29  C   UNL     1      -5.077   0.318  24.673  0.00  0.00    +0.010 A 
ATOM     30  C   UNL     1      -4.670  -0.399  24.719  0.00  0.00    +0.002 A 
ATOM     31  C   UNL     1      -3.879  -0.409  24.952  0.00  0.00    +0.017 A 
BRANCH  28  32
ATOM     32  C   UNL     1      -5.099   1.740  24.815  0.00  0.00    +0.100 C 
ATOM     33  N   UNL     1      -5.505   2.456  24.769  0.00  0.00    -0.191 NA
ENDBRANCH  28  32
ENDBRANCH  25  26
ENDBRANCH  18  22
BRANCH  14  13
ATOM     13  O   UNL     1       1.469   0.161  22.845  0.00  0.00    -0.432 OA
BRANCH  13  11
ATOM     10  N   UNL     1       2.860  -0.165  22.818  0.00  0.00    -0.142 NA
ATOM     11  C   UNL     1       2.255   0.371  22.982  0.00  0.00    +0.425 C 
ATOM     12  O   UNL     1       2.436   1.118  23.283  0.00  0.00    -0.224 OA
BRANCH  10   9
ATOM      5  C   UNL     1       4.873  -0.148  23.662  0.00  0.00    +0.073 A 
ATOM      6  C   UNL     1       5.218   0.463  23.228  0.00  0.00    +0.004 A 
ATOM      7  C   UNL     1       4.778   0.865  22.657  0.00  0.00    +0.001 A 
ATOM      8  C   UNL     1       3.992   0.655  22.521  0.00  0.00    +0.017 A 
ATOM      9  C   UNL     1       3.646   0.044  22.955  0.00  0.00    +0.077 A 
ATOM     34  C   UNL     1       4.087  -0.357  23.525  0.00  0.00    +0.021 A 
BRANCH   5   2
ATOM      1  F   UNL     1       5.755  -0.950  24.802  0.00  0.00    -0.166 F 
ATOM      2  C   UNL     1       5.314  -0.549  24.232  0.00  0.00    +0.419 C 
ATOM      3  F   UNL     1       5.192  -1.257  23.828  0.00  0.00    -0.166 F 
ATOM      4  F   UNL     1       5.436   0.160  24.637  0.00  0.00    -0.166 F 
ENDBRANCH   5   2
ENDBRANCH  10   9
ENDBRANCH  13  11
ENDBRANCH  14  13
TORSDOF 7
ENDMDL
MODEL 2
REMARK VINA RESULT:     -10.1      4.096      5.912
REMARK  Name = 
REMARK  7 active torsions:
REMARK  status: ('A' for Active; 'I' for Inactive)
REMARK    1  A    between atoms: C_2  and  C_5
REMARK    2  A    between atoms: C_9  and  N_10
REMARK    3  A    between atoms: C_11  and  O_13
REMARK    4  A    between atoms: O_13  and  C_14
REMARK    5  A    between atoms: C_18  and  N_22
REMARK    6  A    between atoms: N_25  and  C_26
REMARK    7  A    between atoms: C_28  and  C_32
REMARK                            x       y       z     vdW  Elec       q    Type
REMARK                         _______ _______ _______ _____ _____    ______ ____
ROOT
ATOM     14  C   UNL     1      -0.466  -0.412  24.929  0.00  0.00    +0.229 C 
ATOM     15  C   UNL     1      -0.593  -0.224  25.722  0.00  0.00    +0.188 C 
ATOM     16  O   UNL     1      -0.432   0.579  25.821  0.00  0.00    -0.348 OA
ATOM     17  C   UNL     1      -0.205   0.887  25.091  0.00  0.00    +0.168 C 
ATOM     18  C   UNL     1       0.034   1.572  24.700  0.00  0.00    +0.156 C 
ATOM     19  C   UNL     1       0.161   1.383  23.907  0.00  0.00    +0.166 C 
ATOM     20  O   UNL     1       0.000   0.581  23.808  0.00  0.00    -0.348 OA
ATOM     21  C   UNL     1      -0.227   0.273  24.539  0.00  0.00    +0.186 C 
ENDROOT
BRANCH  18  22
ATOM     22  N   UNL     1       0.131   2.317  25.042  0.00  0.00    -0.184 NA
ATOM     23  C   UNL     1      -0.477   2.873  24.998  0.00  0.00    +0.344 C 
ATOM     24  O   UNL     1      -1.181   2.685  24.612  0.00  0.00    -0.249 OA
ATOM     25  N   UNL     1      -0.382   3.617  25.341  0.00  0.00    -0.161 NA
BRANCH  25  26
ATOM     26  C   UNL     1      -0.989   4.173  25.297  0.00  0.00    +0.076 A 
ATOM     27  C   UNL     1      -1.719   4.017  25.648  0.00  0.00    +0.027 A 
ATOM     28  C   UNL     1      -2.326   4.572  25.604  0.00  0.00    +0.070 A 
ATOM     29  C   UNL     1      -2.204   5.286  25.208  0.00  0.00    +0.010 A 
ATOM     30  C   UNL     1      -1.475   5.443  24.856  0.00  0.00    +0.002 A 
ATOM     31  C   UNL     1      -0.868   4.887  24.900  0.00  0.00    +0.017 A 
BRANCH  28  32
ATOM     32  C   UNL     1      -3.056   4.415  25.957  0.00  0.00    +0.100 C 
ATOM     33  N   UNL     1      -3.785   4.259  26.308  0.00  0.00    -0.191 NA
ENDBRANCH  28  32
ENDBRANCH  25  26
ENDBRANCH  18  22
BRANCH  14  13
ATOM     13  O   UNL     1      -0.563  -1.157  24.587  0.00  0.00    -0.432 OA
BRANCH  13  11
ATOM     10  N   UNL     1      -1.756  -1.734  24.054  0.00  0.00    -0.142 NA
ATOM     11  C   UNL     1      -1.266  -1.575  24.697  0.00  0.00    +0.425 C 
ATOM     12  O   UNL     1      -1.477  -1.832  25.452  0.00  0.00    -0.224 OA
BRANCH  10   9
ATOM      5  C   UNL     1      -3.887  -2.197  24.154  0.00  0.00    +0.073 A 
ATOM      6  C   UNL     1      -3.864  -2.988  24.385  0.00  0.00    +0.004 A 
ATOM      7  C   UNL     1      -3.139  -3.362  24.506  0.00  0.00    +0.001 A 
ATOM      8  C   UNL     1      -2.436  -2.944  24.395  0.00  0.00    +0.017 A 
ATOM      9  C   UNL     1      -2.459  -2.152  24.164  0.00  0.00    +0.077 A 
ATOM     34  C   UNL     1      -3.184  -1.779  24.043  0.00  0.00    +0.021 A 
BRANCH   5   2
ATOM      1  F   UNL     1      -5.338  -1.450  23.912  0.00  0.00    -0.166 F 
ATOM      2  C   UNL     1      -4.612  -1.823  24.033  0.00  0.00    +0.419 C 
ATOM      3  F   UNL     1      -4.747  -2.299  23.373  0.00  0.00    -0.166 F 
ATOM      4  F   UNL     1      -4.478  -1.347  24.693  0.00  0.00    -0.166 F 
ENDBRANCH   5   2
ENDBRANCH  10   9
ENDBRANCH  13  11
ENDBRANCH  14  13
TORSDOF 7
ENDMDL
MODEL 3
REMARK VINA RESULT:     -10.0      4.198      5.472
REMARK  Name = 
REMARK  7 active torsions:
REMARK  status: ('A' for Active; 'I' for Inactive)
REMARK    1  A    between atoms: C_2  and  C_5
REMARK    2  A    between atoms: C_9  and  N_10
REMARK    3  A    between atoms: C_11  and  O_13
REMARK    4  A    between atoms: O_13  and  C_14
REMARK    5  A    between atoms: C_18  and  N_22
REMARK    6  A    between atoms: N_25  and  C_26
REMARK    7  A    between atoms: C_28  and  C_32
REMARK                            x       y       z     vdW  Elec       q    Type
REMARK                         _______ _______ _______ _____ _____    ______ ____
ROOT
ATOM     14  C   UNL     1       0.121   1.747  24.427  0.00  0.00    +0.229 C 
ATOM     15  C   UNL     1       0.200   1.502  23.644  0.00  0.00    +0.188 C 
ATOM     16  O   UNL     1      -0.029   0.711  23.601  0.00  0.00    -0.348 OA
ATOM     17  C   UNL     1      -0.250   0.467  24.356  0.00  0.00    +0.168 C 
ATOM     18  C   UNL     1      -0.528  -0.172  24.798  0.00  0.00    +0.156 C 
ATOM     19  C   UNL     1      -0.607   0.074  25.582  0.00  0.00    +0.166 C 
ATOM     20  O   UNL     1      -0.378   0.865  25.625  0.00  0.00    -0.348 OA
ATOM     21  C   UNL     1      -0.157   1.108  24.867  0.00  0.00    +0.186 C 
ENDROOT
BRANCH  18  22
ATOM     22  N   UNL     1      -0.697  -0.925  24.507  0.00  0.00    -0.184 NA
ATOM     23  C   UNL     1      -1.424  -1.278  24.673  0.00  0.00    +0.344 C 
ATOM     24  O   UNL     1      -1.982  -0.878  25.130  0.00  0.00    -0.249 OA
ATOM     25  N   UNL     1      -1.594  -2.031  24.381  0.00  0.00    -0.161 NA
BRANCH  25  26
ATOM     26  C   UNL     1      -2.321  -2.384  24.547  0.00  0.00    +0.076 A 
ATOM     27  C   UNL     1      -2.977  -2.218  24.077  0.00  0.00    +0.027 A 
ATOM     28  C   UNL     1      -3.704  -2.571  24.242  0.00  0.00    +0.070 A 
ATOM     29  C   UNL     1      -3.775  -3.090  24.880  0.00  0.00    +0.010 A 
ATOM     30  C   UNL     1      -3.118  -3.256  25.352  0.00  0.00    +0.002 A 
ATOM     31  C   UNL     1      -2.391  -2.902  25.185  0.00  0.00    +0.017 A 
BRANCH  28  32
ATOM     32  C   UNL     1      -4.361  -2.405  23.771  0.00  0.00    +0.100 C 
ATOM     33  N   UNL     1      -5.017  -2.240  23.300  0.00  0.00    -0.191 NA
ENDBRANCH  28  32
ENDBRANCH  25  26
ENDBRANCH  18  22
BRANCH  14  13
ATOM     13  O   UNL     1       0.290   2.501  24.719  0.00  0.00    -0.432 OA
BRANCH  13  11
ATOM     10  N   UNL     1      -0.539   3.455  25.385  0.00  0.00    -0.142 NA
ATOM     11  C   UNL     1      -0.283   3.093  24.689  0.00  0.00    +0.425 C 
ATOM     12  O   UNL     1      -0.600   3.324  23.963  0.00  0.00    -0.224 OA
BRANCH  10   9
ATOM      5  C   UNL     1      -2.457   4.481  25.570  0.00  0.00    +0.073 A 
ATOM      6  C   UNL     1      -2.258   5.233  25.297  0.00  0.00    +0.004 A 
ATOM      7  C   UNL     1      -1.486   5.393  25.052  0.00  0.00    +0.001 A 
ATOM      8  C   UNL     1      -0.914   4.800  25.082  0.00  0.00    +0.017 A 
ATOM      9  C   UNL     1      -1.112   4.047  25.355  0.00  0.00    +0.077 A 
ATOM     34  C   UNL     1      -1.883   3.888  25.600  0.00  0.00    +0.021 A 
BRANCH   5   2
ATOM      1  F   UNL     1      -4.000   4.163  26.059  0.00  0.00    -0.166 F 
ATOM      2  C   UNL     1      -3.228   4.322  25.815  0.00  0.00    +0.419 C 
ATOM      3  F   UNL     1      -3.015   4.484  26.594  0.00  0.00    -0.166 F 
ATOM      4  F   UNL     1      -3.443   4.159  25.035  0.00  0.00    -0.166 F 
ENDBRANCH   5   2
ENDBRANCH  10   9
ENDBRANCH  13  11
ENDBRANCH  14  13
TORSDOF 7
ENDMDL
MODEL 4
REMARK VINA RESULT:      -9.9      3.611      7.635
REMARK  Name = 
REMARK  7 active torsions:
REMARK  status: ('A' for Active; 'I' for Inactive)
REMARK    1  A    between atoms: C_2  and  C_5
REMARK    2  A    between atoms: C_9  and  N_10
REMARK    3  A    between atoms: C_11  and  O_13
REMARK    4  A    between atoms: O_13  and  C_14
REMARK    5  A    between atoms: C_18  and  N_22
REMARK    6  A    between atoms: N_25  and  C_26
REMARK    7  A    between atoms: C_28  and  C_32
REMARK                            x       y       z     vdW  Elec       q    Type
REMARK                         _______ _______ _______ _____ _____    ______ ____
ROOT
ATOM     14  C   UNL     1      -1.267   0.555  24.717  0.00  0.00    +0.229 C 
ATOM     15  C   UNL     1      -1.322  -0.218  24.436  0.00  0.00    +0.188 C 
ATOM     16  O   UNL     1      -0.661  -0.365  23.965  0.00  0.00    -0.348 OA
ATOM     17  C   UNL     1      -0.198   0.317  23.954  0.00  0.00    +0.168 C 
ATOM     18  C   UNL     1       0.496   0.649  23.657  0.00  0.00    +0.156 C 
ATOM     19  C   UNL     1       0.551   1.422  23.938  0.00  0.00    +0.166 C 
ATOM     20  O   UNL     1      -0.110   1.569  24.409  0.00  0.00    -0.348 OA
ATOM     21  C   UNL     1      -0.573   0.886  24.419  0.00  0.00    +0.186 C 
ENDROOT
BRANCH  18  22
ATOM     22  N   UNL     1       1.041   0.272  23.164  0.00  0.00    -0.184 NA
ATOM     23  C   UNL     1       1.844   0.453  23.223  0.00  0.00    +0.344 C 
ATOM     24  O   UNL     1       2.102   1.009  23.774  0.00  0.00    -0.249 OA
ATOM     25  N   UNL     1       2.388   0.077  22.731  0.00  0.00    -0.161 NA
BRANCH  25  26
ATOM     26  C   UNL     1       3.191   0.257  22.789  0.00  0.00    +0.076 A 
ATOM     27  C   UNL     1       3.690  -0.220  23.241  0.00  0.00    +0.027 A 
ATOM     28  C   UNL     1       4.492  -0.040  23.299  0.00  0.00    +0.070 A 
ATOM     29  C   UNL     1       4.797   0.618  22.905  0.00  0.00    +0.010 A 
ATOM     30  C   UNL     1       4.299   1.095  22.453  0.00  0.00    +0.002 A 
ATOM     31  C   UNL     1       3.496   0.914  22.395  0.00  0.00    +0.017 A 
BRANCH  28  32
ATOM     32  C   UNL     1       4.990  -0.518  23.752  0.00  0.00    +0.100 C 
ATOM     33  N   UNL     1       5.489  -0.994  24.204  0.00  0.00    -0.191 NA
ENDBRANCH  28  32
ENDBRANCH  25  26
ENDBRANCH  18  22
BRANCH  14  13
ATOM     13  O   UNL     1      -1.812   0.932  25.210  0.00  0.00    -0.432 OA
BRANCH  13  11
ATOM     10  N   UNL     1      -2.881   1.879  25.156  0.00  0.00    -0.142 NA
ATOM     11  C   UNL     1      -2.545   1.166  24.912  0.00  0.00    +0.425 C 
ATOM     12  O   UNL     1      -2.941   0.687  24.369  0.00  0.00    -0.224 OA
BRANCH  10   9
ATOM      5  C   UNL     1      -5.038   2.157  24.966  0.00  0.00    +0.073 A 
ATOM      6  C   UNL     1      -5.079   2.583  24.261  0.00  0.00    +0.004 A 
ATOM      7  C   UNL     1      -4.387   2.774  23.854  0.00  0.00    +0.001 A 
ATOM      8  C   UNL     1      -3.654   2.539  24.152  0.00  0.00    +0.017 A 
ATOM      9  C   UNL     1      -3.613   2.113  24.858  0.00  0.00    +0.077 A 
ATOM     34  C   UNL     1      -4.305   1.922  25.264  0.00  0.00    +0.021 A 
BRANCH   5   2
ATOM      1  F   UNL     1      -6.421   1.775  25.780  0.00  0.00    -0.166 F 
ATOM      2  C   UNL     1      -5.729   1.966  25.373  0.00  0.00    +0.419 C 
ATOM      3  F   UNL     1      -5.930   1.430  24.780  0.00  0.00    -0.166 F 
ATOM      4  F   UNL     1      -5.529   2.502  25.967  0.00  0.00    -0.166 F 
ENDBRANCH   5   2
ENDBRANCH  10   9
ENDBRANCH  13  11
ENDBRANCH  14  13
TORSDOF 7
ENDMDL
MODEL 5
REMARK VINA RESULT:      -9.7      4.381      5.846
REMARK  Name = 
REMARK  7 active torsions:
REMARK  status: ('A' for Active; 'I' for Inactive)
REMARK    1  A    between atoms: C_2  and  C_5
REMARK    2  A    between atoms: C_9  and  N_10
REMARK    3  A    between atoms: C_11  and  O_13
REMARK    4  A    between atoms: O_13  and  C_14
REMARK    5  A    between atoms: C_18  and  N_22
REMARK    6  A    between atoms: N_25  and  C_26
REMARK    7  A    between atoms: C_28  and  C_32
REMARK                            x       y       z     vdW  Elec       q    Type
REMARK                         _______ _______ _______ _____ _____    ______ ____
ROOT
ATOM     14  C   UNL     1      -4.359   2.694  24.505  0.00  0.00    +0.229 C 
ATOM     15  C   UNL     1      -4.219   2.535  23.708  0.00  0.00    +0.188 C 
ATOM     16  O   UNL     1      -4.329   1.727  23.587  0.00  0.00    -0.348 OA
ATOM     17  C   UNL     1      -4.537   1.386  24.308  0.00  0.00    +0.168 C 
ATOM     18  C   UNL     1      -4.734   0.677  24.680  0.00  0.00    +0.156 C 
ATOM     19  C   UNL     1      -4.874   0.836  25.477  0.00  0.00    +0.166 C 
ATOM     20  O   UNL     1      -4.764   1.644  25.598  0.00  0.00    -0.348 OA
ATOM     21  C   UNL     1      -4.556   1.984  24.875  0.00  0.00    +0.186 C 
ENDROOT
BRANCH  18  22
ATOM     22  N   UNL     1      -4.782  -0.063  24.317  0.00  0.00    -0.184 NA
ATOM     23  C   UNL     1      -4.233  -0.651  24.503  0.00  0.00    +0.344 C 
ATOM     24  O   UNL     1      -3.637  -0.498  25.052  0.00  0.00    -0.249 OA
ATOM     25  N   UNL     1      -4.281  -1.390  24.141  0.00  0.00    -0.161 NA
BRANCH  25  26
ATOM     26  C   UNL     1      -3.732  -1.977  24.328  0.00  0.00    +0.076 A 
ATOM     27  C   UNL     1      -2.925  -1.823  24.265  0.00  0.00    +0.027 A 
ATOM     28  C   UNL     1      -2.377  -2.410  24.451  0.00  0.00    +0.070 A 
ATOM     29  C   UNL     1      -2.636  -3.153  24.700  0.00  0.00    +0.010 A 
ATOM     30  C   UNL     1      -3.444  -3.308  24.763  0.00  0.00    +0.002 A 
ATOM     31  C   UNL     1      -3.992  -2.720  24.576  0.00  0.00    +0.017 A 
BRANCH  28  32
ATOM     32  C   UNL     1      -1.568  -2.255  24.389  0.00  0.00    +0.100 C 
ATOM     33  N   UNL     1      -0.761  -2.100  24.326  0.00  0.00    -0.191 NA
ENDBRANCH  28  32
ENDBRANCH  25  26
ENDBRANCH  18  22
BRANCH  14  13
ATOM     13  O   UNL     1      -4.311   3.434  24.867  0.00  0.00    -0.432 OA
BRANCH  13  11
ATOM     10  N   UNL     1      -3.048   3.889  25.356  0.00  0.00    -0.142 NA
ATOM     11  C   UNL     1      -3.634   3.896  24.775  0.00  0.00    +0.425 C 
ATOM     12  O   UNL     1      -3.543   4.364  24.102  0.00  0.00    -0.224 OA
BRANCH  10   9
ATOM      5  C   UNL     1      -0.971   4.456  24.994  0.00  0.00    +0.073 A 
ATOM      6  C   UNL     1      -1.016   5.275  25.080  0.00  0.00    +0.004 A 
ATOM      7  C   UNL     1      -1.738   5.633  25.258  0.00  0.00    +0.001 A 
ATOM      8  C   UNL     1      -2.415   5.170  25.350  0.00  0.00    +0.017 A 
ATOM      9  C   UNL     1      -2.370   4.351  25.264  0.00  0.00    +0.077 A 
ATOM     34  C   UNL     1      -1.649   3.994  25.086  0.00  0.00    +0.021 A 
BRANCH   5   2
ATOM      1  F   UNL     1       0.473   3.742  24.637  0.00  0.00    -0.166 F 
ATOM      2  C   UNL     1      -0.249   4.099  24.816  0.00  0.00    +0.419 C 
ATOM      3  F   UNL     1      -0.248   4.470  24.079  0.00  0.00    -0.166 F 
ATOM      4  F   UNL     1      -0.250   3.728  25.552  0.00  0.00    -0.166 F 
ENDBRANCH   5   2
ENDBRANCH  10   9
ENDBRANCH  13  11
ENDBRANCH  14  13
TORSDOF 7
ENDMDL
MODEL 6
REMARK VINA RESULT:      -9.5      3.234      6.876
REMARK  Name = 
REMARK  7 active torsions:
REMARK  status: ('A' for Active; 'I' for Inactive)
REMARK    1  A    between atoms: C_2  and  C_5
REMARK    2  A    between atoms: C_9  and  N_10
REMARK    3  A    between atoms: C_11  and  O_13
REMARK    4  A    between atoms: O_13  and  C_14
REMARK    5  A    between atoms: C_18  and  N_22
REMARK    6  A    between atoms: N_25  and  C_26
REMARK    7  A    between atoms: C_28  and  C_32
REMARK                            x       y       z     vdW  Elec       q    Type
REMARK                         _______ _______ _______ _____ _____    ______ ____
ROOT
ATOM     14  C   UNL     1      -1.430   1.051  23.927  0.00  0.00    +0.229 C 
ATOM     15  C   UNL     1      -1.372   1.347  23.160  0.00  0.00    +0.188 C 
ATOM     16  O   UNL     1      -0.695   1.026  22.815  0.00  0.00    -0.348 OA
ATOM     17  C   UNL     1      -0.335   0.533  23.368  0.00  0.00    +0.168 C 
ATOM     18  C   UNL     1       0.305   0.029  23.498  0.00  0.00    +0.156 C 
ATOM     19  C   UNL     1       0.247  -0.267  24.265  0.00  0.00    +0.166 C 
ATOM     20  O   UNL     1      -0.430   0.054  24.610  0.00  0.00    -0.348 OA
ATOM     21  C   UNL     1      -0.790   0.548  24.056  0.00  0.00    +0.186 C 
ENDROOT
BRANCH  18  22
ATOM     22  N   UNL     1       0.900  -0.147  22.954  0.00  0.00    -0.184 NA
ATOM     23  C   UNL     1       1.674   0.103  23.092  0.00  0.00    +0.344 C 
ATOM     24  O   UNL     1       1.853   0.531  23.775  0.00  0.00    -0.249 OA
ATOM     25  N   UNL     1       2.269  -0.073  22.549  0.00  0.00    -0.161 NA
BRANCH  25  26
ATOM     26  C   UNL     1       3.043   0.178  22.688  0.00  0.00    +0.076 A 
ATOM     27  C   UNL     1       3.565  -0.306  23.104  0.00  0.00    +0.027 A 
ATOM     28  C   UNL     1       4.338  -0.056  23.243  0.00  0.00    +0.070 A 
ATOM     29  C   UNL     1       4.590   0.680  22.965  0.00  0.00    +0.010 A 
ATOM     30  C   UNL     1       4.067   1.164  22.549  0.00  0.00    +0.002 A 
ATOM     31  C   UNL     1       3.294   0.913  22.410  0.00  0.00    +0.017 A 
BRANCH  28  32
ATOM     32  C   UNL     1       4.861  -0.540  23.659  0.00  0.00    +0.100 C 
ATOM     33  N   UNL     1       5.383  -1.024  24.075  0.00  0.00    -0.191 NA
ENDBRANCH  28  32
ENDBRANCH  25  26
ENDBRANCH  18  22
BRANCH  14  13
ATOM     13  O   UNL     1      -2.026   1.228  24.471  0.00  0.00    -0.432 OA
BRANCH  13  11
ATOM     10  N   UNL     1      -1.942   2.387  25.302  0.00  0.00    -0.142 NA
ATOM     11  C   UNL     1      -2.225   2.013  24.624  0.00  0.00    +0.425 C 
ATOM     12  O   UNL     1      -2.709   2.426  24.098  0.00  0.00    -0.224 OA
BRANCH  10   9
ATOM      5  C   UNL     1      -1.838   4.566  25.369  0.00  0.00    +0.073 A 
ATOM      6  C   UNL     1      -2.541   4.744  25.762  0.00  0.00    +0.004 A 
ATOM      7  C   UNL     1      -3.045   4.136  26.002  0.00  0.00    +0.001 A 
ATOM      8  C   UNL     1      -2.844   3.350  25.848  0.00  0.00    +0.017 A 
ATOM      9  C   UNL     1      -2.141   3.173  25.456  0.00  0.00    +0.077 A 
ATOM     34  C   UNL     1      -1.638   3.781  25.216  0.00  0.00    +0.021 A 
BRANCH   5   2
ATOM      1  F   UNL     1      -0.832   5.783  24.889  0.00  0.00    -0.166 F 
ATOM      2  C   UNL     1      -1.335   5.174  25.129  0.00  0.00    +0.419 C 
ATOM      3  F   UNL     1      -1.937   5.487  24.660  0.00  0.00    -0.166 F 
ATOM      4  F   UNL     1      -0.733   4.862  25.599  0.00  0.00    -0.166 F 
ENDBRANCH   5   2
ENDBRANCH  10   9
ENDBRANCH  13  11
ENDBRANCH  14  13
TORSDOF 7
ENDMDL
MODEL 7
REMARK VINA RESULT:      -9.3      3.094      7.359
REMARK  Name = 
REMARK  7 active torsions:
REMARK  status: ('A' for Active; 'I' for Inactive)
REMARK    1  A    between atoms: C_2  and  C_5
REMARK    2  A    between atoms: C_9  and  N_10
REMARK    3  A    between atoms: C_11  and  O_13
REMARK    4  A    between atoms: O_13  and  C_14
REMARK    5  A    between atoms: C_18  and  N_22
REMARK    6  A    between atoms: N_25  and  C_26
REMARK    7  A    between atoms: C_28  and  C_32
REMARK                            x       y       z     vdW  Elec       q    Type
REMARK                         _______ _______ _______ _____ _____    ______ ____
ROOT
ATOM     14  C   UNL     1      -0.795   0.181  24.593  0.00  0.00    +0.229 C 
ATOM     15  C   UNL     1      -0.593  -0.619  24.609  0.00  0.00    +0.188 C 
ATOM     16  O   UNL     1       0.066  -0.724  24.125  0.00  0.00    -0.348 OA
ATOM     17  C   UNL     1       0.271   0.009  23.809  0.00  0.00    +0.168 C 
ATOM     18  C   UNL     1       0.805   0.398  23.315  0.00  0.00    +0.156 C 
ATOM     19  C   UNL     1       0.603   1.198  23.299  0.00  0.00    +0.166 C 
ATOM     20  O   UNL     1      -0.056   1.303  23.783  0.00  0.00    -0.348 OA
ATOM     21  C   UNL     1      -0.261   0.569  24.099  0.00  0.00    +0.186 C 
ENDROOT
BRANCH  18  22
ATOM     22  N   UNL     1       1.432   0.048  22.908  0.00  0.00    -0.184 NA
ATOM     23  C   UNL     1       2.208   0.280  23.067  0.00  0.00    +0.344 C 
ATOM     24  O   UNL     1       2.357   0.862  23.633  0.00  0.00    -0.249 OA
ATOM     25  N   UNL     1       2.835  -0.069  22.660  0.00  0.00    -0.161 NA
BRANCH  25  26
ATOM     26  C   UNL     1       3.610   0.162  22.819  0.00  0.00    +0.076 A 
ATOM     27  C   UNL     1       4.082  -0.291  23.321  0.00  0.00    +0.027 A 
ATOM     28  C   UNL     1       4.857  -0.060  23.480  0.00  0.00    +0.070 A 
ATOM     29  C   UNL     1       5.162   0.626  23.136  0.00  0.00    +0.010 A 
ATOM     30  C   UNL     1       4.690   1.080  22.634  0.00  0.00    +0.002 A 
ATOM     31  C   UNL     1       3.914   0.848  22.476  0.00  0.00    +0.017 A 
BRANCH  28  32
ATOM     32  C   UNL     1       5.329  -0.513  23.982  0.00  0.00    +0.100 C 
ATOM     33  N   UNL     1       5.801  -0.967  24.484  0.00  0.00    -0.191 NA
ENDBRANCH  28  32
ENDBRANCH  25  26
ENDBRANCH  18  22
BRANCH  14  13
ATOM     13  O   UNL     1      -1.422   0.530  25.000  0.00  0.00    -0.432 OA
BRANCH  13  11
ATOM     10  N   UNL     1      -2.717   0.307  24.438  0.00  0.00    -0.142 NA
ATOM     11  C   UNL     1      -2.158   0.157  25.025  0.00  0.00    +0.425 C 
ATOM     12  O   UNL     1      -2.333  -0.367  25.639  0.00  0.00    -0.224 OA
BRANCH  10   9
ATOM      5  C   UNL     1      -4.279  -1.195  24.171  0.00  0.00    +0.073 A 
ATOM      6  C   UNL     1      -4.923  -0.813  24.515  0.00  0.00    +0.004 A 
ATOM      7  C   UNL     1      -4.833  -0.057  24.834  0.00  0.00    +0.001 A 
ATOM      8  C   UNL     1      -4.097   0.316  24.808  0.00  0.00    +0.017 A 
ATOM      9  C   UNL     1      -3.453  -0.067  24.464  0.00  0.00    +0.077 A 
ATOM     34  C   UNL     1      -3.543  -0.822  24.146  0.00  0.00    +0.021 A 
BRANCH   5   2
ATOM      1  F   UNL     1      -4.460  -2.706  23.535  0.00  0.00    -0.166 F 
ATOM      2  C   UNL     1      -4.369  -1.950  23.853  0.00  0.00    +0.419 C 
ATOM      3  F   UNL     1      -4.375  -2.270  24.613  0.00  0.00    -0.166 F 
ATOM      4  F   UNL     1      -4.364  -1.632  23.092  0.00  0.00    -0.166 F 
ENDBRANCH   5   2
ENDBRANCH  10   9
ENDBRANCH  13  11
ENDBRANCH  14  13
TORSDOF 7
ENDMDL
