REMARK  Name = 
REMARK  6 active torsions:
REMARK  status: ('A' for Active; 'I' for Inactive)
REMARK    1  A    between atoms: O_2  and  C_3
REMARK    2  A    between atoms: C_6  and  C_9
REMARK    3  A    between atoms: C_12  and  C_14
REMARK    4  A    between atoms: N_19  and  C_20
REMARK    5  A    between atoms: C_20  and  C_21
REMARK    6  A    between atoms: C_24  and  N_25
REMARK                            x       y       z     vdW  Elec       q    Type
REMARK                         _______ _______ _______ _____ _____    ______ ____
ROOT
ATOM     14  C   UNL     1       2.070   1.110   0.000  0.00  0.00    +0.144 C 
ATOM     15  C   UNL     1       1.356   0.698   0.000  0.00  0.00    +0.073 C 
ATOM     16  C   UNL     1       0.641   1.110   0.000  0.00  0.00    +0.077 A 
ATOM     17  C   UNL     1       0.641   1.935   0.000  0.00  0.00    +0.090 A 
ATOM     18  C   UNL     1       1.356   2.348   0.000  0.00  0.00    +0.121 C 
ATOM     19  N   UNL     1       2.070   1.935   0.000  0.00  0.00    -0.257 NA
ATOM     31  N   UNL     1      -0.143   2.190   0.000  0.00  0.00    -0.226 NA
ATOM     32  C   UNL     1      -0.628   1.523   0.000  0.00  0.00    +0.198 A 
ATOM     33  N   UNL     1      -0.143   0.856   0.000  0.00  0.00    -0.227 NA
ENDROOT
BRANCH  14  12
ATOM      9  C   UNL     1       3.678  -0.294   0.000  0.00  0.00    +0.203 A 
ATOM     10  N   UNL     1       4.090   0.420   0.000  0.00  0.00    -0.056 NA
ATOM     11  O   UNL     1       3.538   1.034   0.000  0.00  0.00    -0.336 OA
ATOM     12  C   UNL     1       2.784   0.698   0.000  0.00  0.00    +0.251 A 
ATOM     13  N   UNL     1       2.871  -0.122   0.000  0.00  0.00    -0.190 NA
BRANCH   9   6
ATOM      3  C   UNL     1       4.684  -2.555   0.000  0.00  0.00    +0.139 A 
ATOM      4  C   UNL     1       3.864  -2.469   0.000  0.00  0.00    +0.037 A 
ATOM      5  C   UNL     1       3.528  -1.715   0.000  0.00  0.00    +0.006 A 
ATOM      6  C   UNL     1       4.013  -1.048   0.000  0.00  0.00    +0.039 A 
ATOM      7  C   UNL     1       4.834  -1.134   0.000  0.00  0.00    +0.006 A 
ATOM      8  C   UNL     1       5.169  -1.888   0.000  0.00  0.00    +0.037 A 
BRANCH   3   2
ATOM      1  C   UNL     1       5.840  -3.395   0.000  0.00  0.00    +0.252 C 
ATOM      2  O   UNL     1       5.020  -3.309   0.000  0.00  0.00    -0.471 OA
ENDBRANCH   3   2
ENDBRANCH   9   6
ENDBRANCH  14  12
BRANCH  19  20
ATOM     20  C   UNL     1       2.784   2.348   0.000  0.00  0.00    +0.100 C 
BRANCH  20  21
ATOM     21  C   UNL     1       2.784   3.173   0.000  0.00  0.00    -0.006 A 
ATOM     22  C   UNL     1       2.070   3.585   0.000  0.00  0.00    -0.002 A 
ATOM     23  C   UNL     1       2.070   4.410   0.000  0.00  0.00    +0.016 A 
ATOM     24  C   UNL     1       2.784   4.823   0.000  0.00  0.00    +0.073 A 
ATOM     29  C   UNL     1       3.499   4.410   0.000  0.00  0.00    +0.016 A 
ATOM     30  C   UNL     1       3.499   3.585   0.000  0.00  0.00    -0.002 A 
BRANCH  24  25
ATOM     25  N   UNL     1       2.784   5.648   0.000  0.00  0.00    -0.179 NA
ATOM     26  C   UNL     1       3.499   6.060   0.000  0.00  0.00    +0.246 C 
ATOM     27  C   UNL     1       3.499   6.885   0.000  0.00  0.00    +0.097 C 
ATOM     28  O   UNL     1       4.213   5.648   0.000  0.00  0.00    -0.273 OA
ENDBRANCH  24  25
ENDBRANCH  20  21
ENDBRANCH  19  20
TORSDOF 6
