REMARK  Name = 
REMARK  4 active torsions:
REMARK  status: ('A' for Active; 'I' for Inactive)
REMARK    1  A    between atoms: C_2  and  O_5
REMARK    2  A    between atoms: O_5  and  C_6
REMARK    3  A    between atoms: C_9  and  C_12
REMARK    4  A    between atoms: C_22  and  C_24
REMARK                            x       y       z     vdW  Elec       q    Type
REMARK                         _______ _______ _______ _____ _____    ______ ____
ROOT
ATOM     12  C   UNL     1      -1.296  -1.150   0.000  0.00  0.00    +0.056 A 
ATOM     13  C   UNL     1      -1.167  -0.335   0.000  0.00  0.00    +0.006 A 
ATOM     14  C   UNL     1      -0.397  -0.039   0.000  0.00  0.00    +0.013 A 
ATOM     15  C   UNL     1       0.244  -0.558   0.000  0.00  0.00    +0.041 A 
ATOM     16  C   UNL     1       1.163  -0.557   0.000  0.00  0.00    +0.058 C 
ATOM     17  C   UNL     1       1.713  -0.121   0.000  0.00  0.00    +0.011 C 
ATOM     18  C   UNL     1       1.582  -0.925   0.000  0.00  0.00    +0.043 C 
ATOM     19  C   UNL     1       1.629  -1.912   0.000  0.00  0.00    +0.096 C 
ATOM     20  N   UNL     1       0.813  -2.091   0.000  0.00  0.00    -0.275 N 
ATOM     21  C   UNL     1       1.225  -1.510   0.000  0.00  0.00    +0.100 C 
ATOM     22  C   UNL     1       0.184  -2.694   0.000  0.00  0.00    +0.255 C 
ATOM     23  O   UNL     1       0.442  -3.537   0.000  0.00  0.00    -0.269 OA
ATOM     29  C   UNL     1       0.622  -0.936   0.000  0.00  0.00    +0.110 C 
ATOM     30  N   UNL     1       0.115  -1.373   0.000  0.00  0.00    -0.299 N 
ATOM     31  C   UNL     1      -0.655  -1.669   0.000  0.00  0.00    +0.261 A 
ATOM     32  O   UNL     1      -0.548  -2.706   0.000  0.00  0.00    -0.267 OA
ENDROOT
BRANCH  12   9
ATOM      6  C   UNL     1      -3.606  -2.037   0.000  0.00  0.00    +0.147 A 
ATOM      7  C   UNL     1      -3.478  -1.222   0.000  0.00  0.00    +0.037 A 
ATOM      8  C   UNL     1      -2.707  -0.926   0.000  0.00  0.00    +0.003 A 
ATOM      9  C   UNL     1      -2.066  -1.445   0.000  0.00  0.00    +0.005 A 
ATOM     10  C   UNL     1      -2.195  -2.260   0.000  0.00  0.00    +0.003 A 
ATOM     11  C   UNL     1      -2.965  -2.556   0.000  0.00  0.00    +0.037 A 
BRANCH   6   5
ATOM      5  O   UNL     1      -4.424  -2.301   0.000  0.00  0.00    -0.404 OA
BRANCH   5   2
ATOM      1  F   UNL     1      -5.841  -1.448   0.000  0.00  0.00    -0.133 F 
ATOM      2  C   UNL     1      -5.135  -1.873   0.000  0.00  0.00    +0.575 C 
ATOM      3  F   UNL     1      -5.560  -2.580   0.000  0.00  0.00    -0.133 F 
ATOM      4  F   UNL     1      -4.709  -1.167   0.000  0.00  0.00    -0.133 F 
ENDBRANCH   5   2
ENDBRANCH   6   5
ENDBRANCH  12   9
BRANCH  22  24
ATOM     24  C   UNL     1      -0.614  -2.179   0.000  0.00  0.00    +0.083 A 
ATOM     25  C   UNL     1      -0.750  -1.366   0.000  0.00  0.00    +0.012 A 
ATOM     26  C   UNL     1      -1.566  -1.244   0.000  0.00  0.00    +0.008 A 
ATOM     27  C   UNL     1      -1.934  -1.982   0.000  0.00  0.00    +0.036 A 
ATOM     28  S   UNL     1      -1.345  -2.561   0.000  0.00  0.00    -0.082 S 
ENDBRANCH  22  24
TORSDOF 4
