MODEL 1
REMARK VINA RESULT:     -13.1      0.000      0.000
REMARK  Name = 
REMARK  7 active torsions:
REMARK  status: ('A' for Active; 'I' for Inactive)
REMARK    1  A    between atoms: O_2  and  C_3
REMARK    2  A    between atoms: C_6  and  C_7
REMARK    3  A    between atoms: C_7  and  N_8
REMARK    4  A    between atoms: C_9  and  C_11
REMARK    5  A    between atoms: C_11  and  C_13
REMARK    6  A    between atoms: C_20  and  N_21
REMARK    7  A    between atoms: C_22  and  C_24
REMARK                            x       y       z     vdW  Elec       q    Type
REMARK                         _______ _______ _______ _____ _____    ______ ____
ROOT
ATOM     13  C   UNL     1      -4.265   3.023  24.416  0.00  0.00    +0.039 C 
ATOM     14  C   UNL     1      -4.877   3.104  24.964  0.00  0.00    +0.003 C 
ATOM     15  C   UNL     1      -5.241   2.434  25.277  0.00  0.00    +0.000 C 
ATOM     16  C   UNL     1      -4.994   1.683  25.043  0.00  0.00    +0.002 C 
ATOM     17  C   UNL     1      -5.605   1.764  25.590  0.00  0.00    +0.000 C 
ATOM     18  C   UNL     1      -5.358   1.012  25.356  0.00  0.00    +0.002 C 
ATOM     19  C   UNL     1      -5.111   0.261  25.122  0.00  0.00    +0.022 C 
ATOM     20  C   UNL     1      -4.498   0.180  24.573  0.00  0.00    +0.096 C 
ATOM     30  C   UNL     1      -4.135   0.851  24.260  0.00  0.00    +0.022 C 
ATOM     31  C   UNL     1      -3.523   0.770  23.712  0.00  0.00    +0.002 C 
ATOM     32  C   UNL     1      -4.382   1.602  24.494  0.00  0.00    +0.032 C 
ATOM     33  C   UNL     1      -4.018   2.273  24.181  0.00  0.00    +0.152 C 
ATOM     34  O   UNL     1      -3.407   2.192  23.633  0.00  0.00    -0.223 OA
ENDROOT
BRANCH  20  21
ATOM     21  N   UNL     1      -4.252  -0.571  24.339  0.00  0.00    -0.203 NA
ATOM     22  C   UNL     1      -3.994  -1.116  24.902  0.00  0.00    +0.265 C 
ATOM     23  O   UNL     1      -3.983  -0.908  25.702  0.00  0.00    -0.268 OA
BRANCH  22  24
ATOM     24  C   UNL     1      -3.747  -1.867  24.668  0.00  0.00    +0.055 A 
ATOM     25  C   UNL     1      -4.175  -2.284  24.100  0.00  0.00    +0.005 A 
ATOM     26  C   UNL     1      -3.928  -3.036  23.865  0.00  0.00    +0.000 A 
ATOM     27  C   UNL     1      -3.252  -3.370  24.201  0.00  0.00    +0.000 A 
ATOM     28  C   UNL     1      -2.824  -2.953  24.770  0.00  0.00    +0.000 A 
ATOM     29  C   UNL     1      -3.072  -2.202  25.003  0.00  0.00    +0.005 A 
ENDBRANCH  22  24
ENDBRANCH  20  21
BRANCH  13  11
ATOM     11  C   UNL     1      -3.901   3.695  24.103  0.00  0.00    +0.081 C 
ATOM     12  C   UNL     1      -4.098   3.954  23.345  0.00  0.00    +0.010 C 
BRANCH  11   9
ATOM      8  N   UNL     1      -2.577   3.807  24.628  0.00  0.00    -0.201 NA
ATOM      9  C   UNL     1      -3.341   4.107  24.546  0.00  0.00    +0.241 C 
ATOM     10  O   UNL     1      -3.545   4.820  24.910  0.00  0.00    -0.273 OA
BRANCH   8   7
ATOM      7  C   UNL     1      -2.017   4.219  25.071  0.00  0.00    +0.141 C 
BRANCH   7   6
ATOM      3  C   UNL     1      -0.023   3.046  25.949  0.00  0.00    +0.139 A 
ATOM      4  C   UNL     1       0.015   3.437  25.224  0.00  0.00    +0.037 A 
ATOM      5  C   UNL     1      -0.650   3.829  24.932  0.00  0.00    +0.001 A 
ATOM      6  C   UNL     1      -1.352   3.828  25.364  0.00  0.00    -0.000 A 
ATOM     35  C   UNL     1      -1.390   3.436  26.089  0.00  0.00    +0.001 A 
ATOM     36  C   UNL     1      -0.726   3.045  26.382  0.00  0.00    +0.037 A 
BRANCH   3   2
ATOM      1  C   UNL     1       0.640   2.359  27.012  0.00  0.00    +0.252 C 
ATOM      2  O   UNL     1       0.641   2.654  26.243  0.00  0.00    -0.471 OA
ENDBRANCH   3   2
ENDBRANCH   7   6
ENDBRANCH   8   7
ENDBRANCH  11   9
ENDBRANCH  13  11
TORSDOF 7
ENDMDL
MODEL 2
REMARK VINA RESULT:     -12.1      1.873      3.745
REMARK  Name = 
REMARK  7 active torsions:
REMARK  status: ('A' for Active; 'I' for Inactive)
REMARK    1  A    between atoms: O_2  and  C_3
REMARK    2  A    between atoms: C_6  and  C_7
REMARK    3  A    between atoms: C_7  and  N_8
REMARK    4  A    between atoms: C_9  and  C_11
REMARK    5  A    between atoms: C_11  and  C_13
REMARK    6  A    between atoms: C_20  and  N_21
REMARK    7  A    between atoms: C_22  and  C_24
REMARK                            x       y       z     vdW  Elec       q    Type
REMARK                         _______ _______ _______ _____ _____    ______ ____
ROOT
ATOM     13  C   UNL     1      -0.179   2.049  25.270  0.00  0.00    +0.039 C 
ATOM     14  C   UNL     1       0.318   2.057  24.610  0.00  0.00    +0.003 C 
ATOM     15  C   UNL     1       0.334   1.411  24.098  0.00  0.00    +0.000 C 
ATOM     16  C   UNL     1      -0.146   0.757  24.244  0.00  0.00    +0.002 C 
ATOM     17  C   UNL     1       0.350   0.765  23.586  0.00  0.00    +0.000 C 
ATOM     18  C   UNL     1      -0.130   0.110  23.732  0.00  0.00    +0.002 C 
ATOM     19  C   UNL     1      -0.609  -0.544  23.878  0.00  0.00    +0.022 C 
ATOM     20  C   UNL     1      -1.106  -0.553  24.538  0.00  0.00    +0.096 C 
ATOM     30  C   UNL     1      -1.123   0.093  25.050  0.00  0.00    +0.022 C 
ATOM     31  C   UNL     1      -1.619   0.085  25.709  0.00  0.00    +0.002 C 
ATOM     32  C   UNL     1      -0.643   0.749  24.904  0.00  0.00    +0.032 C 
ATOM     33  C   UNL     1      -0.659   1.395  25.416  0.00  0.00    +0.152 C 
ATOM     34  O   UNL     1      -1.155   1.386  26.075  0.00  0.00    -0.223 OA
ENDROOT
BRANCH  20  21
ATOM     21  N   UNL     1      -1.586  -1.208  24.684  0.00  0.00    -0.203 NA
ATOM     22  C   UNL     1      -2.220  -1.375  24.184  0.00  0.00    +0.265 C 
ATOM     23  O   UNL     1      -2.375  -0.886  23.536  0.00  0.00    -0.268 OA
BRANCH  22  24
ATOM     24  C   UNL     1      -2.700  -2.030  24.330  0.00  0.00    +0.055 A 
ATOM     25  C   UNL     1      -2.365  -2.738  24.587  0.00  0.00    +0.005 A 
ATOM     26  C   UNL     1      -2.845  -3.393  24.733  0.00  0.00    +0.000 A 
ATOM     27  C   UNL     1      -3.661  -3.340  24.621  0.00  0.00    +0.000 A 
ATOM     28  C   UNL     1      -3.996  -2.631  24.363  0.00  0.00    +0.000 A 
ATOM     29  C   UNL     1      -3.516  -1.977  24.218  0.00  0.00    +0.005 A 
ENDBRANCH  22  24
ENDBRANCH  20  21
BRANCH  13  11
ATOM     11  C   UNL     1      -0.195   2.696  25.782  0.00  0.00    +0.081 C 
ATOM     12  C   UNL     1       0.226   2.670  26.491  0.00  0.00    +0.010 C 
BRANCH  11   9
ATOM      8  N   UNL     1      -1.443   3.391  25.730  0.00  0.00    -0.201 NA
ATOM      9  C   UNL     1      -0.631   3.368  25.586  0.00  0.00    +0.241 C 
ATOM     10  O   UNL     1      -0.254   4.019  25.244  0.00  0.00    -0.273 OA
BRANCH   8   7
ATOM      7  C   UNL     1      -1.878   4.063  25.533  0.00  0.00    +0.141 C 
BRANCH   7   6
ATOM      3  C   UNL     1      -4.348   3.951  25.419  0.00  0.00    +0.139 A 
ATOM      4  C   UNL     1      -3.900   3.888  24.729  0.00  0.00    +0.037 A 
ATOM      5  C   UNL     1      -3.077   3.926  24.768  0.00  0.00    +0.001 A 
ATOM      6  C   UNL     1      -2.701   4.025  25.495  0.00  0.00    -0.000 A 
ATOM     35  C   UNL     1      -3.149   4.088  26.185  0.00  0.00    +0.001 A 
ATOM     36  C   UNL     1      -3.972   4.050  26.148  0.00  0.00    +0.037 A 
BRANCH   3   2
ATOM      1  C   UNL     1      -5.563   3.219  25.593  0.00  0.00    +0.252 C 
ATOM      2  O   UNL     1      -5.171   3.913  25.382  0.00  0.00    -0.471 OA
ENDBRANCH   3   2
ENDBRANCH   7   6
ENDBRANCH   8   7
ENDBRANCH  11   9
ENDBRANCH  13  11
TORSDOF 7
ENDMDL
MODEL 3
REMARK VINA RESULT:     -11.9      3.526      5.186
REMARK  Name = 
REMARK  7 active torsions:
REMARK  status: ('A' for Active; 'I' for Inactive)
REMARK    1  A    between atoms: O_2  and  C_3
REMARK    2  A    between atoms: C_6  and  C_7
REMARK    3  A    between atoms: C_7  and  N_8
REMARK    4  A    between atoms: C_9  and  C_11
REMARK    5  A    between atoms: C_11  and  C_13
REMARK    6  A    between atoms: C_20  and  N_21
REMARK    7  A    between atoms: C_22  and  C_24
REMARK                            x       y       z     vdW  Elec       q    Type
REMARK                         _______ _______ _______ _____ _____    ______ ____
ROOT
ATOM     13  C   UNL     1      -0.112   0.651  23.996  0.00  0.00    +0.039 C 
ATOM     14  C   UNL     1       0.294   1.367  24.064  0.00  0.00    +0.003 C 
ATOM     15  C   UNL     1      -0.102   2.041  24.327  0.00  0.00    +0.000 C 
ATOM     16  C   UNL     1      -0.902   2.001  24.522  0.00  0.00    +0.002 C 
ATOM     17  C   UNL     1      -0.497   2.715  24.590  0.00  0.00    +0.000 C 
ATOM     18  C   UNL     1      -1.298   2.675  24.785  0.00  0.00    +0.002 C 
ATOM     19  C   UNL     1      -2.098   2.635  24.979  0.00  0.00    +0.022 C 
ATOM     20  C   UNL     1      -2.504   1.918  24.911  0.00  0.00    +0.096 C 
ATOM     30  C   UNL     1      -2.108   1.244  24.649  0.00  0.00    +0.022 C 
ATOM     31  C   UNL     1      -2.513   0.529  24.580  0.00  0.00    +0.002 C 
ATOM     32  C   UNL     1      -1.307   1.284  24.454  0.00  0.00    +0.032 C 
ATOM     33  C   UNL     1      -0.912   0.610  24.191  0.00  0.00    +0.152 C 
ATOM     34  O   UNL     1      -1.317  -0.105  24.123  0.00  0.00    -0.223 OA
ENDROOT
BRANCH  20  21
ATOM     21  N   UNL     1      -3.304   1.878  25.106  0.00  0.00    -0.203 NA
ATOM     22  C   UNL     1      -3.815   2.486  24.883  0.00  0.00    +0.265 C 
ATOM     23  O   UNL     1      -3.524   3.136  24.465  0.00  0.00    -0.268 OA
BRANCH  22  24
ATOM     24  C   UNL     1      -4.615   2.446  25.078  0.00  0.00    +0.055 A 
ATOM     25  C   UNL     1      -5.117   1.941  24.663  0.00  0.00    +0.005 A 
ATOM     26  C   UNL     1      -5.918   1.901  24.858  0.00  0.00    +0.000 A 
ATOM     27  C   UNL     1      -6.217   2.367  25.469  0.00  0.00    +0.000 A 
ATOM     28  C   UNL     1      -5.715   2.873  25.886  0.00  0.00    +0.000 A 
ATOM     29  C   UNL     1      -4.914   2.912  25.690  0.00  0.00    +0.005 A 
ENDBRANCH  22  24
ENDBRANCH  20  21
BRANCH  13  11
ATOM     11  C   UNL     1       0.284  -0.023  23.733  0.00  0.00    +0.081 C 
ATOM     12  C   UNL     1       0.150  -0.750  24.101  0.00  0.00    +0.010 C 
BRANCH  11   9
ATOM      8  N   UNL     1       1.626   0.035  23.246  0.00  0.00    -0.201 NA
ATOM      9  C   UNL     1       0.815   0.028  23.103  0.00  0.00    +0.241 C 
ATOM     10  O   UNL     1       0.532   0.071  22.328  0.00  0.00    -0.273 OA
BRANCH   8   7
ATOM      7  C   UNL     1       2.156   0.086  22.617  0.00  0.00    +0.141 C 
BRANCH   7   6
ATOM      3  C   UNL     1       4.584   0.292  23.051  0.00  0.00    +0.139 A 
ATOM      4  C   UNL     1       4.197  -0.420  23.203  0.00  0.00    +0.037 A 
ATOM      5  C   UNL     1       3.387  -0.489  23.058  0.00  0.00    +0.001 A 
ATOM      6  C   UNL     1       2.965   0.154  22.762  0.00  0.00    -0.000 A 
ATOM     35  C   UNL     1       3.352   0.867  22.610  0.00  0.00    +0.001 A 
ATOM     36  C   UNL     1       4.161   0.936  22.754  0.00  0.00    +0.037 A 
BRANCH   3   2
ATOM      1  C   UNL     1       5.698   0.170  23.937  0.00  0.00    +0.252 C 
ATOM      2  O   UNL     1       5.393   0.362  23.196  0.00  0.00    -0.471 OA
ENDBRANCH   3   2
ENDBRANCH   7   6
ENDBRANCH   8   7
ENDBRANCH  11   9
ENDBRANCH  13  11
TORSDOF 7
ENDMDL
MODEL 4
REMARK VINA RESULT:     -10.9      2.796      4.802
REMARK  Name = 
REMARK  7 active torsions:
REMARK  status: ('A' for Active; 'I' for Inactive)
REMARK    1  A    between atoms: O_2  and  C_3
REMARK    2  A    between atoms: C_6  and  C_7
REMARK    3  A    between atoms: C_7  and  N_8
REMARK    4  A    between atoms: C_9  and  C_11
REMARK    5  A    between atoms: C_11  and  C_13
REMARK    6  A    between atoms: C_20  and  N_21
REMARK    7  A    between atoms: C_22  and  C_24
REMARK                            x       y       z     vdW  Elec       q    Type
REMARK                         _______ _______ _______ _____ _____    ______ ____
ROOT
ATOM     13  C   UNL     1      -1.666  -1.106  24.644  0.00  0.00    +0.039 C 
ATOM     14  C   UNL     1      -2.186  -1.710  24.428  0.00  0.00    +0.003 C 
ATOM     15  C   UNL     1      -3.000  -1.578  24.443  0.00  0.00    +0.000 C 
ATOM     16  C   UNL     1      -3.295  -0.844  24.672  0.00  0.00    +0.002 C 
ATOM     17  C   UNL     1      -3.814  -1.447  24.457  0.00  0.00    +0.000 C 
ATOM     18  C   UNL     1      -4.109  -0.711  24.687  0.00  0.00    +0.002 C 
ATOM     19  C   UNL     1      -4.404   0.023  24.917  0.00  0.00    +0.022 C 
ATOM     20  C   UNL     1      -3.884   0.628  25.133  0.00  0.00    +0.096 C 
ATOM     30  C   UNL     1      -3.070   0.496  25.118  0.00  0.00    +0.022 C 
ATOM     31  C   UNL     1      -2.551   1.100  25.333  0.00  0.00    +0.002 C 
ATOM     32  C   UNL     1      -2.775  -0.239  24.888  0.00  0.00    +0.032 C 
ATOM     33  C   UNL     1      -1.961  -0.371  24.873  0.00  0.00    +0.152 C 
ATOM     34  O   UNL     1      -1.442   0.233  25.089  0.00  0.00    -0.223 OA
ENDROOT
BRANCH  20  21
ATOM     21  N   UNL     1      -4.180   1.363  25.363  0.00  0.00    -0.203 NA
ATOM     22  C   UNL     1      -4.786   1.717  24.932  0.00  0.00    +0.265 C 
ATOM     23  O   UNL     1      -5.099   1.336  24.269  0.00  0.00    -0.268 OA
BRANCH  22  24
ATOM     24  C   UNL     1      -5.082   2.453  25.161  0.00  0.00    +0.055 A 
ATOM     25  C   UNL     1      -5.784   2.500  25.590  0.00  0.00    +0.005 A 
ATOM     26  C   UNL     1      -6.080   3.235  25.820  0.00  0.00    +0.000 A 
ATOM     27  C   UNL     1      -5.672   3.924  25.621  0.00  0.00    +0.000 A 
ATOM     28  C   UNL     1      -4.968   3.877  25.191  0.00  0.00    +0.000 A 
ATOM     29  C   UNL     1      -4.674   3.141  24.962  0.00  0.00    +0.005 A 
ENDBRANCH  22  24
ENDBRANCH  20  21
BRANCH  13  11
ATOM     11  C   UNL     1      -0.852  -1.238  24.629  0.00  0.00    +0.081 C 
ATOM     12  C   UNL     1      -0.453  -1.427  25.325  0.00  0.00    +0.010 C 
BRANCH  11   9
ATOM      8  N   UNL     1       0.145  -0.605  23.824  0.00  0.00    -0.201 NA
ATOM      9  C   UNL     1      -0.436  -1.182  23.918  0.00  0.00    +0.241 C 
ATOM     10  O   UNL     1      -0.603  -1.704  23.300  0.00  0.00    -0.273 OA
BRANCH   8   7
ATOM      7  C   UNL     1       0.559  -0.548  23.114  0.00  0.00    +0.141 C 
BRANCH   7   6
ATOM      3  C   UNL     1       2.630   0.802  22.992  0.00  0.00    +0.139 A 
ATOM      4  C   UNL     1       2.614   0.043  22.669  0.00  0.00    +0.037 A 
ATOM      5  C   UNL     1       1.923  -0.407  22.710  0.00  0.00    +0.001 A 
ATOM      6  C   UNL     1       1.250  -0.099  23.073  0.00  0.00    -0.000 A 
ATOM     35  C   UNL     1       1.267   0.660  23.396  0.00  0.00    +0.001 A 
ATOM     36  C   UNL     1       1.957   1.111  23.356  0.00  0.00    +0.037 A 
BRANCH   3   2
ATOM      1  C   UNL     1       4.024   0.908  22.698  0.00  0.00    +0.252 C 
ATOM      2  O   UNL     1       3.320   1.252  22.952  0.00  0.00    -0.471 OA
ENDBRANCH   3   2
ENDBRANCH   7   6
ENDBRANCH   8   7
ENDBRANCH  11   9
ENDBRANCH  13  11
TORSDOF 7
ENDMDL
MODEL 5
REMARK VINA RESULT:     -10.9      2.292      4.902
REMARK  Name = 
REMARK  7 active torsions:
REMARK  status: ('A' for Active; 'I' for Inactive)
REMARK    1  A    between atoms: O_2  and  C_3
REMARK    2  A    between atoms: C_6  and  C_7
REMARK    3  A    between atoms: C_7  and  N_8
REMARK    4  A    between atoms: C_9  and  C_11
REMARK    5  A    between atoms: C_11  and  C_13
REMARK    6  A    between atoms: C_20  and  N_21
REMARK    7  A    between atoms: C_22  and  C_24
REMARK                            x       y       z     vdW  Elec       q    Type
REMARK                         _______ _______ _______ _____ _____    ______ ____
ROOT
ATOM     13  C   UNL     1      -2.848   2.595  24.654  0.00  0.00    +0.039 C 
ATOM     14  C   UNL     1      -2.648   2.933  25.381  0.00  0.00    +0.003 C 
ATOM     15  C   UNL     1      -1.858   2.971  25.614  0.00  0.00    +0.000 C 
ATOM     16  C   UNL     1      -1.268   2.672  25.122  0.00  0.00    +0.002 C 
ATOM     17  C   UNL     1      -1.069   3.009  25.847  0.00  0.00    +0.000 C 
ATOM     18  C   UNL     1      -0.478   2.710  25.355  0.00  0.00    +0.002 C 
ATOM     19  C   UNL     1       0.113   2.412  24.863  0.00  0.00    +0.022 C 
ATOM     20  C   UNL     1      -0.087   2.074  24.136  0.00  0.00    +0.096 C 
ATOM     30  C   UNL     1      -0.877   2.036  23.903  0.00  0.00    +0.022 C 
ATOM     31  C   UNL     1      -1.077   1.699  23.177  0.00  0.00    +0.002 C 
ATOM     32  C   UNL     1      -1.468   2.335  24.395  0.00  0.00    +0.032 C 
ATOM     33  C   UNL     1      -2.258   2.296  24.162  0.00  0.00    +0.152 C 
ATOM     34  O   UNL     1      -2.458   1.959  23.436  0.00  0.00    -0.223 OA
ENDROOT
BRANCH  20  21
ATOM     21  N   UNL     1       0.504   1.775  23.644  0.00  0.00    -0.203 NA
ATOM     22  C   UNL     1       0.939   1.114  23.876  0.00  0.00    +0.265 C 
ATOM     23  O   UNL     1       0.783   0.751  24.601  0.00  0.00    -0.268 OA
BRANCH  22  24
ATOM     24  C   UNL     1       1.530   0.816  23.383  0.00  0.00    +0.055 A 
ATOM     25  C   UNL     1       2.276   1.167  23.373  0.00  0.00    +0.005 A 
ATOM     26  C   UNL     1       2.867   0.868  22.881  0.00  0.00    +0.000 A 
ATOM     27  C   UNL     1       2.711   0.217  22.399  0.00  0.00    +0.000 A 
ATOM     28  C   UNL     1       1.964  -0.135  22.409  0.00  0.00    +0.000 A 
ATOM     29  C   UNL     1       1.374   0.164  22.901  0.00  0.00    +0.005 A 
ENDBRANCH  22  24
ENDBRANCH  20  21
BRANCH  13  11
ATOM     11  C   UNL     1      -3.639   2.557  24.421  0.00  0.00    +0.081 C 
ATOM     12  C   UNL     1      -3.933   3.097  23.870  0.00  0.00    +0.010 C 
BRANCH  11   9
ATOM      8  N   UNL     1      -4.029   1.188  24.540  0.00  0.00    -0.201 NA
ATOM      9  C   UNL     1      -4.137   1.980  24.739  0.00  0.00    +0.241 C 
ATOM     10  O   UNL     1      -4.743   2.198  25.256  0.00  0.00    -0.273 OA
BRANCH   8   7
ATOM      7  C   UNL     1      -4.526   0.612  24.857  0.00  0.00    +0.141 C 
BRANCH   7   6
ATOM      3  C   UNL     1      -3.899  -1.779  24.724  0.00  0.00    +0.139 A 
ATOM      4  C   UNL     1      -3.729  -1.345  25.405  0.00  0.00    +0.037 A 
ATOM      5  C   UNL     1      -3.938  -0.548  25.449  0.00  0.00    +0.001 A 
ATOM      6  C   UNL     1      -4.317  -0.185  24.814  0.00  0.00    -0.000 A 
ATOM     35  C   UNL     1      -4.487  -0.619  24.132  0.00  0.00    +0.001 A 
ATOM     36  C   UNL     1      -4.278  -1.415  24.087  0.00  0.00    +0.037 A 
BRANCH   3   2
ATOM      1  C   UNL     1      -2.901  -2.790  24.578  0.00  0.00    +0.252 C 
ATOM      2  O   UNL     1      -3.690  -2.575  24.679  0.00  0.00    -0.471 OA
ENDBRANCH   3   2
ENDBRANCH   7   6
ENDBRANCH   8   7
ENDBRANCH  11   9
ENDBRANCH  13  11
TORSDOF 7
ENDMDL
MODEL 6
REMARK VINA RESULT:     -10.6      1.461      5.015
REMARK  Name = 
REMARK  7 active torsions:
REMARK  status: ('A' for Active; 'I' for Inactive)
REMARK    1  A    between atoms: O_2  and  C_3
REMARK    2  A    between atoms: C_6  and  C_7
REMARK    3  A    between atoms: C_7  and  N_8
REMARK    4  A    between atoms: C_9  and  C_11
REMARK    5  A    between atoms: C_11  and  C_13
REMARK    6  A    between atoms: C_20  and  N_21
REMARK    7  A    between atoms: C_22  and  C_24
REMARK                            x       y       z     vdW  Elec       q    Type
REMARK                         _______ _______ _______ _____ _____    ______ ____
ROOT
ATOM     13  C   UNL     1      -4.688   0.800  24.882  0.00  0.00    +0.039 C 
ATOM     14  C   UNL     1      -5.333   1.073  25.320  0.00  0.00    +0.003 C 
ATOM     15  C   UNL     1      -5.367   1.862  25.556  0.00  0.00    +0.000 C 
ATOM     16  C   UNL     1      -4.756   2.379  25.355  0.00  0.00    +0.002 C 
ATOM     17  C   UNL     1      -5.400   2.651  25.792  0.00  0.00    +0.000 C 
ATOM     18  C   UNL     1      -4.790   3.169  25.591  0.00  0.00    +0.002 C 
ATOM     19  C   UNL     1      -4.180   3.686  25.391  0.00  0.00    +0.022 C 
ATOM     20  C   UNL     1      -3.534   3.413  24.954  0.00  0.00    +0.096 C 
ATOM     30  C   UNL     1      -3.501   2.624  24.718  0.00  0.00    +0.022 C 
ATOM     31  C   UNL     1      -2.856   2.351  24.281  0.00  0.00    +0.002 C 
ATOM     32  C   UNL     1      -4.111   2.106  24.918  0.00  0.00    +0.032 C 
ATOM     33  C   UNL     1      -4.078   1.317  24.682  0.00  0.00    +0.152 C 
ATOM     34  O   UNL     1      -3.433   1.044  24.245  0.00  0.00    -0.223 OA
ENDROOT
BRANCH  20  21
ATOM     21  N   UNL     1      -2.924   3.931  24.754  0.00  0.00    -0.203 NA
ATOM     22  C   UNL     1      -2.446   4.253  25.343  0.00  0.00    +0.265 C 
ATOM     23  O   UNL     1      -2.578   4.058  26.134  0.00  0.00    -0.268 OA
BRANCH  22  24
ATOM     24  C   UNL     1      -1.835   4.771  25.143  0.00  0.00    +0.055 A 
ATOM     25  C   UNL     1      -1.985   5.578  25.070  0.00  0.00    +0.005 A 
ATOM     26  C   UNL     1      -1.375   6.096  24.869  0.00  0.00    +0.000 A 
ATOM     27  C   UNL     1      -0.613   5.805  24.742  0.00  0.00    +0.000 A 
ATOM     28  C   UNL     1      -0.462   4.996  24.815  0.00  0.00    +0.000 A 
ATOM     29  C   UNL     1      -1.074   4.480  25.015  0.00  0.00    +0.005 A 
ENDBRANCH  22  24
ENDBRANCH  20  21
BRANCH  13  11
ATOM     11  C   UNL     1      -4.654   0.010  24.646  0.00  0.00    +0.081 C 
ATOM     12  C   UNL     1      -5.008  -0.224  23.938  0.00  0.00    +0.010 C 
BRANCH  11   9
ATOM      8  N   UNL     1      -3.580  -0.911  24.846  0.00  0.00    -0.201 NA
ATOM      9  C   UNL     1      -4.268  -0.547  25.117  0.00  0.00    +0.241 C 
ATOM     10  O   UNL     1      -4.572  -0.739  25.861  0.00  0.00    -0.273 OA
BRANCH   8   7
ATOM      7  C   UNL     1      -3.195  -1.467  25.317  0.00  0.00    +0.141 C 
BRANCH   7   6
ATOM      3  C   UNL     1      -0.751  -1.793  25.103  0.00  0.00    +0.139 A 
ATOM      4  C   UNL     1      -1.049  -1.260  25.658  0.00  0.00    +0.037 A 
ATOM      5  C   UNL     1      -1.864  -1.152  25.729  0.00  0.00    +0.001 A 
ATOM      6  C   UNL     1      -2.380  -1.576  25.246  0.00  0.00    -0.000 A 
ATOM     35  C   UNL     1      -2.082  -2.109  24.691  0.00  0.00    +0.001 A 
ATOM     36  C   UNL     1      -1.268  -2.218  24.619  0.00  0.00    +0.037 A 
BRANCH   3   2
ATOM      1  C   UNL     1       0.501  -1.424  24.522  0.00  0.00    +0.252 C 
ATOM      2  O   UNL     1       0.064  -1.903  25.031  0.00  0.00    -0.471 OA
ENDBRANCH   3   2
ENDBRANCH   7   6
ENDBRANCH   8   7
ENDBRANCH  11   9
ENDBRANCH  13  11
TORSDOF 7
ENDMDL
MODEL 7
REMARK VINA RESULT:     -10.3      1.882      5.437
REMARK  Name = 
REMARK  7 active torsions:
REMARK  status: ('A' for Active; 'I' for Inactive)
REMARK    1  A    between atoms: O_2  and  C_3
REMARK    2  A    between atoms: C_6  and  C_7
REMARK    3  A    between atoms: C_7  and  N_8
REMARK    4  A    between atoms: C_9  and  C_11
REMARK    5  A    between atoms: C_11  and  C_13
REMARK    6  A    between atoms: C_20  and  N_21
REMARK    7  A    between atoms: C_22  and  C_24
REMARK                            x       y       z     vdW  Elec       q    Type
REMARK                         _______ _______ _______ _____ _____    ______ ____
ROOT
ATOM     13  C   UNL     1      -0.414   1.327  24.343  0.00  0.00    +0.039 C 
ATOM     14  C   UNL     1       0.090   1.692  24.887  0.00  0.00    +0.003 C 
ATOM     15  C   UNL     1      -0.184   2.318  25.347  0.00  0.00    +0.000 C 
ATOM     16  C   UNL     1      -0.962   2.580  25.265  0.00  0.00    +0.002 C 
ATOM     17  C   UNL     1      -0.459   2.944  25.808  0.00  0.00    +0.000 C 
ATOM     18  C   UNL     1      -1.237   3.207  25.726  0.00  0.00    +0.002 C 
ATOM     19  C   UNL     1      -2.014   3.470  25.645  0.00  0.00    +0.022 C 
ATOM     20  C   UNL     1      -2.518   3.105  25.101  0.00  0.00    +0.096 C 
ATOM     30  C   UNL     1      -2.243   2.479  24.641  0.00  0.00    +0.022 C 
ATOM     31  C   UNL     1      -2.747   2.115  24.098  0.00  0.00    +0.002 C 
ATOM     32  C   UNL     1      -1.466   2.216  24.722  0.00  0.00    +0.032 C 
ATOM     33  C   UNL     1      -1.191   1.590  24.261  0.00  0.00    +0.152 C 
ATOM     34  O   UNL     1      -1.694   1.225  23.719  0.00  0.00    -0.223 OA
ENDROOT
BRANCH  20  21
ATOM     21  N   UNL     1      -3.296   3.368  25.020  0.00  0.00    -0.203 NA
ATOM     22  C   UNL     1      -3.776   3.450  25.685  0.00  0.00    +0.265 C 
ATOM     23  O   UNL     1      -3.478   3.268  26.434  0.00  0.00    -0.268 OA
BRANCH  22  24
ATOM     24  C   UNL     1      -4.554   3.713  25.603  0.00  0.00    +0.055 A 
ATOM     25  C   UNL     1      -4.707   4.507  25.445  0.00  0.00    +0.005 A 
ATOM     26  C   UNL     1      -5.485   4.770  25.364  0.00  0.00    +0.000 A 
ATOM     27  C   UNL     1      -6.110   4.238  25.441  0.00  0.00    +0.000 A 
ATOM     28  C   UNL     1      -5.957   3.442  25.600  0.00  0.00    +0.000 A 
ATOM     29  C   UNL     1      -5.179   3.180  25.681  0.00  0.00    +0.005 A 
ENDBRANCH  22  24
ENDBRANCH  20  21
BRANCH  13  11
ATOM     11  C   UNL     1      -0.139   0.700  23.882  0.00  0.00    +0.081 C 
ATOM     12  C   UNL     1       0.108   0.836  23.107  0.00  0.00    +0.010 C 
BRANCH  11   9
ATOM      8  N   UNL     1      -0.794  -0.522  24.228  0.00  0.00    -0.201 NA
ATOM      9  C   UNL     1      -0.110  -0.062  24.196  0.00  0.00    +0.241 C 
ATOM     10  O   UNL     1       0.605  -0.366  24.478  0.00  0.00    -0.273 OA
BRANCH   8   7
ATOM      7  C   UNL     1      -0.765  -1.284  24.541  0.00  0.00    +0.141 C 
BRANCH   7   6
ATOM      3  C   UNL     1      -2.835  -2.629  24.726  0.00  0.00    +0.139 A 
ATOM      4  C   UNL     1      -2.726  -1.970  25.211  0.00  0.00    +0.037 A 
ATOM      5  C   UNL     1      -2.036  -1.522  25.149  0.00  0.00    +0.001 A 
ATOM      6  C   UNL     1      -1.455  -1.732  24.603  0.00  0.00    -0.000 A 
ATOM     35  C   UNL     1      -1.563  -2.390  24.118  0.00  0.00    +0.001 A 
ATOM     36  C   UNL     1      -2.253  -2.839  24.179  0.00  0.00    +0.037 A 
BRANCH   3   2
ATOM      1  C   UNL     1      -4.143  -2.958  24.255  0.00  0.00    +0.252 C 
ATOM      2  O   UNL     1      -3.524  -3.077  24.786  0.00  0.00    -0.471 OA
ENDBRANCH   3   2
ENDBRANCH   7   6
ENDBRANCH   8   7
ENDBRANCH  11   9
ENDBRANCH  13  11
TORSDOF 7
ENDMDL
MODEL 8
REMARK VINA RESULT:      -9.8      2.282      3.612
REMARK  Name = 
REMARK  7 active torsions:
REMARK  status: ('A' for Active; 'I' for Inactive)
REMARK    1  A    between atoms: O_2  and  C_3
REMARK    2  A    between atoms: C_6  and  C_7
REMARK    3  A    between atoms: C_7  and  N_8
REMARK    4  A    between atoms: C_9  and  C_11
REMARK    5  A    between atoms: C_11  and  C_13
REMARK    6  A    between atoms: C_20  and  N_21
REMARK    7  A    between atoms: C_22  and  C_24
REMARK                            x       y       z     vdW  Elec       q    Type
REMARK                         _______ _______ _______ _____ _____    ______ ____
ROOT
ATOM     13  C   UNL     1      -4.315   0.526  24.954  0.00  0.00    +0.039 C 
ATOM     14  C   UNL     1      -4.345  -0.057  25.539  0.00  0.00    +0.003 C 
ATOM     15  C   UNL     1      -3.704  -0.564  25.648  0.00  0.00    +0.000 C 
ATOM     16  C   UNL     1      -3.034  -0.489  25.174  0.00  0.00    +0.002 C 
ATOM     17  C   UNL     1      -3.063  -1.070  25.757  0.00  0.00    +0.000 C 
ATOM     18  C   UNL     1      -2.392  -0.996  25.283  0.00  0.00    +0.002 C 
ATOM     19  C   UNL     1      -1.721  -0.921  24.809  0.00  0.00    +0.022 C 
ATOM     20  C   UNL     1      -1.692  -0.338  24.225  0.00  0.00    +0.096 C 
ATOM     30  C   UNL     1      -2.333   0.169  24.116  0.00  0.00    +0.022 C 
ATOM     31  C   UNL     1      -2.303   0.752  23.532  0.00  0.00    +0.002 C 
ATOM     32  C   UNL     1      -3.004   0.095  24.590  0.00  0.00    +0.032 C 
ATOM     33  C   UNL     1      -3.645   0.601  24.481  0.00  0.00    +0.152 C 
ATOM     34  O   UNL     1      -3.616   1.184  23.897  0.00  0.00    -0.223 OA
ENDROOT
BRANCH  20  21
ATOM     21  N   UNL     1      -1.020  -0.263  23.751  0.00  0.00    -0.203 NA
ATOM     22  C   UNL     1      -0.286  -0.118  24.095  0.00  0.00    +0.265 C 
ATOM     23  O   UNL     1      -0.221  -0.047  24.916  0.00  0.00    -0.268 OA
BRANCH  22  24
ATOM     24  C   UNL     1       0.386  -0.043  23.621  0.00  0.00    +0.055 A 
ATOM     25  C   UNL     1       0.893   0.599  23.722  0.00  0.00    +0.005 A 
ATOM     26  C   UNL     1       1.564   0.674  23.248  0.00  0.00    +0.000 A 
ATOM     27  C   UNL     1       1.728   0.105  22.673  0.00  0.00    +0.000 A 
ATOM     28  C   UNL     1       1.220  -0.538  22.572  0.00  0.00    +0.000 A 
ATOM     29  C   UNL     1       0.549  -0.612  23.046  0.00  0.00    +0.005 A 
ENDBRANCH  22  24
ENDBRANCH  20  21
BRANCH  13  11
ATOM     11  C   UNL     1      -4.957   1.033  24.846  0.00  0.00    +0.081 C 
ATOM     12  C   UNL     1      -5.544   0.843  24.298  0.00  0.00    +0.010 C 
BRANCH  11   9
ATOM      8  N   UNL     1      -4.528   2.372  25.102  0.00  0.00    -0.201 NA
ATOM      9  C   UNL     1      -5.013   1.731  25.284  0.00  0.00    +0.241 C 
ATOM     10  O   UNL     1      -5.554   1.785  25.905  0.00  0.00    -0.273 OA
BRANCH   8   7
ATOM      7  C   UNL     1      -4.584   3.068  25.539  0.00  0.00    +0.141 C 
BRANCH   7   6
ATOM      3  C   UNL     1      -2.704   4.679  25.552  0.00  0.00    +0.139 A 
ATOM      4  C   UNL     1      -2.854   4.215  26.218  0.00  0.00    +0.037 A 
ATOM      5  C   UNL     1      -3.481   3.678  26.213  0.00  0.00    +0.001 A 
ATOM      6  C   UNL     1      -3.957   3.605  25.544  0.00  0.00    -0.000 A 
ATOM     35  C   UNL     1      -3.808   4.069  24.879  0.00  0.00    +0.001 A 
ATOM     36  C   UNL     1      -3.181   4.606  24.882  0.00  0.00    +0.037 A 
BRANCH   3   2
ATOM      1  C   UNL     1      -1.376   5.033  25.166  0.00  0.00    +0.252 C 
ATOM      2  O   UNL     1      -2.078   5.216  25.556  0.00  0.00    -0.471 OA
ENDBRANCH   3   2
ENDBRANCH   7   6
ENDBRANCH   8   7
ENDBRANCH  11   9
ENDBRANCH  13  11
TORSDOF 7
ENDMDL
