REMARK  Name = 
REMARK  6 active torsions:
REMARK  status: ('A' for Active; 'I' for Inactive)
REMARK    1  A    between atoms: C_2  and  C_5
REMARK    2  A    between atoms: C_9  and  S_11
REMARK    3  A    between atoms: S_11  and  N_14
REMARK    4  A    between atoms: C_23  and  N_24
REMARK    5  A    between atoms: C_25  and  C_27
REMARK    6  A    between atoms: C_27  and  C_28
REMARK                            x       y       z     vdW  Elec       q    Type
REMARK                         _______ _______ _______ _____ _____    ______ ____
ROOT
ATOM     14  N   UNL     1       0.813  -2.091   0.000  0.00  0.00    -0.155 NA
ATOM     15  C   UNL     1       1.629  -1.912   0.000  0.00  0.00    +0.098 C 
ATOM     16  C   UNL     1       1.582  -0.925   0.000  0.00  0.00    +0.041 C 
ATOM     17  C   UNL     1       1.713  -0.121   0.000  0.00  0.00    +0.011 C 
ATOM     18  C   UNL     1       1.163  -0.557   0.000  0.00  0.00    +0.056 C 
ATOM     19  C   UNL     1       1.225  -1.510   0.000  0.00  0.00    +0.102 C 
ATOM     20  C   UNL     1       0.244  -0.558   0.000  0.00  0.00    +0.041 A 
ATOM     21  C   UNL     1      -0.397  -0.039   0.000  0.00  0.00    +0.014 A 
ATOM     22  C   UNL     1      -1.167  -0.335   0.000  0.00  0.00    +0.023 A 
ATOM     23  C   UNL     1      -1.296  -1.150   0.000  0.00  0.00    +0.129 A 
ATOM     34  C   UNL     1      -0.655  -1.669   0.000  0.00  0.00    +0.276 A 
ATOM     35  O   UNL     1      -0.762  -2.623   0.000  0.00  0.00    -0.266 OA
ATOM     36  N   UNL     1       0.115  -1.373   0.000  0.00  0.00    -0.298 N 
ATOM     37  C   UNL     1       0.622  -0.936   0.000  0.00  0.00    +0.110 C 
ENDROOT
BRANCH  14  11
ATOM     11  S   UNL     1       0.201  -2.696   0.000  0.00  0.00    +0.063 S 
ATOM     12  O   UNL     1      -0.065  -3.539   0.000  0.00  0.00    -0.153 OA
ATOM     13  O   UNL     1       0.827  -3.324   0.000  0.00  0.00    -0.153 OA
BRANCH  11   9
ATOM      5  C   UNL     1      -1.610  -1.222   0.000  0.00  0.00    +0.073 A 
ATOM      6  C   UNL     1      -1.325  -0.566   0.000  0.00  0.00    +0.004 A 
ATOM      7  C   UNL     1      -0.418  -0.433   0.000  0.00  0.00    +0.001 A 
ATOM      8  C   UNL     1      -0.045  -1.038   0.000  0.00  0.00    +0.020 A 
ATOM      9  C   UNL     1      -0.331  -1.859   0.000  0.00  0.00    +0.122 A 
ATOM     10  C   UNL     1      -1.154  -1.910   0.000  0.00  0.00    +0.024 A 
BRANCH   5   2
ATOM      1  F   UNL     1      -3.336  -1.782   0.000  0.00  0.00    -0.166 F 
ATOM      2  C   UNL     1      -2.547  -1.287   0.000  0.00  0.00    +0.419 C 
ATOM      3  F   UNL     1      -2.256  -2.226   0.000  0.00  0.00    -0.166 F 
ATOM      4  F   UNL     1      -2.424  -0.395   0.000  0.00  0.00    -0.166 F 
ENDBRANCH   5   2
ENDBRANCH  11   9
ENDBRANCH  14  11
BRANCH  23  24
ATOM     24  N   UNL     1      -2.184  -1.584   0.000  0.00  0.00    -0.174 NA
ATOM     25  C   UNL     1      -3.064  -1.047   0.000  0.00  0.00    +0.250 C 
ATOM     26  O   UNL     1      -3.229  -0.175   0.000  0.00  0.00    -0.273 OA
BRANCH  25  27
ATOM     27  C   UNL     1      -3.849  -1.473   0.000  0.00  0.00    +0.113 C 
BRANCH  27  28
ATOM     28  C   UNL     1      -4.119  -0.703   0.000  0.00  0.00    -0.013 A 
ATOM     29  C   UNL     1      -4.937  -0.805   0.000  0.00  0.00    -0.004 A 
ATOM     30  C   UNL     1      -5.435  -0.148   0.000  0.00  0.00    -0.000 A 
ATOM     31  C   UNL     1      -5.115   0.613   0.000  0.00  0.00    -0.000 A 
ATOM     32  C   UNL     1      -4.296   0.715   0.000  0.00  0.00    -0.000 A 
ATOM     33  C   UNL     1      -3.798   0.057   0.000  0.00  0.00    -0.004 A 
ENDBRANCH  27  28
ENDBRANCH  25  27
ENDBRANCH  23  24
TORSDOF 6
