MODEL 1
REMARK VINA RESULT:     -10.1      0.000      0.000
REMARK  Name = 
REMARK  3 active torsions:
REMARK  status: ('A' for Active; 'I' for Inactive)
REMARK    1  A    between atoms: C_3  and  N_7
REMARK    2  A    between atoms: C_12  and  C_13
REMARK    3  A    between atoms: C_15  and  C_18
REMARK                            x       y       z     vdW  Elec       q    Type
REMARK                         _______ _______ _______ _____ _____    ______ ____
ROOT
ATOM      7  N   UNL     1      -3.086  -1.560  24.595  0.00  0.00    -0.265 NA
ATOM      8  C   UNL     1      -3.041  -2.383  24.612  0.00  0.00    +0.105 C 
ATOM      9  C   UNL     1      -3.647  -2.838  24.284  0.00  0.00    +0.160 C 
ATOM     10  O   UNL     1      -4.298  -2.467  23.938  0.00  0.00    -0.350 OA
ATOM     11  C   UNL     1      -4.344  -1.644  23.921  0.00  0.00    +0.166 C 
ATOM     12  C   UNL     1      -3.738  -1.191  24.248  0.00  0.00    +0.147 C 
ENDROOT
BRANCH   7   3
ATOM      1  C   UNL     1      -1.257  -0.384  24.777  0.00  0.00    +0.090 C 
ATOM      2  C   UNL     1      -1.863  -0.837  24.448  0.00  0.00    +0.035 C 
ATOM      3  C   UNL     1      -2.480  -1.107  24.923  0.00  0.00    +0.061 C 
ATOM      4  C   UNL     1      -2.492  -0.923  25.728  0.00  0.00    +0.035 C 
ATOM      5  C   UNL     1      -1.886  -0.471  26.057  0.00  0.00    +0.090 C 
ATOM      6  N   UNL     1      -1.269  -0.201  25.582  0.00  0.00    -0.218 NA
ENDBRANCH   7   3
BRANCH  12  13
ATOM     13  C   UNL     1      -3.784  -0.366  24.231  0.00  0.00    +0.156 A 
ATOM     14  N   UNL     1      -4.232   0.105  24.737  0.00  0.00    -0.228 NA
ATOM     15  C   UNL     1      -4.114   0.893  24.522  0.00  0.00    +0.103 A 
ATOM     16  C   UNL     1      -3.592   0.908  23.883  0.00  0.00    +0.119 A 
ATOM     17  N   UNL     1      -3.388   0.129  23.703  0.00  0.00    -0.226 NA
BRANCH  15  18
ATOM     18  C   UNL     1      -4.457   1.551  24.884  0.00  0.00    +0.038 A 
ATOM     19  C   UNL     1      -5.236   1.514  25.152  0.00  0.00    +0.005 A 
ATOM     20  C   UNL     1      -5.580   2.172  25.513  0.00  0.00    +0.021 A 
ATOM     21  C   UNL     1      -5.144   2.865  25.606  0.00  0.00    +0.099 A 
ATOM     22  N   UNL     1      -4.365   2.903  25.337  0.00  0.00    -0.242 NA
ATOM     23  C   UNL     1      -4.021   2.245  24.976  0.00  0.00    +0.100 A 
ENDBRANCH  15  18
ENDBRANCH  12  13
TORSDOF 3
ENDMDL
MODEL 2
REMARK VINA RESULT:     -10.0      1.663      3.766
REMARK  Name = 
REMARK  3 active torsions:
REMARK  status: ('A' for Active; 'I' for Inactive)
REMARK    1  A    between atoms: C_3  and  N_7
REMARK    2  A    between atoms: C_12  and  C_13
REMARK    3  A    between atoms: C_15  and  C_18
REMARK                            x       y       z     vdW  Elec       q    Type
REMARK                         _______ _______ _______ _____ _____    ______ ____
ROOT
ATOM      7  N   UNL     1      -3.830   2.572  24.988  0.00  0.00    -0.265 NA
ATOM      8  C   UNL     1      -4.051   3.306  25.292  0.00  0.00    +0.105 C 
ATOM      9  C   UNL     1      -4.834   3.442  25.517  0.00  0.00    +0.160 C 
ATOM     10  O   UNL     1      -5.394   2.842  25.436  0.00  0.00    -0.350 OA
ATOM     11  C   UNL     1      -5.174   2.108  25.132  0.00  0.00    +0.166 C 
ATOM     12  C   UNL     1      -4.392   1.973  24.908  0.00  0.00    +0.147 C 
ENDROOT
BRANCH   7   3
ATOM      1  C   UNL     1      -2.035   2.413  23.756  0.00  0.00    +0.090 C 
ATOM      2  C   UNL     1      -2.817   2.547  23.979  0.00  0.00    +0.035 C 
ATOM      3  C   UNL     1      -3.047   2.437  24.763  0.00  0.00    +0.061 C 
ATOM      4  C   UNL     1      -2.493   2.192  25.325  0.00  0.00    +0.035 C 
ATOM      5  C   UNL     1      -1.711   2.058  25.102  0.00  0.00    +0.090 C 
ATOM      6  N   UNL     1      -1.482   2.168  24.318  0.00  0.00    -0.218 NA
ENDBRANCH   7   3
BRANCH  12  13
ATOM     13  C   UNL     1      -4.171   1.238  24.603  0.00  0.00    +0.156 A 
ATOM     14  N   UNL     1      -4.117   0.534  25.028  0.00  0.00    -0.228 NA
ATOM     15  C   UNL     1      -3.878  -0.060  24.508  0.00  0.00    +0.103 A 
ATOM     16  C   UNL     1      -3.784   0.277  23.761  0.00  0.00    +0.119 A 
ATOM     17  N   UNL     1      -3.965   1.081  23.820  0.00  0.00    -0.226 NA
BRANCH  15  18
ATOM     18  C   UNL     1      -3.755  -0.854  24.700  0.00  0.00    +0.038 A 
ATOM     19  C   UNL     1      -3.872  -1.438  24.131  0.00  0.00    +0.005 A 
ATOM     20  C   UNL     1      -3.749  -2.232  24.323  0.00  0.00    +0.021 A 
ATOM     21  C   UNL     1      -3.508  -2.439  25.084  0.00  0.00    +0.099 A 
ATOM     22  N   UNL     1      -3.390  -1.853  25.654  0.00  0.00    -0.242 NA
ATOM     23  C   UNL     1      -3.514  -1.060  25.461  0.00  0.00    +0.100 A 
ENDBRANCH  15  18
ENDBRANCH  12  13
TORSDOF 3
ENDMDL
MODEL 3
REMARK VINA RESULT:      -9.9      1.277      2.085
REMARK  Name = 
REMARK  3 active torsions:
REMARK  status: ('A' for Active; 'I' for Inactive)
REMARK    1  A    between atoms: C_3  and  N_7
REMARK    2  A    between atoms: C_12  and  C_13
REMARK    3  A    between atoms: C_15  and  C_18
REMARK                            x       y       z     vdW  Elec       q    Type
REMARK                         _______ _______ _______ _____ _____    ______ ____
ROOT
ATOM      7  N   UNL     1      -1.799  -0.332  24.666  0.00  0.00    -0.265 NA
ATOM      8  C   UNL     1      -1.038  -0.645  24.729  0.00  0.00    +0.105 C 
ATOM      9  C   UNL     1      -0.386  -0.190  24.508  0.00  0.00    +0.160 C 
ATOM     10  O   UNL     1      -0.495   0.577  24.224  0.00  0.00    -0.350 OA
ATOM     11  C   UNL     1      -1.256   0.889  24.161  0.00  0.00    +0.166 C 
ATOM     12  C   UNL     1      -1.908   0.435  24.382  0.00  0.00    +0.147 C 
ENDROOT
BRANCH   7   3
ATOM      1  C   UNL     1      -3.506  -1.687  24.543  0.00  0.00    +0.090 C 
ATOM      2  C   UNL     1      -2.855  -1.233  24.322  0.00  0.00    +0.035 C 
ATOM      3  C   UNL     1      -2.451  -0.788  24.887  0.00  0.00    +0.061 C 
ATOM      4  C   UNL     1      -2.699  -0.798  25.675  0.00  0.00    +0.035 C 
ATOM      5  C   UNL     1      -3.350  -1.252  25.896  0.00  0.00    +0.090 C 
ATOM      6  N   UNL     1      -3.754  -1.697  25.331  0.00  0.00    -0.218 NA
ENDBRANCH   7   3
BRANCH  12  13
ATOM     13  C   UNL     1      -2.670   0.747  24.319  0.00  0.00    +0.156 A 
ATOM     14  N   UNL     1      -3.026   1.265  24.852  0.00  0.00    -0.228 NA
ATOM     15  C   UNL     1      -3.785   1.434  24.574  0.00  0.00    +0.103 A 
ATOM     16  C   UNL     1      -3.896   1.021  23.869  0.00  0.00    +0.119 A 
ATOM     17  N   UNL     1      -3.206   0.596  23.711  0.00  0.00    -0.226 NA
BRANCH  15  18
ATOM     18  C   UNL     1      -4.335   1.930  24.937  0.00  0.00    +0.038 A 
ATOM     19  C   UNL     1      -5.117   1.684  25.023  0.00  0.00    +0.005 A 
ATOM     20  C   UNL     1      -5.668   2.180  25.387  0.00  0.00    +0.021 A 
ATOM     21  C   UNL     1      -5.436   2.921  25.663  0.00  0.00    +0.099 A 
ATOM     22  N   UNL     1      -4.653   3.168  25.577  0.00  0.00    -0.242 NA
ATOM     23  C   UNL     1      -4.103   2.672  25.213  0.00  0.00    +0.100 A 
ENDBRANCH  15  18
ENDBRANCH  12  13
TORSDOF 3
ENDMDL
MODEL 4
REMARK VINA RESULT:      -9.8      2.271      4.441
REMARK  Name = 
REMARK  3 active torsions:
REMARK  status: ('A' for Active; 'I' for Inactive)
REMARK    1  A    between atoms: C_3  and  N_7
REMARK    2  A    between atoms: C_12  and  C_13
REMARK    3  A    between atoms: C_15  and  C_18
REMARK                            x       y       z     vdW  Elec       q    Type
REMARK                         _______ _______ _______ _____ _____    ______ ____
ROOT
ATOM      7  N   UNL     1      -2.307   3.540  24.917  0.00  0.00    -0.265 NA
ATOM      8  C   UNL     1      -1.880   4.200  25.168  0.00  0.00    +0.105 C 
ATOM      9  C   UNL     1      -1.056   4.205  25.112  0.00  0.00    +0.160 C 
ATOM     10  O   UNL     1      -0.661   3.549  24.804  0.00  0.00    -0.350 OA
ATOM     11  C   UNL     1      -1.088   2.889  24.553  0.00  0.00    +0.166 C 
ATOM     12  C   UNL     1      -1.910   2.885  24.610  0.00  0.00    +0.147 C 
ENDROOT
BRANCH   7   3
ATOM      1  C   UNL     1      -4.412   3.738  24.379  0.00  0.00    +0.090 C 
ATOM      2  C   UNL     1      -3.590   3.742  24.322  0.00  0.00    +0.035 C 
ATOM      3  C   UNL     1      -3.130   3.537  24.974  0.00  0.00    +0.061 C 
ATOM      4  C   UNL     1      -3.493   3.327  25.686  0.00  0.00    +0.035 C 
ATOM      5  C   UNL     1      -4.316   3.323  25.743  0.00  0.00    +0.090 C 
ATOM      6  N   UNL     1      -4.776   3.528  25.091  0.00  0.00    -0.218 NA
ENDBRANCH   7   3
BRANCH  12  13
ATOM     13  C   UNL     1      -2.338   2.225  24.358  0.00  0.00    +0.156 A 
ATOM     14  N   UNL     1      -2.470   1.539  24.795  0.00  0.00    -0.228 NA
ATOM     15  C   UNL     1      -2.922   1.025  24.333  0.00  0.00    +0.103 A 
ATOM     16  C   UNL     1      -3.069   1.395  23.611  0.00  0.00    +0.119 A 
ATOM     17  N   UNL     1      -2.708   2.137  23.626  0.00  0.00    -0.226 NA
BRANCH  15  18
ATOM     18  C   UNL     1      -3.182   0.274  24.555  0.00  0.00    +0.038 A 
ATOM     19  C   UNL     1      -3.872  -0.036  24.228  0.00  0.00    +0.005 A 
ATOM     20  C   UNL     1      -4.132  -0.787  24.449  0.00  0.00    +0.021 A 
ATOM     21  C   UNL     1      -3.701  -1.228  24.997  0.00  0.00    +0.099 A 
ATOM     22  N   UNL     1      -3.010  -0.918  25.324  0.00  0.00    -0.242 NA
ATOM     23  C   UNL     1      -2.750  -0.166  25.103  0.00  0.00    +0.100 A 
ENDBRANCH  15  18
ENDBRANCH  12  13
TORSDOF 3
ENDMDL
MODEL 5
REMARK VINA RESULT:      -9.6      2.013      3.492
REMARK  Name = 
REMARK  3 active torsions:
REMARK  status: ('A' for Active; 'I' for Inactive)
REMARK    1  A    between atoms: C_3  and  N_7
REMARK    2  A    between atoms: C_12  and  C_13
REMARK    3  A    between atoms: C_15  and  C_18
REMARK                            x       y       z     vdW  Elec       q    Type
REMARK                         _______ _______ _______ _____ _____    ______ ____
ROOT
ATOM      7  N   UNL     1      -4.664   1.186  24.842  0.00  0.00    -0.265 NA
ATOM      8  C   UNL     1      -5.470   1.196  25.019  0.00  0.00    +0.105 C 
ATOM      9  C   UNL     1      -5.873   1.915  25.066  0.00  0.00    +0.160 C 
ATOM     10  O   UNL     1      -5.469   2.623  24.936  0.00  0.00    -0.350 OA
ATOM     11  C   UNL     1      -4.663   2.612  24.760  0.00  0.00    +0.166 C 
ATOM     12  C   UNL     1      -4.261   1.894  24.713  0.00  0.00    +0.147 C 
ENDROOT
BRANCH   7   3
ATOM      1  C   UNL     1      -3.761  -0.622  24.020  0.00  0.00    +0.090 C 
ATOM      2  C   UNL     1      -4.162   0.096  24.066  0.00  0.00    +0.035 C 
ATOM      3  C   UNL     1      -4.262   0.467  24.796  0.00  0.00    +0.061 C 
ATOM      4  C   UNL     1      -3.959   0.118  25.481  0.00  0.00    +0.035 C 
ATOM      5  C   UNL     1      -3.557  -0.600  25.434  0.00  0.00    +0.090 C 
ATOM      6  N   UNL     1      -3.458  -0.971  24.705  0.00  0.00    -0.218 NA
ENDBRANCH   7   3
BRANCH  12  13
ATOM     13  C   UNL     1      -3.454   1.884  24.536  0.00  0.00    +0.156 A 
ATOM     14  N   UNL     1      -2.841   2.036  25.064  0.00  0.00    -0.228 NA
ATOM     15  C   UNL     1      -2.128   1.965  24.655  0.00  0.00    +0.103 A 
ATOM     16  C   UNL     1      -2.302   1.769  23.872  0.00  0.00    +0.119 A 
ATOM     17  N   UNL     1      -3.123   1.718  23.799  0.00  0.00    -0.226 NA
BRANCH  15  18
ATOM     18  C   UNL     1      -1.373   2.072  24.971  0.00  0.00    +0.038 A 
ATOM     19  C   UNL     1      -1.255   2.617  25.579  0.00  0.00    +0.005 A 
ATOM     20  C   UNL     1      -0.501   2.723  25.896  0.00  0.00    +0.021 A 
ATOM     21  C   UNL     1       0.135   2.286  25.605  0.00  0.00    +0.099 A 
ATOM     22  N   UNL     1       0.017   1.741  24.996  0.00  0.00    -0.242 NA
ATOM     23  C   UNL     1      -0.738   1.635  24.679  0.00  0.00    +0.100 A 
ENDBRANCH  15  18
ENDBRANCH  12  13
TORSDOF 3
ENDMDL
