MODEL 1
REMARK VINA RESULT:     -11.7      0.000      0.000
REMARK  Name = 
REMARK  10 active torsions:
REMARK  status: ('A' for Active; 'I' for Inactive)
REMARK    1  A    between atoms: C_2  and  C_4
REMARK    2  A    between atoms: C_4  and  C_5
REMARK    3  A    between atoms: C_4  and  N_12
REMARK    4  A    between atoms: C_5  and  C_6
REMARK    5  A    between atoms: C_13  and  C_15
REMARK    6  A    between atoms: C_22  and  N_24
REMARK    7  A    between atoms: C_25  and  C_27
REMARK    8  A    between atoms: C_27  and  C_28
REMARK    9  A    between atoms: C_28  and  C_29
REMARK   10  A    between atoms: C_29  and  C_30
REMARK                            x       y       z     vdW  Elec       q    Type
REMARK                         _______ _______ _______ _____ _____    ______ ____
ROOT
ATOM     15  C   UNL     1      -0.942   0.260  25.332  0.00  0.00    +0.200 C 
ATOM     16  O   UNL     1      -1.489   0.204  25.947  0.00  0.00    -0.216 OA
ATOM     17  C   UNL     1      -0.454   0.037  24.705  0.00  0.00    +0.075 C 
ATOM     18  C   UNL     1       0.014   0.600  24.327  0.00  0.00    +0.187 C 
ATOM     19  O   UNL     1       0.501   0.377  23.700  0.00  0.00    -0.220 OA
ATOM     20  C   UNL     1      -0.005   1.387  24.575  0.00  0.00    +0.202 C 
ATOM     21  O   UNL     1       0.465   1.950  24.195  0.00  0.00    -0.219 OA
ATOM     22  C   UNL     1      -0.492   1.610  25.202  0.00  0.00    +0.131 C 
ATOM     23  C   UNL     1      -0.960   1.047  25.580  0.00  0.00    +0.064 C 
ENDROOT
BRANCH  15  13
ATOM     12  N   UNL     1      -1.693  -0.823  24.781  0.00  0.00    -0.195 NA
ATOM     13  C   UNL     1      -1.113  -0.546  25.298  0.00  0.00    +0.269 C 
ATOM     14  O   UNL     1      -0.704  -1.075  25.781  0.00  0.00    -0.271 OA
BRANCH  12   4
ATOM      4  C   UNL     1      -1.865  -1.629  24.747  0.00  0.00    +0.179 C 
BRANCH   4   2
ATOM      1  N   UNL     1      -0.991  -2.760  24.786  0.00  0.00    -0.086 NA
ATOM      2  C   UNL     1      -1.346  -2.145  24.365  0.00  0.00    +0.281 C 
ATOM      3  O   UNL     1      -1.182  -2.047  23.563  0.00  0.00    -0.270 OA
ENDBRANCH   4   2
BRANCH   4   5
ATOM      5  C   UNL     1      -2.554  -1.919  25.094  0.00  0.00    +0.057 C 
BRANCH   5   6
ATOM      6  C   UNL     1      -3.254  -1.951  24.658  0.00  0.00    -0.020 A 
ATOM      7  C   UNL     1      -3.687  -1.263  24.522  0.00  0.00    -0.004 A 
ATOM      8  C   UNL     1      -4.387  -1.294  24.086  0.00  0.00    -0.000 A 
ATOM      9  C   UNL     1      -4.654  -2.015  23.787  0.00  0.00    -0.000 A 
ATOM     10  C   UNL     1      -4.221  -2.705  23.924  0.00  0.00    -0.000 A 
ATOM     11  C   UNL     1      -3.521  -2.672  24.359  0.00  0.00    -0.004 A 
ENDBRANCH   5   6
ENDBRANCH   4   5
ENDBRANCH  12   4
ENDBRANCH  15  13
BRANCH  22  24
ATOM     24  N   UNL     1      -0.510   2.397  25.449  0.00  0.00    -0.204 NA
ATOM     25  C   UNL     1      -1.178   2.859  25.307  0.00  0.00    +0.241 C 
ATOM     26  O   UNL     1      -1.829   2.534  24.917  0.00  0.00    -0.273 OA
BRANCH  25  27
ATOM     27  C   UNL     1      -1.195   3.646  25.555  0.00  0.00    +0.087 C 
BRANCH  27  28
ATOM     28  C   UNL     1      -1.904   4.069  25.534  0.00  0.00    +0.019 C 
ATOM     33  C   UNL     1      -2.081   3.639  26.215  0.00  0.00    +0.001 C 
ATOM     34  C   UNL     1      -2.831   3.868  26.472  0.00  0.00    +0.000 C 
ATOM     35  C   UNL     1      -3.116   4.439  25.950  0.00  0.00    +0.000 C 
ATOM     36  C   UNL     1      -2.543   4.563  25.370  0.00  0.00    +0.001 C 
BRANCH  28  29
ATOM     29  C   UNL     1      -1.578   4.410  24.857  0.00  0.00    +0.115 C 
BRANCH  29  30
ATOM     30  C   UNL     1      -1.207   5.147  24.904  0.00  0.00    +0.365 C 
ATOM     31  O   UNL     1      -1.657   5.828  25.022  0.00  0.00    -0.246 OA
ATOM     32  O   UNL     1      -0.387   5.200  24.834  0.00  0.00    -0.246 OA
ENDBRANCH  29  30
ENDBRANCH  28  29
ENDBRANCH  27  28
ENDBRANCH  25  27
ENDBRANCH  22  24
TORSDOF 10
ENDMDL
MODEL 2
REMARK VINA RESULT:     -11.5      2.074      6.257
REMARK  Name = 
REMARK  10 active torsions:
REMARK  status: ('A' for Active; 'I' for Inactive)
REMARK    1  A    between atoms: C_2  and  C_4
REMARK    2  A    between atoms: C_4  and  C_5
REMARK    3  A    between atoms: C_4  and  N_12
REMARK    4  A    between atoms: C_5  and  C_6
REMARK    5  A    between atoms: C_13  and  C_15
REMARK    6  A    between atoms: C_22  and  N_24
REMARK    7  A    between atoms: C_25  and  C_27
REMARK    8  A    between atoms: C_27  and  C_28
REMARK    9  A    between atoms: C_28  and  C_29
REMARK   10  A    between atoms: C_29  and  C_30
REMARK                            x       y       z     vdW  Elec       q    Type
REMARK                         _______ _______ _______ _____ _____    ______ ____
ROOT
ATOM     15  C   UNL     1      -3.833   2.053  24.701  0.00  0.00    +0.200 C 
ATOM     16  O   UNL     1      -3.089   2.179  24.368  0.00  0.00    -0.216 OA
ATOM     17  C   UNL     1      -4.539   2.202  25.101  0.00  0.00    +0.075 C 
ATOM     18  C   UNL     1      -5.096   1.601  25.194  0.00  0.00    +0.187 C 
ATOM     19  O   UNL     1      -5.801   1.750  25.594  0.00  0.00    -0.220 OA
ATOM     20  C   UNL     1      -4.947   0.850  24.886  0.00  0.00    +0.202 C 
ATOM     21  O   UNL     1      -5.505   0.249  24.979  0.00  0.00    -0.219 OA
ATOM     22  C   UNL     1      -4.241   0.700  24.486  0.00  0.00    +0.131 C 
ATOM     23  C   UNL     1      -3.685   1.301  24.394  0.00  0.00    +0.064 C 
ENDROOT
BRANCH  15  13
ATOM     12  N   UNL     1      -3.069   3.078  25.339  0.00  0.00    -0.195 NA
ATOM     13  C   UNL     1      -3.723   2.847  24.893  0.00  0.00    +0.269 C 
ATOM     14  O   UNL     1      -4.268   3.412  24.637  0.00  0.00    -0.271 OA
BRANCH  12   4
ATOM      4  C   UNL     1      -2.959   3.872  25.531  0.00  0.00    +0.179 C 
BRANCH   4   2
ATOM      1  N   UNL     1      -3.659   4.779  26.386  0.00  0.00    -0.086 NA
ATOM      2  C   UNL     1      -3.142   4.143  26.288  0.00  0.00    +0.281 C 
ATOM      3  O   UNL     1      -2.810   3.778  26.949  0.00  0.00    -0.270 OA
ENDBRANCH   4   2
BRANCH   4   5
ATOM      5  C   UNL     1      -2.666   4.396  24.966  0.00  0.00    +0.057 C 
BRANCH   5   6
ATOM      6  C   UNL     1      -1.858   4.565  24.938  0.00  0.00    -0.020 A 
ATOM      7  C   UNL     1      -1.309   3.951  24.908  0.00  0.00    -0.004 A 
ATOM      8  C   UNL     1      -0.502   4.120  24.880  0.00  0.00    -0.000 A 
ATOM      9  C   UNL     1      -0.245   4.904  24.883  0.00  0.00    -0.000 A 
ATOM     10  C   UNL     1      -0.795   5.519  24.913  0.00  0.00    -0.000 A 
ATOM     11  C   UNL     1      -1.601   5.349  24.941  0.00  0.00    -0.004 A 
ENDBRANCH   5   6
ENDBRANCH   4   5
ENDBRANCH  12   4
ENDBRANCH  15  13
BRANCH  22  24
ATOM     24  N   UNL     1      -4.093  -0.051  24.179  0.00  0.00    -0.204 NA
ATOM     25  C   UNL     1      -3.532  -0.540  24.535  0.00  0.00    +0.241 C 
ATOM     26  O   UNL     1      -3.118  -0.277  25.199  0.00  0.00    -0.273 OA
BRANCH  25  27
ATOM     27  C   UNL     1      -3.385  -1.291  24.227  0.00  0.00    +0.087 C 
BRANCH  27  28
ATOM     28  C   UNL     1      -2.798  -1.766  24.562  0.00  0.00    +0.019 C 
ATOM     33  C   UNL     1      -2.285  -1.292  24.123  0.00  0.00    +0.001 C 
ATOM     34  C   UNL     1      -1.515  -1.553  24.265  0.00  0.00    +0.000 C 
ATOM     35  C   UNL     1      -1.554  -2.187  24.791  0.00  0.00    +0.000 C 
ATOM     36  C   UNL     1      -2.347  -2.318  24.975  0.00  0.00    +0.001 C 
BRANCH  28  29
ATOM     29  C   UNL     1      -3.435  -2.139  24.930  0.00  0.00    +0.115 C 
BRANCH  29  30
ATOM     30  C   UNL     1      -3.668  -2.893  24.687  0.00  0.00    +0.365 C 
ATOM     31  O   UNL     1      -3.998  -3.001  23.939  0.00  0.00    -0.246 OA
ATOM     32  O   UNL     1      -3.571  -3.538  25.192  0.00  0.00    -0.246 OA
ENDBRANCH  29  30
ENDBRANCH  28  29
ENDBRANCH  27  28
ENDBRANCH  25  27
ENDBRANCH  22  24
TORSDOF 10
ENDMDL
MODEL 3
REMARK VINA RESULT:     -10.8      1.663      5.796
REMARK  Name = 
REMARK  10 active torsions:
REMARK  status: ('A' for Active; 'I' for Inactive)
REMARK    1  A    between atoms: C_2  and  C_4
REMARK    2  A    between atoms: C_4  and  C_5
REMARK    3  A    between atoms: C_4  and  N_12
REMARK    4  A    between atoms: C_5  and  C_6
REMARK    5  A    between atoms: C_13  and  C_15
REMARK    6  A    between atoms: C_22  and  N_24
REMARK    7  A    between atoms: C_25  and  C_27
REMARK    8  A    between atoms: C_27  and  C_28
REMARK    9  A    between atoms: C_28  and  C_29
REMARK   10  A    between atoms: C_29  and  C_30
REMARK                            x       y       z     vdW  Elec       q    Type
REMARK                         _______ _______ _______ _____ _____    ______ ____
ROOT
ATOM     15  C   UNL     1      -1.817   1.363  24.550  0.00  0.00    +0.200 C 
ATOM     16  O   UNL     1      -1.604   1.122  25.309  0.00  0.00    -0.216 OA
ATOM     17  C   UNL     1      -1.808   1.777  23.836  0.00  0.00    +0.075 C 
ATOM     18  C   UNL     1      -2.364   1.605  23.252  0.00  0.00    +0.187 C 
ATOM     19  O   UNL     1      -2.355   2.020  22.540  0.00  0.00    -0.220 OA
ATOM     20  C   UNL     1      -2.929   1.019  23.381  0.00  0.00    +0.202 C 
ATOM     21  O   UNL     1      -3.486   0.847  22.796  0.00  0.00    -0.219 OA
ATOM     22  C   UNL     1      -2.939   0.604  24.094  0.00  0.00    +0.131 C 
ATOM     23  C   UNL     1      -2.383   0.776  24.678  0.00  0.00    +0.064 C 
ENDROOT
BRANCH  15  13
ATOM     12  N   UNL     1      -1.239   2.472  25.242  0.00  0.00    -0.195 NA
ATOM     13  C   UNL     1      -1.178   1.866  24.685  0.00  0.00    +0.269 C 
ATOM     14  O   UNL     1      -0.476   1.763  24.264  0.00  0.00    -0.271 OA
BRANCH  12   4
ATOM      4  C   UNL     1      -0.600   2.974  25.377  0.00  0.00    +0.179 C 
BRANCH   4   2
ATOM      1  N   UNL     1       0.725   2.767  25.870  0.00  0.00    -0.086 NA
ATOM      2  C   UNL     1      -0.086   2.828  26.005  0.00  0.00    +0.281 C 
ATOM      3  O   UNL     1      -0.383   2.742  26.770  0.00  0.00    -0.270 OA
ENDBRANCH   4   2
BRANCH   4   5
ATOM      5  C   UNL     1      -0.475   3.624  24.885  0.00  0.00    +0.057 C 
BRANCH   5   6
ATOM      6  C   UNL     1      -0.906   4.319  25.000  0.00  0.00    -0.020 A 
ATOM      7  C   UNL     1      -1.614   4.300  25.421  0.00  0.00    -0.004 A 
ATOM      8  C   UNL     1      -2.045   4.995  25.536  0.00  0.00    -0.000 A 
ATOM      9  C   UNL     1      -1.766   5.708  25.228  0.00  0.00    -0.000 A 
ATOM     10  C   UNL     1      -1.057   5.726  24.807  0.00  0.00    -0.000 A 
ATOM     11  C   UNL     1      -0.627   5.032  24.693  0.00  0.00    -0.004 A 
ENDBRANCH   5   6
ENDBRANCH   4   5
ENDBRANCH  12   4
ENDBRANCH  15  13
BRANCH  22  24
ATOM     24  N   UNL     1      -3.505   0.017  24.222  0.00  0.00    -0.204 NA
ATOM     25  C   UNL     1      -3.270  -0.767  24.324  0.00  0.00    +0.241 C 
ATOM     26  O   UNL     1      -2.469  -0.965  24.298  0.00  0.00    -0.273 OA
BRANCH  25  27
ATOM     27  C   UNL     1      -3.837  -1.353  24.452  0.00  0.00    +0.087 C 
BRANCH  27  28
ATOM     28  C   UNL     1      -3.605  -2.098  24.722  0.00  0.00    +0.019 C 
ATOM     33  C   UNL     1      -3.579  -1.728  25.458  0.00  0.00    +0.001 C 
ATOM     34  C   UNL     1      -3.347  -2.289  26.017  0.00  0.00    +0.000 C 
ATOM     35  C   UNL     1      -3.229  -3.005  25.625  0.00  0.00    +0.000 C 
ATOM     36  C   UNL     1      -3.389  -2.887  24.824  0.00  0.00    +0.001 C 
BRANCH  28  29
ATOM     29  C   UNL     1      -3.679  -2.312  23.928  0.00  0.00    +0.115 C 
BRANCH  29  30
ATOM     30  C   UNL     1      -4.310  -2.786  23.686  0.00  0.00    +0.365 C 
ATOM     31  O   UNL     1      -4.197  -3.594  23.566  0.00  0.00    -0.246 OA
ATOM     32  O   UNL     1      -5.054  -2.450  23.564  0.00  0.00    -0.246 OA
ENDBRANCH  29  30
ENDBRANCH  28  29
ENDBRANCH  27  28
ENDBRANCH  25  27
ENDBRANCH  22  24
TORSDOF 10
ENDMDL
MODEL 4
REMARK VINA RESULT:     -10.7      1.857      2.958
REMARK  Name = 
REMARK  10 active torsions:
REMARK  status: ('A' for Active; 'I' for Inactive)
REMARK    1  A    between atoms: C_2  and  C_4
REMARK    2  A    between atoms: C_4  and  C_5
REMARK    3  A    between atoms: C_4  and  N_12
REMARK    4  A    between atoms: C_5  and  C_6
REMARK    5  A    between atoms: C_13  and  C_15
REMARK    6  A    between atoms: C_22  and  N_24
REMARK    7  A    between atoms: C_25  and  C_27
REMARK    8  A    between atoms: C_27  and  C_28
REMARK    9  A    between atoms: C_28  and  C_29
REMARK   10  A    between atoms: C_29  and  C_30
REMARK                            x       y       z     vdW  Elec       q    Type
REMARK                         _______ _______ _______ _____ _____    ______ ____
ROOT
ATOM     15  C   UNL     1      -3.852   1.005  25.160  0.00  0.00    +0.200 C 
ATOM     16  O   UNL     1      -3.169   0.623  25.420  0.00  0.00    -0.216 OA
ATOM     17  C   UNL     1      -4.608   1.116  24.848  0.00  0.00    +0.075 C 
ATOM     18  C   UNL     1      -4.917   1.877  24.775  0.00  0.00    +0.187 C 
ATOM     19  O   UNL     1      -5.673   1.986  24.463  0.00  0.00    -0.220 OA
ATOM     20  C   UNL     1      -4.471   2.528  25.015  0.00  0.00    +0.202 C 
ATOM     21  O   UNL     1      -4.781   3.289  24.942  0.00  0.00    -0.219 OA
ATOM     22  C   UNL     1      -3.716   2.418  25.326  0.00  0.00    +0.131 C 
ATOM     23  C   UNL     1      -3.406   1.657  25.399  0.00  0.00    +0.064 C 
ENDROOT
BRANCH  15  13
ATOM     12  N   UNL     1      -3.558  -0.264  24.572  0.00  0.00    -0.195 NA
ATOM     13  C   UNL     1      -4.061   0.221  25.011  0.00  0.00    +0.269 C 
ATOM     14  O   UNL     1      -4.773  -0.078  25.301  0.00  0.00    -0.271 OA
BRANCH  12   4
ATOM      4  C   UNL     1      -3.767  -1.048  24.424  0.00  0.00    +0.179 C 
BRANCH   4   2
ATOM      1  N   UNL     1      -4.870  -1.737  23.833  0.00  0.00    -0.086 NA
ATOM      2  C   UNL     1      -4.220  -1.235  23.760  0.00  0.00    +0.281 C 
ATOM      3  O   UNL     1      -4.024  -0.920  23.024  0.00  0.00    -0.270 OA
ENDBRANCH   4   2
BRANCH   4   5
ATOM      5  C   UNL     1      -3.522  -1.644  24.937  0.00  0.00    +0.057 C 
BRANCH   5   6
ATOM      6  C   UNL     1      -2.789  -2.007  24.831  0.00  0.00    -0.020 A 
ATOM      7  C   UNL     1      -2.724  -2.672  24.348  0.00  0.00    -0.004 A 
ATOM      8  C   UNL     1      -1.990  -3.035  24.241  0.00  0.00    -0.000 A 
ATOM      9  C   UNL     1      -1.322  -2.732  24.618  0.00  0.00    -0.000 A 
ATOM     10  C   UNL     1      -1.387  -2.066  25.102  0.00  0.00    -0.000 A 
ATOM     11  C   UNL     1      -2.121  -1.704  25.208  0.00  0.00    -0.004 A 
ENDBRANCH   5   6
ENDBRANCH   4   5
ENDBRANCH  12   4
ENDBRANCH  15  13
BRANCH  22  24
ATOM     24  N   UNL     1      -3.269   3.070  25.566  0.00  0.00    -0.204 NA
ATOM     25  C   UNL     1      -2.542   3.226  25.210  0.00  0.00    +0.241 C 
ATOM     26  O   UNL     1      -2.260   2.729  24.614  0.00  0.00    -0.273 OA
BRANCH  25  27
ATOM     27  C   UNL     1      -2.097   3.877  25.449  0.00  0.00    +0.087 C 
BRANCH  27  28
ATOM     28  C   UNL     1      -1.283   3.892  25.314  0.00  0.00    +0.019 C 
ATOM     33  C   UNL     1      -1.261   3.319  25.907  0.00  0.00    +0.001 C 
ATOM     34  C   UNL     1      -0.474   3.099  26.020  0.00  0.00    +0.000 C 
ATOM     35  C   UNL     1      -0.010   3.537  25.497  0.00  0.00    +0.000 C 
ATOM     36  C   UNL     1      -0.510   4.027  25.061  0.00  0.00    +0.001 C 
BRANCH  28  29
ATOM     29  C   UNL     1      -1.475   4.462  24.750  0.00  0.00    +0.115 C 
BRANCH  29  30
ATOM     30  C   UNL     1      -1.276   5.253  24.879  0.00  0.00    +0.365 C 
ATOM     31  O   UNL     1      -0.595   5.568  24.537  0.00  0.00    -0.246 OA
ATOM     32  O   UNL     1      -1.760   5.729  25.349  0.00  0.00    -0.246 OA
ENDBRANCH  29  30
ENDBRANCH  28  29
ENDBRANCH  27  28
ENDBRANCH  25  27
ENDBRANCH  22  24
TORSDOF 10
ENDMDL
MODEL 5
REMARK VINA RESULT:     -10.5      1.074      5.252
REMARK  Name = 
REMARK  10 active torsions:
REMARK  status: ('A' for Active; 'I' for Inactive)
REMARK    1  A    between atoms: C_2  and  C_4
REMARK    2  A    between atoms: C_4  and  C_5
REMARK    3  A    between atoms: C_4  and  N_12
REMARK    4  A    between atoms: C_5  and  C_6
REMARK    5  A    between atoms: C_13  and  C_15
REMARK    6  A    between atoms: C_22  and  N_24
REMARK    7  A    between atoms: C_25  and  C_27
REMARK    8  A    between atoms: C_27  and  C_28
REMARK    9  A    between atoms: C_28  and  C_29
REMARK   10  A    between atoms: C_29  and  C_30
REMARK                            x       y       z     vdW  Elec       q    Type
REMARK                         _______ _______ _______ _____ _____    ______ ____
ROOT
ATOM     15  C   UNL     1      -0.811   1.773  25.287  0.00  0.00    +0.200 C 
ATOM     16  O   UNL     1      -1.395   1.869  25.862  0.00  0.00    -0.216 OA
ATOM     17  C   UNL     1      -0.225   1.962  24.738  0.00  0.00    +0.075 C 
ATOM     18  C   UNL     1       0.153   1.363  24.315  0.00  0.00    +0.187 C 
ATOM     19  O   UNL     1       0.738   1.553  23.766  0.00  0.00    -0.220 OA
ATOM     20  C   UNL     1      -0.056   0.575  24.440  0.00  0.00    +0.202 C 
ATOM     21  O   UNL     1       0.322  -0.024  24.016  0.00  0.00    -0.219 OA
ATOM     22  C   UNL     1      -0.641   0.385  24.989  0.00  0.00    +0.131 C 
ATOM     23  C   UNL     1      -1.019   0.984  25.412  0.00  0.00    +0.064 C 
ENDROOT
BRANCH  15  13
ATOM     12  N   UNL     1      -1.398   3.045  25.005  0.00  0.00    -0.195 NA
ATOM     13  C   UNL     1      -0.805   2.594  25.361  0.00  0.00    +0.269 C 
ATOM     14  O   UNL     1      -0.208   2.965  25.792  0.00  0.00    -0.271 OA
BRANCH  12   4
ATOM      4  C   UNL     1      -1.392   3.866  25.079  0.00  0.00    +0.179 C 
BRANCH   4   2
ATOM      1  N   UNL     1      -0.434   4.919  24.960  0.00  0.00    -0.086 NA
ATOM      2  C   UNL     1      -0.882   4.319  24.615  0.00  0.00    +0.281 C 
ATOM      3  O   UNL     1      -0.819   4.171  23.806  0.00  0.00    -0.270 OA
ENDBRANCH   4   2
BRANCH   4   5
ATOM      5  C   UNL     1      -1.897   4.235  25.617  0.00  0.00    +0.057 C 
BRANCH   5   6
ATOM      6  C   UNL     1      -2.715   4.177  25.523  0.00  0.00    -0.020 A 
ATOM      7  C   UNL     1      -3.050   4.243  24.772  0.00  0.00    -0.004 A 
ATOM      8  C   UNL     1      -3.867   4.185  24.678  0.00  0.00    -0.000 A 
ATOM      9  C   UNL     1      -4.350   4.062  25.336  0.00  0.00    -0.000 A 
ATOM     10  C   UNL     1      -4.015   3.996  26.088  0.00  0.00    -0.000 A 
ATOM     11  C   UNL     1      -3.197   4.054  26.180  0.00  0.00    -0.004 A 
ENDBRANCH   5   6
ENDBRANCH   4   5
ENDBRANCH  12   4
ENDBRANCH  15  13
BRANCH  22  24
ATOM     24  N   UNL     1      -0.849  -0.404  25.114  0.00  0.00    -0.204 NA
ATOM     25  C   UNL     1      -1.605  -0.668  24.915  0.00  0.00    +0.241 C 
ATOM     26  O   UNL     1      -2.153  -0.143  24.591  0.00  0.00    -0.273 OA
BRANCH  25  27
ATOM     27  C   UNL     1      -1.812  -1.456  25.041  0.00  0.00    +0.087 C 
BRANCH  27  28
ATOM     28  C   UNL     1      -2.608  -1.675  25.062  0.00  0.00    +0.019 C 
ATOM     33  C   UNL     1      -2.581  -1.373  25.830  0.00  0.00    +0.001 C 
ATOM     34  C   UNL     1      -3.330  -1.459  26.163  0.00  0.00    +0.000 C 
ATOM     35  C   UNL     1      -3.820  -1.814  25.602  0.00  0.00    +0.000 C 
ATOM     36  C   UNL     1      -3.373  -1.947  24.921  0.00  0.00    +0.001 C 
BRANCH  28  29
ATOM     29  C   UNL     1      -2.468  -1.930  24.290  0.00  0.00    +0.115 C 
BRANCH  29  30
ATOM     30  C   UNL     1      -2.436  -2.738  24.122  0.00  0.00    +0.365 C 
ATOM     31  O   UNL     1      -3.106  -3.128  23.842  0.00  0.00    -0.246 OA
ATOM     32  O   UNL     1      -1.733  -3.155  24.236  0.00  0.00    -0.246 OA
ENDBRANCH  29  30
ENDBRANCH  28  29
ENDBRANCH  27  28
ENDBRANCH  25  27
ENDBRANCH  22  24
TORSDOF 10
ENDMDL
MODEL 6
REMARK VINA RESULT:     -10.4      2.084      3.095
REMARK  Name = 
REMARK  10 active torsions:
REMARK  status: ('A' for Active; 'I' for Inactive)
REMARK    1  A    between atoms: C_2  and  C_4
REMARK    2  A    between atoms: C_4  and  C_5
REMARK    3  A    between atoms: C_4  and  N_12
REMARK    4  A    between atoms: C_5  and  C_6
REMARK    5  A    between atoms: C_13  and  C_15
REMARK    6  A    between atoms: C_22  and  N_24
REMARK    7  A    between atoms: C_25  and  C_27
REMARK    8  A    between atoms: C_27  and  C_28
REMARK    9  A    between atoms: C_28  and  C_29
REMARK   10  A    between atoms: C_29  and  C_30
REMARK                            x       y       z     vdW  Elec       q    Type
REMARK                         _______ _______ _______ _____ _____    ______ ____
ROOT
ATOM     15  C   UNL     1      -1.295   1.668  24.532  0.00  0.00    +0.200 C 
ATOM     16  O   UNL     1      -1.600   1.219  23.911  0.00  0.00    -0.216 OA
ATOM     17  C   UNL     1      -0.778   1.930  25.119  0.00  0.00    +0.075 C 
ATOM     18  C   UNL     1      -0.978   2.578  25.587  0.00  0.00    +0.187 C 
ATOM     19  O   UNL     1      -0.461   2.839  26.174  0.00  0.00    -0.220 OA
ATOM     20  C   UNL     1      -1.696   2.966  25.468  0.00  0.00    +0.202 C 
ATOM     21  O   UNL     1      -1.897   3.616  25.937  0.00  0.00    -0.219 OA
ATOM     22  C   UNL     1      -2.214   2.706  24.881  0.00  0.00    +0.131 C 
ATOM     23  C   UNL     1      -2.013   2.057  24.413  0.00  0.00    +0.064 C 
ENDROOT
BRANCH  15  13
ATOM     12  N   UNL     1      -0.844   0.369  24.144  0.00  0.00    -0.195 NA
ATOM     13  C   UNL     1      -0.683   1.124  24.435  0.00  0.00    +0.269 C 
ATOM     14  O   UNL     1       0.091   1.335  24.629  0.00  0.00    -0.271 OA
BRANCH  12   4
ATOM      4  C   UNL     1      -0.232  -0.175  24.047  0.00  0.00    +0.179 C 
BRANCH   4   2
ATOM      1  N   UNL     1       1.102  -0.140  23.536  0.00  0.00    -0.086 NA
ATOM      2  C   UNL     1       0.288  -0.102  23.410  0.00  0.00    +0.281 C 
ATOM      3  O   UNL     1      -0.006   0.009  22.648  0.00  0.00    -0.270 OA
ENDBRANCH   4   2
BRANCH   4   5
ATOM      5  C   UNL     1      -0.140  -0.792  24.585  0.00  0.00    +0.057 C 
BRANCH   5   6
ATOM      6  C   UNL     1      -0.721  -1.374  24.651  0.00  0.00    -0.020 A 
ATOM      7  C   UNL     1      -0.860  -1.891  24.024  0.00  0.00    -0.004 A 
ATOM      8  C   UNL     1      -1.441  -2.473  24.090  0.00  0.00    -0.000 A 
ATOM      9  C   UNL     1      -1.883  -2.538  24.783  0.00  0.00    -0.000 A 
ATOM     10  C   UNL     1      -1.744  -2.020  25.411  0.00  0.00    -0.000 A 
ATOM     11  C   UNL     1      -1.163  -1.438  25.344  0.00  0.00    -0.004 A 
ENDBRANCH   5   6
ENDBRANCH   4   5
ENDBRANCH  12   4
ENDBRANCH  15  13
BRANCH  22  24
ATOM     24  N   UNL     1      -2.933   3.094  24.763  0.00  0.00    -0.204 NA
ATOM     25  C   UNL     1      -3.641   2.721  24.959  0.00  0.00    +0.241 C 
ATOM     26  O   UNL     1      -3.632   1.958  25.274  0.00  0.00    -0.273 OA
BRANCH  25  27
ATOM     27  C   UNL     1      -4.359   3.110  24.840  0.00  0.00    +0.087 C 
BRANCH  27  28
ATOM     28  C   UNL     1      -5.062   2.768  25.106  0.00  0.00    +0.019 C 
ATOM     33  C   UNL     1      -4.963   2.269  24.456  0.00  0.00    +0.001 C 
ATOM     34  C   UNL     1      -5.595   1.739  24.444  0.00  0.00    +0.000 C 
ATOM     35  C   UNL     1      -6.083   1.910  25.087  0.00  0.00    +0.000 C 
ATOM     36  C   UNL     1      -5.753   2.546  25.496  0.00  0.00    +0.001 C 
BRANCH  28  29
ATOM     29  C   UNL     1      -5.012   3.338  25.700  0.00  0.00    +0.115 C 
BRANCH  29  30
ATOM     30  C   UNL     1      -5.509   3.998  25.680  0.00  0.00    +0.365 C 
ATOM     31  O   UNL     1      -6.190   4.015  26.145  0.00  0.00    -0.246 OA
ATOM     32  O   UNL     1      -5.323   4.639  25.196  0.00  0.00    -0.246 OA
ENDBRANCH  29  30
ENDBRANCH  28  29
ENDBRANCH  27  28
ENDBRANCH  25  27
ENDBRANCH  22  24
TORSDOF 10
ENDMDL
