REMARK  Name = 
REMARK  5 active torsions:
REMARK  status: ('A' for Active; 'I' for Inactive)
REMARK    1  A    between atoms: C_6  and  N_7
REMARK    2  A    between atoms: C_8  and  O_10
REMARK    3  A    between atoms: O_10  and  C_11
REMARK    4  A    between atoms: C_11  and  C_12
REMARK    5  A    between atoms: C_19  and  C_20
REMARK                            x       y       z     vdW  Elec       q    Type
REMARK                         _______ _______ _______ _____ _____    ______ ____
ROOT
ATOM     10  O   UNL     1       2.018  -3.520   0.000  0.00  0.00    -0.432 OA
ENDROOT
BRANCH  10   8
ATOM      7  N   UNL     1       2.223  -4.934   0.000  0.00  0.00    -0.140 NA
ATOM      8  C   UNL     1       2.529  -4.168   0.000  0.00  0.00    +0.426 C 
ATOM      9  O   UNL     1       3.345  -4.050   0.000  0.00  0.00    -0.224 OA
BRANCH   7   6
ATOM      1  F   UNL     1       4.264  -7.527   0.000  0.00  0.00    -0.204 F 
ATOM      2  C   UNL     1       3.754  -6.878   0.000  0.00  0.00    +0.142 A 
ATOM      3  C   UNL     1       2.938  -6.996   0.000  0.00  0.00    +0.061 A 
ATOM      4  C   UNL     1       2.427  -6.348   0.000  0.00  0.00    +0.158 A 
ATOM      5  F   UNL     1       1.611  -6.466   0.000  0.00  0.00    -0.203 F 
ATOM      6  C   UNL     1       2.733  -5.582   0.000  0.00  0.00    +0.104 A 
ATOM     22  C   UNL     1       3.550  -5.464   0.000  0.00  0.00    +0.021 A 
ATOM     23  C   UNL     1       4.060  -6.112   0.000  0.00  0.00    +0.031 A 
ENDBRANCH   7   6
ENDBRANCH  10   8
BRANCH  10  11
ATOM     11  C   UNL     1       2.324  -2.754   0.000  0.00  0.00    +0.226 C 
BRANCH  11  12
ATOM     12  C   UNL     1       1.814  -2.106   0.000  0.00  0.00    +0.102 C 
ATOM     13  C   UNL     1       1.661  -1.343   0.000  0.00  0.00    +0.021 C 
ATOM     14  C   UNL     1       0.923  -1.010   0.000  0.00  0.00    +0.016 C 
ATOM     15  C   UNL     1       0.961  -0.114   0.000  0.00  0.00    +0.018 C 
ATOM     16  C   UNL     1       1.205  -0.720   0.000  0.00  0.00    +0.072 C 
ATOM     17  N   UNL     1       1.065  -1.759   0.000  0.00  0.00    -0.270 NA
ATOM     18  C   UNL     1       0.226  -2.118   0.000  0.00  0.00    +0.085 C 
ATOM     19  C   UNL     1       0.119  -1.362   0.000  0.00  0.00    +0.081 C 
BRANCH  19  20
ATOM     20  C   UNL     1      -0.602  -0.960   0.000  0.00  0.00    -0.078 C 
ATOM     21  C   UNL     1      -1.322  -0.559   0.000  0.00  0.00    -0.014 C 
ENDBRANCH  19  20
ENDBRANCH  11  12
ENDBRANCH  10  11
TORSDOF 5
