MODEL 1
REMARK VINA RESULT:      -8.0      0.000      0.000
REMARK  Name = 
REMARK  3 active torsions:
REMARK  status: ('A' for Active; 'I' for Inactive)
REMARK    1  A    between atoms: C_2  and  C_4
REMARK    2  A    between atoms: C_4  and  C_5
REMARK    3  A    between atoms: C_5  and  N_6
REMARK                            x       y       z     vdW  Elec       q    Type
REMARK                         _______ _______ _______ _____ _____    ______ ____
ROOT
ATOM      6  N   UNL     1      -4.091   0.386  24.818  0.00  0.00    -0.270 NA
ATOM      7  C   UNL     1      -3.499   0.821  24.442  0.00  0.00    +0.094 C 
ATOM      8  C   UNL     1      -3.584   1.635  24.346  0.00  0.00    +0.112 C 
ATOM      9  N   UNL     1      -4.260   2.016  24.626  0.00  0.00    -0.260 N 
ATOM     10  C   UNL     1      -4.853   1.581  25.001  0.00  0.00    +0.115 C 
ATOM     11  C   UNL     1      -5.453   2.103  25.218  0.00  0.00    +0.138 C 
ATOM     12  N   UNL     1      -5.233   2.860  24.976  0.00  0.00    -0.187 NA
ATOM     13  C   UNL     1      -4.496   2.806  24.610  0.00  0.00    +0.323 C 
ATOM     14  O   UNL     1      -4.068   3.433  24.286  0.00  0.00    -0.251 OA
ATOM     15  C   UNL     1      -4.768   0.766  25.098  0.00  0.00    +0.094 C 
ENDROOT
BRANCH   6   5
ATOM      5  C   UNL     1      -4.006  -0.430  24.914  0.00  0.00    +0.072 C 
BRANCH   5   4
ATOM      4  C   UNL     1      -3.894  -0.913  24.256  0.00  0.00    +0.017 C 
BRANCH   4   2
ATOM      1  C   UNL     1      -4.290  -2.211  23.808  0.00  0.00    +0.000 C 
ATOM      2  C   UNL     1      -3.882  -1.733  24.344  0.00  0.00    +0.001 C 
ATOM      3  C   UNL     1      -3.464  -2.076  24.966  0.00  0.00    +0.000 C 
ENDBRANCH   4   2
ENDBRANCH   5   4
ENDBRANCH   6   5
TORSDOF 3
ENDMDL
MODEL 2
REMARK VINA RESULT:      -7.6      2.141      4.022
REMARK  Name = 
REMARK  3 active torsions:
REMARK  status: ('A' for Active; 'I' for Inactive)
REMARK    1  A    between atoms: C_2  and  C_4
REMARK    2  A    between atoms: C_4  and  C_5
REMARK    3  A    between atoms: C_5  and  N_6
REMARK                            x       y       z     vdW  Elec       q    Type
REMARK                         _______ _______ _______ _____ _____    ______ ____
ROOT
ATOM      6  N   UNL     1      -3.389   3.320  24.924  0.00  0.00    -0.270 NA
ATOM      7  C   UNL     1      -4.034   3.665  25.305  0.00  0.00    +0.094 C 
ATOM      8  C   UNL     1      -4.717   3.223  25.440  0.00  0.00    +0.112 C 
ATOM      9  N   UNL     1      -4.757   2.437  25.193  0.00  0.00    -0.260 N 
ATOM     10  C   UNL     1      -4.111   2.092  24.812  0.00  0.00    +0.115 C 
ATOM     11  C   UNL     1      -4.308   1.312  24.632  0.00  0.00    +0.138 C 
ATOM     12  N   UNL     1      -5.075   1.174  24.902  0.00  0.00    -0.187 NA
ATOM     13  C   UNL     1      -5.351   1.869  25.249  0.00  0.00    +0.323 C 
ATOM     14  O   UNL     1      -6.094   1.978  25.592  0.00  0.00    -0.251 OA
ATOM     15  C   UNL     1      -3.427   2.534  24.677  0.00  0.00    +0.094 C 
ENDROOT
BRANCH   6   5
ATOM      5  C   UNL     1      -2.705   3.762  24.789  0.00  0.00    +0.072 C 
BRANCH   5   4
ATOM      4  C   UNL     1      -2.202   3.946  25.417  0.00  0.00    +0.017 C 
BRANCH   4   2
ATOM      1  C   UNL     1      -0.782   3.870  25.291  0.00  0.00    +0.000 C 
ATOM      2  C   UNL     1      -1.478   4.312  25.271  0.00  0.00    +0.001 C 
ATOM      3  C   UNL     1      -1.449   5.120  25.105  0.00  0.00    +0.000 C 
ENDBRANCH   4   2
ENDBRANCH   5   4
ENDBRANCH   6   5
TORSDOF 3
ENDMDL
MODEL 3
REMARK VINA RESULT:      -7.3      2.315      3.975
REMARK  Name = 
REMARK  3 active torsions:
REMARK  status: ('A' for Active; 'I' for Inactive)
REMARK    1  A    between atoms: C_2  and  C_4
REMARK    2  A    between atoms: C_4  and  C_5
REMARK    3  A    between atoms: C_5  and  N_6
REMARK                            x       y       z     vdW  Elec       q    Type
REMARK                         _______ _______ _______ _____ _____    ______ ____
ROOT
ATOM      6  N   UNL     1      -3.414   3.327  24.808  0.00  0.00    -0.270 NA
ATOM      7  C   UNL     1      -3.293   2.572  24.499  0.00  0.00    +0.094 C 
ATOM      8  C   UNL     1      -3.876   1.995  24.581  0.00  0.00    +0.112 C 
ATOM      9  N   UNL     1      -4.581   2.172  24.973  0.00  0.00    -0.260 N 
ATOM     10  C   UNL     1      -4.702   2.927  25.282  0.00  0.00    +0.115 C 
ATOM     11  C   UNL     1      -5.446   2.941  25.637  0.00  0.00    +0.138 C 
ATOM     12  N   UNL     1      -5.784   2.194  25.548  0.00  0.00    -0.187 NA
ATOM     13  C   UNL     1      -5.249   1.719  25.137  0.00  0.00    +0.323 C 
ATOM     14  O   UNL     1      -5.364   0.929  24.928  0.00  0.00    -0.251 OA
ATOM     15  C   UNL     1      -4.118   3.505  25.199  0.00  0.00    +0.094 C 
ENDROOT
BRANCH   6   5
ATOM      5  C   UNL     1      -2.831   3.906  24.726  0.00  0.00    +0.072 C 
BRANCH   5   4
ATOM      4  C   UNL     1      -2.299   4.046  25.340  0.00  0.00    +0.017 C 
BRANCH   4   2
ATOM      1  C   UNL     1      -1.646   5.267  24.991  0.00  0.00    +0.000 C 
ATOM      2  C   UNL     1      -1.606   4.469  25.197  0.00  0.00    +0.001 C 
ATOM      3  C   UNL     1      -0.873   4.096  25.260  0.00  0.00    +0.000 C 
ENDBRANCH   4   2
ENDBRANCH   5   4
ENDBRANCH   6   5
TORSDOF 3
ENDMDL
MODEL 4
REMARK VINA RESULT:      -7.2      1.993      3.841
REMARK  Name = 
REMARK  3 active torsions:
REMARK  status: ('A' for Active; 'I' for Inactive)
REMARK    1  A    between atoms: C_2  and  C_4
REMARK    2  A    between atoms: C_4  and  C_5
REMARK    3  A    between atoms: C_5  and  N_6
REMARK                            x       y       z     vdW  Elec       q    Type
REMARK                         _______ _______ _______ _____ _____    ______ ____
ROOT
ATOM      6  N   UNL     1      -3.760   0.039  24.374  0.00  0.00    -0.270 NA
ATOM      7  C   UNL     1      -2.973   0.005  24.618  0.00  0.00    +0.094 C 
ATOM      8  C   UNL     1      -2.593  -0.724  24.686  0.00  0.00    +0.112 C 
ATOM      9  N   UNL     1      -3.001  -1.420  24.510  0.00  0.00    -0.260 N 
ATOM     10  C   UNL     1      -3.788  -1.386  24.266  0.00  0.00    +0.115 C 
ATOM     11  C   UNL     1      -4.047  -2.157  24.132  0.00  0.00    +0.138 C 
ATOM     12  N   UNL     1      -3.419  -2.668  24.292  0.00  0.00    -0.187 NA
ATOM     13  C   UNL     1      -2.773  -2.212  24.525  0.00  0.00    +0.323 C 
ATOM     14  O   UNL     1      -2.029  -2.498  24.738  0.00  0.00    -0.251 OA
ATOM     15  C   UNL     1      -4.168  -0.656  24.198  0.00  0.00    +0.094 C 
ENDROOT
BRANCH   6   5
ATOM      5  C   UNL     1      -4.140   0.769  24.307  0.00  0.00    +0.072 C 
BRANCH   5   4
ATOM      4  C   UNL     1      -4.483   1.119  24.971  0.00  0.00    +0.017 C 
BRANCH   4   2
ATOM      1  C   UNL     1      -5.728   1.815  25.040  0.00  0.00    +0.000 C 
ATOM      2  C   UNL     1      -4.916   1.816  24.891  0.00  0.00    +0.001 C 
ATOM      3  C   UNL     1      -4.540   2.513  24.663  0.00  0.00    +0.000 C 
ENDBRANCH   4   2
ENDBRANCH   5   4
ENDBRANCH   6   5
TORSDOF 3
ENDMDL
MODEL 5
REMARK VINA RESULT:      -7.1      2.294      2.665
REMARK  Name = 
REMARK  3 active torsions:
REMARK  status: ('A' for Active; 'I' for Inactive)
REMARK    1  A    between atoms: C_2  and  C_4
REMARK    2  A    between atoms: C_4  and  C_5
REMARK    3  A    between atoms: C_5  and  N_6
REMARK                            x       y       z     vdW  Elec       q    Type
REMARK                         _______ _______ _______ _____ _____    ______ ____
ROOT
ATOM      6  N   UNL     1      -2.519  -0.202  25.126  0.00  0.00    -0.270 NA
ATOM      7  C   UNL     1      -1.775  -0.396  25.425  0.00  0.00    +0.094 C 
ATOM      8  C   UNL     1      -1.199   0.188  25.508  0.00  0.00    +0.112 C 
ATOM      9  N   UNL     1      -1.366   0.966  25.292  0.00  0.00    -0.260 N 
ATOM     10  C   UNL     1      -2.110   1.161  24.993  0.00  0.00    +0.115 C 
ATOM     11  C   UNL     1      -2.116   1.968  24.828  0.00  0.00    +0.138 C 
ATOM     12  N   UNL     1      -1.375   2.274  25.024  0.00  0.00    -0.187 NA
ATOM     13  C   UNL     1      -0.913   1.654  25.311  0.00  0.00    +0.323 C 
ATOM     14  O   UNL     1      -0.132   1.713  25.572  0.00  0.00    -0.251 OA
ATOM     15  C   UNL     1      -2.687   0.576  24.910  0.00  0.00    +0.094 C 
ENDROOT
BRANCH   6   5
ATOM      5  C   UNL     1      -3.097  -0.787  25.042  0.00  0.00    +0.072 C 
BRANCH   5   4
ATOM      4  C   UNL     1      -2.993  -1.394  24.494  0.00  0.00    +0.017 C 
BRANCH   4   2
ATOM      1  C   UNL     1      -3.527  -2.690  24.768  0.00  0.00    +0.000 C 
ATOM      2  C   UNL     1      -3.583  -1.960  24.388  0.00  0.00    +0.001 C 
ATOM      3  C   UNL     1      -4.231  -1.796  23.904  0.00  0.00    +0.000 C 
ENDBRANCH   4   2
ENDBRANCH   5   4
ENDBRANCH   6   5
TORSDOF 3
ENDMDL
MODEL 6
REMARK VINA RESULT:      -6.9      2.253      3.430
REMARK  Name = 
REMARK  3 active torsions:
REMARK  status: ('A' for Active; 'I' for Inactive)
REMARK    1  A    between atoms: C_2  and  C_4
REMARK    2  A    between atoms: C_4  and  C_5
REMARK    3  A    between atoms: C_5  and  N_6
REMARK                            x       y       z     vdW  Elec       q    Type
REMARK                         _______ _______ _______ _____ _____    ______ ____
ROOT
ATOM      6  N   UNL     1      -3.293   2.937  24.680  0.00  0.00    -0.270 NA
ATOM      7  C   UNL     1      -3.501   3.711  24.875  0.00  0.00    +0.094 C 
ATOM      8  C   UNL     1      -2.914   4.269  25.028  0.00  0.00    +0.112 C 
ATOM      9  N   UNL     1      -2.119   4.054  24.987  0.00  0.00    -0.260 N 
ATOM     10  C   UNL     1      -1.911   3.280  24.793  0.00  0.00    +0.115 C 
ATOM     11  C   UNL     1      -1.088   3.228  24.794  0.00  0.00    +0.138 C 
ATOM     12  N   UNL     1      -0.787   3.971  24.990  0.00  0.00    -0.187 NA
ATOM     13  C   UNL     1      -1.424   4.480  25.109  0.00  0.00    +0.323 C 
ATOM     14  O   UNL     1      -1.375   5.278  25.315  0.00  0.00    -0.251 OA
ATOM     15  C   UNL     1      -2.499   2.721  24.639  0.00  0.00    +0.094 C 
ENDROOT
BRANCH   6   5
ATOM      5  C   UNL     1      -3.881   2.378  24.526  0.00  0.00    +0.072 C 
BRANCH   5   4
ATOM      4  C   UNL     1      -4.322   2.061  25.147  0.00  0.00    +0.017 C 
BRANCH   4   2
ATOM      1  C   UNL     1      -5.687   1.728  24.887  0.00  0.00    +0.000 C 
ATOM      2  C   UNL     1      -4.902   1.496  24.994  0.00  0.00    +0.001 C 
ATOM      3  C   UNL     1      -4.700   0.697  24.947  0.00  0.00    +0.000 C 
ENDBRANCH   4   2
ENDBRANCH   5   4
ENDBRANCH   6   5
TORSDOF 3
ENDMDL
MODEL 7
REMARK VINA RESULT:      -6.9      3.414      4.923
REMARK  Name = 
REMARK  3 active torsions:
REMARK  status: ('A' for Active; 'I' for Inactive)
REMARK    1  A    between atoms: C_2  and  C_4
REMARK    2  A    between atoms: C_4  and  C_5
REMARK    3  A    between atoms: C_5  and  N_6
REMARK                            x       y       z     vdW  Elec       q    Type
REMARK                         _______ _______ _______ _____ _____    ______ ____
ROOT
ATOM      6  N   UNL     1      -1.366   2.041  24.760  0.00  0.00    -0.270 NA
ATOM      7  C   UNL     1      -0.846   1.906  24.134  0.00  0.00    +0.094 C 
ATOM      8  C   UNL     1      -0.525   1.156  24.019  0.00  0.00    +0.112 C 
ATOM      9  N   UNL     1      -0.723   0.539  24.530  0.00  0.00    -0.260 N 
ATOM     10  C   UNL     1      -1.243   0.674  25.157  0.00  0.00    +0.115 C 
ATOM     11  C   UNL     1      -1.336  -0.035  25.568  0.00  0.00    +0.138 C 
ATOM     12  N   UNL     1      -0.874  -0.608  25.196  0.00  0.00    -0.187 NA
ATOM     13  C   UNL     1      -0.496  -0.253  24.555  0.00  0.00    +0.323 C 
ATOM     14  O   UNL     1       0.021  -0.625  24.030  0.00  0.00    -0.251 OA
ATOM     15  C   UNL     1      -1.565   1.425  25.272  0.00  0.00    +0.094 C 
ENDROOT
BRANCH   6   5
ATOM      5  C   UNL     1      -1.688   2.793  24.875  0.00  0.00    +0.072 C 
BRANCH   5   4
ATOM      4  C   UNL     1      -1.253   3.372  25.270  0.00  0.00    +0.017 C 
BRANCH   4   2
ATOM      1  C   UNL     1      -2.284   4.246  25.731  0.00  0.00    +0.000 C 
ATOM      2  C   UNL     1      -1.559   4.133  25.353  0.00  0.00    +0.001 C 
ATOM      3  C   UNL     1      -1.142   4.781  25.058  0.00  0.00    +0.000 C 
ENDBRANCH   4   2
ENDBRANCH   5   4
ENDBRANCH   6   5
TORSDOF 3
ENDMDL
MODEL 8
REMARK VINA RESULT:      -6.7      2.561      4.082
REMARK  Name = 
REMARK  3 active torsions:
REMARK  status: ('A' for Active; 'I' for Inactive)
REMARK    1  A    between atoms: C_2  and  C_4
REMARK    2  A    between atoms: C_4  and  C_5
REMARK    3  A    between atoms: C_5  and  N_6
REMARK                            x       y       z     vdW  Elec       q    Type
REMARK                         _______ _______ _______ _____ _____    ______ ____
ROOT
ATOM      6  N   UNL     1      -2.212   1.226  24.540  0.00  0.00    -0.270 NA
ATOM      7  C   UNL     1      -1.636   1.339  23.961  0.00  0.00    +0.094 C 
ATOM      8  C   UNL     1      -1.040   0.779  23.858  0.00  0.00    +0.112 C 
ATOM      9  N   UNL     1      -1.019   0.105  24.334  0.00  0.00    -0.260 N 
ATOM     10  C   UNL     1      -1.596  -0.008  24.913  0.00  0.00    +0.115 C 
ATOM     11  C   UNL     1      -1.436  -0.720  25.297  0.00  0.00    +0.138 C 
ATOM     12  N   UNL     1      -0.760  -1.047  24.956  0.00  0.00    -0.187 NA
ATOM     13  C   UNL     1      -0.503  -0.537  24.361  0.00  0.00    +0.323 C 
ATOM     14  O   UNL     1       0.155  -0.650  23.876  0.00  0.00    -0.251 OA
ATOM     15  C   UNL     1      -2.193   0.553  25.016  0.00  0.00    +0.094 C 
ENDROOT
BRANCH   6   5
ATOM      5  C   UNL     1      -2.810   1.787  24.643  0.00  0.00    +0.072 C 
BRANCH   5   4
ATOM      4  C   UNL     1      -3.448   1.811  24.121  0.00  0.00    +0.017 C 
BRANCH   4   2
ATOM      1  C   UNL     1      -3.970   3.130  23.959  0.00  0.00    +0.000 C 
ATOM      2  C   UNL     1      -4.054   2.358  24.236  0.00  0.00    +0.001 C 
ATOM      3  C   UNL     1      -4.745   2.133  24.627  0.00  0.00    +0.000 C 
ENDBRANCH   4   2
ENDBRANCH   5   4
ENDBRANCH   6   5
TORSDOF 3
ENDMDL
MODEL 9
REMARK VINA RESULT:      -6.6      2.249      3.683
REMARK  Name = 
REMARK  3 active torsions:
REMARK  status: ('A' for Active; 'I' for Inactive)
REMARK    1  A    between atoms: C_2  and  C_4
REMARK    2  A    between atoms: C_4  and  C_5
REMARK    3  A    between atoms: C_5  and  N_6
REMARK                            x       y       z     vdW  Elec       q    Type
REMARK                         _______ _______ _______ _____ _____    ______ ____
ROOT
ATOM      6  N   UNL     1      -3.134   1.841  24.840  0.00  0.00    -0.270 NA
ATOM      7  C   UNL     1      -3.017   1.037  24.698  0.00  0.00    +0.094 C 
ATOM      8  C   UNL     1      -2.268   0.706  24.790  0.00  0.00    +0.112 C 
ATOM      9  N   UNL     1      -1.634   1.179  25.024  0.00  0.00    -0.260 N 
ATOM     10  C   UNL     1      -1.750   1.983  25.167  0.00  0.00    +0.115 C 
ATOM     11  C   UNL     1      -1.026   2.309  25.390  0.00  0.00    +0.138 C 
ATOM     12  N   UNL     1      -0.463   1.707  25.385  0.00  0.00    -0.187 NA
ATOM     13  C   UNL     1      -0.839   1.009  25.160  0.00  0.00    +0.323 C 
ATOM     14  O   UNL     1      -0.481   0.269  25.083  0.00  0.00    -0.251 OA
ATOM     15  C   UNL     1      -2.500   2.314  25.074  0.00  0.00    +0.094 C 
ENDROOT
BRANCH   6   5
ATOM      5  C   UNL     1      -3.884   2.173  24.748  0.00  0.00    +0.072 C 
BRANCH   5   4
ATOM      4  C   UNL     1      -4.477   2.011  25.298  0.00  0.00    +0.017 C 
BRANCH   4   2
ATOM      1  C   UNL     1      -5.855   1.915  24.935  0.00  0.00    +0.000 C 
ATOM      2  C   UNL     1      -5.220   2.359  25.218  0.00  0.00    +0.001 C 
ATOM      3  C   UNL     1      -5.329   3.152  25.420  0.00  0.00    +0.000 C 
ENDBRANCH   4   2
ENDBRANCH   5   4
ENDBRANCH   6   5
TORSDOF 3
ENDMDL
MODEL 10
REMARK VINA RESULT:      -6.3     19.543     20.427
REMARK  Name = 
REMARK  3 active torsions:
REMARK  status: ('A' for Active; 'I' for Inactive)
REMARK    1  A    between atoms: C_2  and  C_4
REMARK    2  A    between atoms: C_4  and  C_5
REMARK    3  A    between atoms: C_5  and  N_6
REMARK                            x       y       z     vdW  Elec       q    Type
REMARK                         _______ _______ _______ _____ _____    ______ ____
ROOT
ATOM      6  N   UNL     1      14.789   6.976  19.567  0.00  0.00    -0.270 NA
ATOM      7  C   UNL     1      14.435   6.773  20.284  0.00  0.00    +0.094 C 
ATOM      8  C   UNL     1      13.614   6.767  20.352  0.00  0.00    +0.112 C 
ATOM      9  N   UNL     1      13.144   6.964  19.703  0.00  0.00    -0.260 N 
ATOM     10  C   UNL     1      13.497   7.167  18.985  0.00  0.00    +0.115 C 
ATOM     11  C   UNL     1      12.898   7.334  18.444  0.00  0.00    +0.138 C 
ATOM     12  N   UNL     1      12.174   7.235  18.827  0.00  0.00    -0.187 NA
ATOM     13  C   UNL     1      12.327   7.006  19.604  0.00  0.00    +0.323 C 
ATOM     14  O   UNL     1      11.760   6.847  20.183  0.00  0.00    -0.251 OA
ATOM     15  C   UNL     1      14.320   7.173  18.917  0.00  0.00    +0.094 C 
ENDROOT
BRANCH   6   5
ATOM      5  C   UNL     1      15.611   6.982  19.499  0.00  0.00    +0.072 C 
BRANCH   5   4
ATOM      4  C   UNL     1      16.043   6.296  19.651  0.00  0.00    +0.017 C 
BRANCH   4   2
ATOM      1  C   UNL     1      17.371   6.702  19.985  0.00  0.00    +0.000 C 
ATOM      2  C   UNL     1      16.854   6.278  19.502  0.00  0.00    +0.001 C 
ATOM      3  C   UNL     1      17.149   5.835  18.871  0.00  0.00    +0.000 C 
ENDBRANCH   4   2
ENDBRANCH   5   4
ENDBRANCH   6   5
TORSDOF 3
ENDMDL
