REMARK  Name = 
REMARK  6 active torsions:
REMARK  status: ('A' for Active; 'I' for Inactive)
REMARK    1  A    between atoms: C_2  and  O_10
REMARK    2  A    between atoms: N_3  and  C_4
REMARK    3  A    between atoms: O_10  and  C_11
REMARK    4  A    between atoms: C_15  and  N_19
REMARK    5  A    between atoms: C_23  and  S_24
REMARK    6  A    between atoms: S_24  and  C_25
REMARK                            x       y       z     vdW  Elec       q    Type
REMARK                         _______ _______ _______ _____ _____    ______ ____
ROOT
ATOM     11  C   UNL     1       1.270  -0.922   0.000  0.00  0.00    +0.229 C 
ATOM     12  C   UNL     1       0.785  -0.255   0.000  0.00  0.00    +0.188 C 
ATOM     13  O   UNL     1       1.270   0.412   0.000  0.00  0.00    -0.348 OA
ATOM     14  C   UNL     1       2.054   0.158   0.000  0.00  0.00    +0.171 C 
ATOM     15  C   UNL     1       2.839   0.412   0.000  0.00  0.00    +0.168 C 
ATOM     16  C   UNL     1       3.324  -0.255   0.000  0.00  0.00    +0.169 C 
ATOM     17  O   UNL     1       2.839  -0.922   0.000  0.00  0.00    -0.348 OA
ATOM     18  C   UNL     1       2.054  -0.667   0.000  0.00  0.00    +0.187 C 
ENDROOT
BRANCH  15  19
ATOM     19  N   UNL     1       3.094   1.197   0.000  0.00  0.00    -0.205 N 
ATOM     20  N   UNL     1       2.609   1.865   0.000  0.00  0.00    -0.042 NA
ATOM     21  N   UNL     1       3.094   2.532   0.000  0.00  0.00    -0.022 NA
ATOM     22  N   UNL     1       3.878   2.277   0.000  0.00  0.00    -0.101 NA
ATOM     23  C   UNL     1       3.878   1.452   0.000  0.00  0.00    +0.215 A 
BRANCH  23  24
ATOM     24  S   UNL     1       4.546   0.967   0.000  0.00  0.00    -0.047 S 
BRANCH  24  25
ATOM     25  C   UNL     1       5.300   1.303   0.000  0.00  0.00    +0.032 A 
ATOM     26  C   UNL     1       5.386   2.123   0.000  0.00  0.00    +0.007 A 
ATOM     27  C   UNL     1       6.139   2.459   0.000  0.00  0.00    +0.001 A 
ATOM     28  C   UNL     1       6.807   1.974   0.000  0.00  0.00    +0.000 A 
ATOM     29  C   UNL     1       6.721   1.153   0.000  0.00  0.00    +0.001 A 
ATOM     30  C   UNL     1       5.967   0.818   0.000  0.00  0.00    +0.007 A 
ENDBRANCH  24  25
ENDBRANCH  23  24
ENDBRANCH  15  19
BRANCH  11  10
ATOM     10  O   UNL     1       1.015  -1.707   0.000  0.00  0.00    -0.432 OA
BRANCH  10   2
ATOM      1  O   UNL     1      -0.047  -2.663   0.000  0.00  0.00    -0.225 OA
ATOM      2  C   UNL     1       0.208  -1.879   0.000  0.00  0.00    +0.421 C 
ATOM      3  N   UNL     1      -0.344  -1.265   0.000  0.00  0.00    -0.170 NA
BRANCH   3   4
ATOM      4  C   UNL     1      -1.151  -1.437   0.000  0.00  0.00    +0.099 C 
ATOM      5  C   UNL     1      -1.406  -2.222   0.000  0.00  0.00    +0.022 C 
ATOM      6  C   UNL     1      -2.213  -2.393   0.000  0.00  0.00    +0.002 C 
ATOM      7  C   UNL     1      -2.765  -1.780   0.000  0.00  0.00    +0.000 C 
ATOM      8  C   UNL     1      -2.510  -0.995   0.000  0.00  0.00    +0.002 C 
ATOM      9  C   UNL     1      -1.703  -0.824   0.000  0.00  0.00    +0.022 C 
ENDBRANCH   3   4
ENDBRANCH  10   2
ENDBRANCH  11  10
TORSDOF 6
