MODEL 1
REMARK VINA RESULT:     -13.9      0.000      0.000
REMARK  Name = 
REMARK  4 active torsions:
REMARK  status: ('A' for Active; 'I' for Inactive)
REMARK    1  A    between atoms: C_7  and  C_9
REMARK    2  A    between atoms: N_12  and  C_13
REMARK    3  A    between atoms: C_13  and  C_14
REMARK    4  A    between atoms: C_17  and  C_20
REMARK                            x       y       z     vdW  Elec       q    Type
REMARK                         _______ _______ _______ _____ _____    ______ ____
ROOT
ATOM      9  C   UNL     1      -4.628   1.105  25.013  0.00  0.00    +0.076 C 
ATOM     10  C   UNL     1      -5.239   1.362  25.503  0.00  0.00    +0.026 C 
ATOM     11  C   UNL     1      -5.267   2.186  25.468  0.00  0.00    +0.073 C 
ATOM     12  N   UNL     1      -4.672   2.438  24.955  0.00  0.00    -0.269 NA
ATOM     24  C   UNL     1      -4.277   1.770  24.674  0.00  0.00    +0.080 C 
ENDROOT
BRANCH   9   7
ATOM      1  C   UNL     1      -3.132  -2.943  25.093  0.00  0.00    +0.031 C 
ATOM      2  C   UNL     1      -3.502  -2.254  24.833  0.00  0.00    -0.020 A 
ATOM      3  C   UNL     1      -3.516  -1.586  25.316  0.00  0.00    +0.016 A 
ATOM      4  C   UNL     1      -3.886  -0.896  25.057  0.00  0.00    +0.100 A 
ATOM      5  C   UNL     1      -4.244  -0.875  24.314  0.00  0.00    +0.100 A 
ATOM      6  N   UNL     1      -4.565  -0.123  24.207  0.00  0.00    -0.229 NA
ATOM      7  C   UNL     1      -4.406   0.321  24.884  0.00  0.00    +0.140 A 
ATOM      8  N   UNL     1      -3.987  -0.157  25.408  0.00  0.00    -0.229 NA
ATOM     25  C   UNL     1      -4.231  -1.544  23.830  0.00  0.00    +0.020 A 
ATOM     26  C   UNL     1      -3.860  -2.233  24.090  0.00  0.00    -0.003 A 
ENDBRANCH   9   7
BRANCH  12  13
ATOM     13  C   UNL     1      -4.502   3.221  24.758  0.00  0.00    +0.099 C 
BRANCH  13  14
ATOM     14  C   UNL     1      -3.753   3.532  24.913  0.00  0.00    -0.006 A 
ATOM     15  C   UNL     1      -3.577   3.829  25.663  0.00  0.00    -0.003 A 
ATOM     16  C   UNL     1      -2.829   4.140  25.817  0.00  0.00    +0.004 A 
ATOM     17  C   UNL     1      -2.257   4.155  25.223  0.00  0.00    +0.071 A 
ATOM     18  C   UNL     1      -2.433   3.858  24.473  0.00  0.00    +0.004 A 
ATOM     19  C   UNL     1      -3.182   3.547  24.318  0.00  0.00    -0.003 A 
BRANCH  17  20
ATOM     20  C   UNL     1      -1.510   4.466  25.378  0.00  0.00    +0.419 C 
ATOM     21  F   UNL     1      -0.761   4.779  25.533  0.00  0.00    -0.166 F 
ATOM     22  F   UNL     1      -1.771   5.212  25.139  0.00  0.00    -0.166 F 
ATOM     23  F   UNL     1      -1.249   3.722  25.616  0.00  0.00    -0.166 F 
ENDBRANCH  17  20
ENDBRANCH  13  14
ENDBRANCH  12  13
TORSDOF 4
ENDMDL
MODEL 2
REMARK VINA RESULT:     -13.5      2.565      5.421
REMARK  Name = 
REMARK  4 active torsions:
REMARK  status: ('A' for Active; 'I' for Inactive)
REMARK    1  A    between atoms: C_7  and  C_9
REMARK    2  A    between atoms: N_12  and  C_13
REMARK    3  A    between atoms: C_13  and  C_14
REMARK    4  A    between atoms: C_17  and  C_20
REMARK                            x       y       z     vdW  Elec       q    Type
REMARK                         _______ _______ _______ _____ _____    ______ ____
ROOT
ATOM      9  C   UNL     1      -3.546   2.022  24.766  0.00  0.00    +0.076 C 
ATOM     10  C   UNL     1      -4.176   2.035  24.234  0.00  0.00    +0.026 C 
ATOM     11  C   UNL     1      -4.633   1.361  24.362  0.00  0.00    +0.073 C 
ATOM     12  N   UNL     1      -4.286   0.930  24.974  0.00  0.00    -0.269 NA
ATOM     24  C   UNL     1      -3.614   1.339  25.224  0.00  0.00    +0.080 C 
ENDROOT
BRANCH   9   7
ATOM      1  C   UNL     1      -1.068   5.543  25.070  0.00  0.00    +0.031 C 
ATOM      2  C   UNL     1      -1.297   4.753  25.026  0.00  0.00    -0.020 A 
ATOM      3  C   UNL     1      -2.095   4.558  24.960  0.00  0.00    +0.016 A 
ATOM      4  C   UNL     1      -2.325   3.766  24.916  0.00  0.00    +0.100 A 
ATOM      5  C   UNL     1      -1.755   3.170  24.938  0.00  0.00    +0.100 A 
ATOM      6  N   UNL     1      -2.143   2.444  24.885  0.00  0.00    -0.229 NA
ATOM      7  C   UNL     1      -2.952   2.592  24.829  0.00  0.00    +0.140 A 
ATOM      8  N   UNL     1      -3.064   3.409  24.849  0.00  0.00    -0.229 NA
ATOM     25  C   UNL     1      -0.955   3.365  25.004  0.00  0.00    +0.020 A 
ATOM     26  C   UNL     1      -0.727   4.157  25.048  0.00  0.00    -0.003 A 
ENDBRANCH   9   7
BRANCH  12  13
ATOM     13  C   UNL     1      -4.561   0.217  25.283  0.00  0.00    +0.099 C 
BRANCH  13  14
ATOM     14  C   UNL     1      -4.200  -0.493  25.067  0.00  0.00    -0.006 A 
ATOM     15  C   UNL     1      -4.367  -0.835  24.334  0.00  0.00    -0.003 A 
ATOM     16  C   UNL     1      -4.006  -1.545  24.120  0.00  0.00    +0.004 A 
ATOM     17  C   UNL     1      -3.479  -1.913  24.636  0.00  0.00    +0.071 A 
ATOM     18  C   UNL     1      -3.312  -1.571  25.368  0.00  0.00    +0.004 A 
ATOM     19  C   UNL     1      -3.673  -0.861  25.584  0.00  0.00    -0.003 A 
BRANCH  17  20
ATOM     20  C   UNL     1      -3.118  -2.623  24.420  0.00  0.00    +0.419 C 
ATOM     21  F   UNL     1      -2.758  -3.334  24.205  0.00  0.00    -0.166 F 
ATOM     22  F   UNL     1      -3.703  -3.043  24.824  0.00  0.00    -0.166 F 
ATOM     23  F   UNL     1      -2.534  -2.203  24.017  0.00  0.00    -0.166 F 
ENDBRANCH  17  20
ENDBRANCH  13  14
ENDBRANCH  12  13
TORSDOF 4
ENDMDL
MODEL 3
REMARK VINA RESULT:     -13.5      3.123      5.903
REMARK  Name = 
REMARK  4 active torsions:
REMARK  status: ('A' for Active; 'I' for Inactive)
REMARK    1  A    between atoms: C_7  and  C_9
REMARK    2  A    between atoms: N_12  and  C_13
REMARK    3  A    between atoms: C_13  and  C_14
REMARK    4  A    between atoms: C_17  and  C_20
REMARK                            x       y       z     vdW  Elec       q    Type
REMARK                         _______ _______ _______ _____ _____    ______ ____
ROOT
ATOM      9  C   UNL     1      -1.141   1.089  25.142  0.00  0.00    +0.076 C 
ATOM     10  C   UNL     1      -0.573   0.702  24.687  0.00  0.00    +0.026 C 
ATOM     11  C   UNL     1      -0.641  -0.108  24.827  0.00  0.00    +0.073 C 
ATOM     12  N   UNL     1      -1.252  -0.222  25.369  0.00  0.00    -0.269 NA
ATOM     24  C   UNL     1      -1.561   0.519  25.564  0.00  0.00    +0.080 C 
ENDROOT
BRANCH   9   7
ATOM      1  C   UNL     1      -1.033   5.402  24.982  0.00  0.00    +0.031 C 
ATOM      2  C   UNL     1      -1.301   4.633  25.111  0.00  0.00    -0.020 A 
ATOM      3  C   UNL     1      -0.815   3.991  24.933  0.00  0.00    +0.016 A 
ATOM      4  C   UNL     1      -1.083   3.221  25.061  0.00  0.00    +0.100 A 
ATOM      5  C   UNL     1      -1.838   3.094  25.367  0.00  0.00    +0.100 A 
ATOM      6  N   UNL     1      -1.952   2.280  25.435  0.00  0.00    -0.229 NA
ATOM      7  C   UNL     1      -1.267   1.904  25.171  0.00  0.00    +0.140 A 
ATOM      8  N   UNL     1      -0.730   2.486  24.940  0.00  0.00    -0.229 NA
ATOM     25  C   UNL     1      -2.325   3.736  25.545  0.00  0.00    +0.020 A 
ATOM     26  C   UNL     1      -2.056   4.505  25.417  0.00  0.00    -0.003 A 
ENDBRANCH   9   7
BRANCH  12  13
ATOM     13  C   UNL     1      -1.510  -0.947  25.665  0.00  0.00    +0.099 C 
BRANCH  13  14
ATOM     14  C   UNL     1      -2.123  -1.353  25.289  0.00  0.00    -0.006 A 
ATOM     15  C   UNL     1      -2.907  -1.201  25.498  0.00  0.00    -0.003 A 
ATOM     16  C   UNL     1      -3.519  -1.606  25.122  0.00  0.00    +0.004 A 
ATOM     17  C   UNL     1      -3.348  -2.163  24.538  0.00  0.00    +0.071 A 
ATOM     18  C   UNL     1      -2.564  -2.315  24.330  0.00  0.00    +0.004 A 
ATOM     19  C   UNL     1      -1.951  -1.910  24.705  0.00  0.00    -0.003 A 
BRANCH  17  20
ATOM     20  C   UNL     1      -3.960  -2.568  24.163  0.00  0.00    +0.419 C 
ATOM     21  F   UNL     1      -4.573  -2.973  23.786  0.00  0.00    -0.166 F 
ATOM     22  F   UNL     1      -4.130  -1.896  23.714  0.00  0.00    -0.166 F 
ATOM     23  F   UNL     1      -3.791  -3.239  24.610  0.00  0.00    -0.166 F 
ENDBRANCH  17  20
ENDBRANCH  13  14
ENDBRANCH  12  13
TORSDOF 4
ENDMDL
MODEL 4
REMARK VINA RESULT:     -13.5      1.868      2.564
REMARK  Name = 
REMARK  4 active torsions:
REMARK  status: ('A' for Active; 'I' for Inactive)
REMARK    1  A    between atoms: C_7  and  C_9
REMARK    2  A    between atoms: N_12  and  C_13
REMARK    3  A    between atoms: C_13  and  C_14
REMARK    4  A    between atoms: C_17  and  C_20
REMARK                            x       y       z     vdW  Elec       q    Type
REMARK                         _______ _______ _______ _____ _____    ______ ____
ROOT
ATOM      9  C   UNL     1      -1.403   0.442  24.786  0.00  0.00    +0.076 C 
ATOM     10  C   UNL     1      -0.698   0.509  24.363  0.00  0.00    +0.026 C 
ATOM     11  C   UNL     1      -0.264   1.132  24.687  0.00  0.00    +0.073 C 
ATOM     12  N   UNL     1      -0.701   1.449  25.311  0.00  0.00    -0.269 NA
ATOM     24  C   UNL     1      -1.405   1.022  25.372  0.00  0.00    +0.080 C 
ENDROOT
BRANCH   9   7
ATOM      1  C   UNL     1      -3.953  -3.002  24.269  0.00  0.00    +0.031 C 
ATOM      2  C   UNL     1      -3.695  -2.220  24.292  0.00  0.00    -0.020 A 
ATOM      3  C   UNL     1      -2.919  -2.047  24.509  0.00  0.00    +0.016 A 
ATOM      4  C   UNL     1      -2.660  -1.264  24.532  0.00  0.00    +0.100 A 
ATOM      5  C   UNL     1      -3.178  -0.653  24.336  0.00  0.00    +0.100 A 
ATOM      6  N   UNL     1      -2.771   0.060  24.408  0.00  0.00    -0.229 NA
ATOM      7  C   UNL     1      -2.000  -0.110  24.647  0.00  0.00    +0.140 A 
ATOM      8  N   UNL     1      -1.932  -0.928  24.724  0.00  0.00    -0.229 NA
ATOM     25  C   UNL     1      -3.956  -0.825  24.118  0.00  0.00    +0.020 A 
ATOM     26  C   UNL     1      -4.214  -1.609  24.096  0.00  0.00    -0.003 A 
ENDBRANCH   9   7
BRANCH  12  13
ATOM     13  C   UNL     1      -0.475   2.081  25.789  0.00  0.00    +0.099 C 
BRANCH  13  14
ATOM     14  C   UNL     1      -0.726   2.847  25.609  0.00  0.00    -0.006 A 
ATOM     15  C   UNL     1      -0.311   3.298  25.056  0.00  0.00    -0.003 A 
ATOM     16  C   UNL     1      -0.562   4.062  24.877  0.00  0.00    +0.004 A 
ATOM     17  C   UNL     1      -1.228   4.377  25.248  0.00  0.00    +0.071 A 
ATOM     18  C   UNL     1      -1.644   3.925  25.801  0.00  0.00    +0.004 A 
ATOM     19  C   UNL     1      -1.392   3.160  25.981  0.00  0.00    -0.003 A 
BRANCH  17  20
ATOM     20  C   UNL     1      -1.479   5.141  25.068  0.00  0.00    +0.419 C 
ATOM     21  F   UNL     1      -1.729   5.907  24.888  0.00  0.00    -0.166 F 
ATOM     22  F   UNL     1      -0.696   5.401  25.081  0.00  0.00    -0.166 F 
ATOM     23  F   UNL     1      -2.261   4.881  25.055  0.00  0.00    -0.166 F 
ENDBRANCH  17  20
ENDBRANCH  13  14
ENDBRANCH  12  13
TORSDOF 4
ENDMDL
MODEL 5
REMARK VINA RESULT:     -11.8      2.053      2.643
REMARK  Name = 
REMARK  4 active torsions:
REMARK  status: ('A' for Active; 'I' for Inactive)
REMARK    1  A    between atoms: C_7  and  C_9
REMARK    2  A    between atoms: N_12  and  C_13
REMARK    3  A    between atoms: C_13  and  C_14
REMARK    4  A    between atoms: C_17  and  C_20
REMARK                            x       y       z     vdW  Elec       q    Type
REMARK                         _______ _______ _______ _____ _____    ______ ____
ROOT
ATOM      9  C   UNL     1      -1.881   0.807  24.945  0.00  0.00    +0.076 C 
ATOM     10  C   UNL     1      -1.251   1.126  25.370  0.00  0.00    +0.026 C 
ATOM     11  C   UNL     1      -1.298   1.948  25.320  0.00  0.00    +0.073 C 
ATOM     12  N   UNL     1      -1.958   2.137  24.863  0.00  0.00    -0.269 NA
ATOM     24  C   UNL     1      -2.319   1.432  24.631  0.00  0.00    +0.080 C 
ENDROOT
BRANCH   9   7
ATOM      1  C   UNL     1      -3.531  -3.162  24.543  0.00  0.00    +0.031 C 
ATOM      2  C   UNL     1      -2.986  -2.544  24.583  0.00  0.00    -0.020 A 
ATOM      3  C   UNL     1      -3.247  -1.772  24.707  0.00  0.00    +0.016 A 
ATOM      4  C   UNL     1      -2.702  -1.153  24.747  0.00  0.00    +0.100 A 
ATOM      5  C   UNL     1      -1.896  -1.308  24.662  0.00  0.00    +0.100 A 
ATOM      6  N   UNL     1      -1.491  -0.593  24.726  0.00  0.00    -0.229 NA
ATOM      7  C   UNL     1      -2.046   0.004  24.850  0.00  0.00    +0.140 A 
ATOM      8  N   UNL     1      -2.794  -0.343  24.863  0.00  0.00    -0.229 NA
ATOM     25  C   UNL     1      -1.635  -2.082  24.538  0.00  0.00    +0.020 A 
ATOM     26  C   UNL     1      -2.181  -2.699  24.498  0.00  0.00    -0.003 A 
ENDBRANCH   9   7
BRANCH  12  13
ATOM     13  C   UNL     1      -2.214   2.898  24.671  0.00  0.00    +0.099 C 
BRANCH  13  14
ATOM     14  C   UNL     1      -2.975   3.142  24.876  0.00  0.00    -0.006 A 
ATOM     15  C   UNL     1      -3.115   3.473  25.620  0.00  0.00    -0.003 A 
ATOM     16  C   UNL     1      -3.876   3.717  25.824  0.00  0.00    +0.004 A 
ATOM     17  C   UNL     1      -4.496   3.631  25.288  0.00  0.00    +0.071 A 
ATOM     18  C   UNL     1      -4.355   3.301  24.545  0.00  0.00    +0.004 A 
ATOM     19  C   UNL     1      -3.594   3.056  24.339  0.00  0.00    -0.003 A 
BRANCH  17  20
ATOM     20  C   UNL     1      -5.256   3.876  25.493  0.00  0.00    +0.419 C 
ATOM     21  F   UNL     1      -6.017   4.119  25.700  0.00  0.00    -0.166 F 
ATOM     22  F   UNL     1      -5.388   3.151  25.865  0.00  0.00    -0.166 F 
ATOM     23  F   UNL     1      -5.124   4.600  25.122  0.00  0.00    -0.166 F 
ENDBRANCH  17  20
ENDBRANCH  13  14
ENDBRANCH  12  13
TORSDOF 4
ENDMDL
