MODEL 1
REMARK VINA RESULT:     -11.1      0.000      0.000
REMARK  Name = 
REMARK  8 active torsions:
REMARK  status: ('A' for Active; 'I' for Inactive)
REMARK    1  A    between atoms: O_2  and  C_3
REMARK    2  A    between atoms: C_3  and  C_4
REMARK    3  A    between atoms: N_6  and  C_7
REMARK    4  A    between atoms: C_14  and  C_15
REMARK    5  A    between atoms: C_15  and  C_17
REMARK    6  A    between atoms: N_19  and  C_20
REMARK    7  A    between atoms: C_20  and  C_21
REMARK    8  A    between atoms: C_22  and  O_23
REMARK                            x       y       z     vdW  Elec       q    Type
REMARK                         _______ _______ _______ _____ _____    ______ ____
ROOT
ATOM      7  C   UNL     1      -4.030  -0.343  24.352  0.00  0.00    +0.095 C 
ATOM      8  C   UNL     1      -4.671  -0.457  24.859  0.00  0.00    +0.022 C 
ATOM      9  C   UNL     1      -5.081   0.194  25.158  0.00  0.00    +0.002 C 
ATOM     10  C   UNL     1      -4.851   0.958  24.950  0.00  0.00    +0.002 C 
ATOM     11  C   UNL     1      -5.491   0.844  25.458  0.00  0.00    +0.000 C 
ATOM     12  C   UNL     1      -5.261   1.609  25.249  0.00  0.00    +0.000 C 
ATOM     13  C   UNL     1      -5.031   2.373  25.041  0.00  0.00    +0.003 C 
ATOM     14  C   UNL     1      -4.391   2.487  24.534  0.00  0.00    +0.039 C 
ATOM     29  C   UNL     1      -3.980   1.837  24.234  0.00  0.00    +0.152 C 
ATOM     30  O   UNL     1      -3.340   1.951  23.728  0.00  0.00    -0.223 OA
ATOM     31  C   UNL     1      -4.210   1.072  24.443  0.00  0.00    +0.032 C 
ATOM     32  C   UNL     1      -3.800   0.422  24.143  0.00  0.00    +0.022 C 
ATOM     33  C   UNL     1      -3.160   0.536  23.637  0.00  0.00    +0.002 C 
ENDROOT
BRANCH   7   6
ATOM      4  C   UNL     1      -3.397  -1.607  24.557  0.00  0.00    +0.272 C 
ATOM      5  O   UNL     1      -3.586  -1.572  25.359  0.00  0.00    -0.271 OA
ATOM      6  N   UNL     1      -3.619  -0.992  24.053  0.00  0.00    -0.205 NA
BRANCH   4   3
ATOM      3  C   UNL     1      -2.987  -2.257  24.257  0.00  0.00    +0.229 C 
BRANCH   3   2
ATOM      1  C   UNL     1      -1.714  -2.906  24.247  0.00  0.00    +0.175 C 
ATOM      2  O   UNL     1      -2.332  -2.554  24.664  0.00  0.00    -0.342 OA
ENDBRANCH   3   2
ENDBRANCH   4   3
ENDBRANCH   7   6
BRANCH  14  15
ATOM     15  C   UNL     1      -4.160   3.251  24.325  0.00  0.00    +0.081 C 
ATOM     16  C   UNL     1      -4.345   3.548  23.579  0.00  0.00    +0.010 C 
BRANCH  15  17
ATOM     17  C   UNL     1      -3.744   3.717  24.864  0.00  0.00    +0.241 C 
ATOM     18  O   UNL     1      -4.150   4.127  25.454  0.00  0.00    -0.273 OA
ATOM     19  N   UNL     1      -2.922   3.774  24.813  0.00  0.00    -0.200 NA
BRANCH  19  20
ATOM     20  C   UNL     1      -2.507   4.240  25.352  0.00  0.00    +0.144 C 
BRANCH  20  21
ATOM     21  C   UNL     1      -1.723   4.448  25.198  0.00  0.00    +0.033 A 
ATOM     22  C   UNL     1      -1.109   3.966  25.466  0.00  0.00    +0.136 A 
ATOM     25  C   UNL     1      -0.326   4.174  25.313  0.00  0.00    +0.037 A 
ATOM     26  C   UNL     1      -0.156   4.862  24.892  0.00  0.00    +0.003 A 
ATOM     27  C   UNL     1      -0.770   5.344  24.624  0.00  0.00    -0.000 A 
ATOM     28  C   UNL     1      -1.554   5.136  24.778  0.00  0.00    +0.000 A 
BRANCH  22  23
ATOM     23  O   UNL     1      -1.278   3.277  25.887  0.00  0.00    -0.472 OA
ATOM     24  C   UNL     1      -0.666   2.777  26.123  0.00  0.00    +0.252 C 
ENDBRANCH  22  23
ENDBRANCH  20  21
ENDBRANCH  19  20
ENDBRANCH  15  17
ENDBRANCH  14  15
TORSDOF 8
ENDMDL
MODEL 2
REMARK VINA RESULT:     -10.8      1.889      3.616
REMARK  Name = 
REMARK  8 active torsions:
REMARK  status: ('A' for Active; 'I' for Inactive)
REMARK    1  A    between atoms: O_2  and  C_3
REMARK    2  A    between atoms: C_3  and  C_4
REMARK    3  A    between atoms: N_6  and  C_7
REMARK    4  A    between atoms: C_14  and  C_15
REMARK    5  A    between atoms: C_15  and  C_17
REMARK    6  A    between atoms: N_19  and  C_20
REMARK    7  A    between atoms: C_20  and  C_21
REMARK    8  A    between atoms: C_22  and  O_23
REMARK                            x       y       z     vdW  Elec       q    Type
REMARK                         _______ _______ _______ _____ _____    ______ ____
ROOT
ATOM      7  C   UNL     1      -0.838  -0.881  24.696  0.00  0.00    +0.095 C 
ATOM      8  C   UNL     1      -0.395  -0.875  24.000  0.00  0.00    +0.022 C 
ATOM      9  C   UNL     1      -0.029  -0.180  23.750  0.00  0.00    +0.002 C 
ATOM     10  C   UNL     1      -0.104   0.510  24.196  0.00  0.00    +0.002 C 
ATOM     11  C   UNL     1       0.338   0.515  23.499  0.00  0.00    +0.000 C 
ATOM     12  C   UNL     1       0.263   1.206  23.946  0.00  0.00    +0.000 C 
ATOM     13  C   UNL     1       0.187   1.895  24.391  0.00  0.00    +0.003 C 
ATOM     14  C   UNL     1      -0.255   1.890  25.088  0.00  0.00    +0.039 C 
ATOM     29  C   UNL     1      -0.622   1.195  25.339  0.00  0.00    +0.152 C 
ATOM     30  O   UNL     1      -1.064   1.189  26.034  0.00  0.00    -0.223 OA
ATOM     31  C   UNL     1      -0.546   0.504  24.892  0.00  0.00    +0.032 C 
ATOM     32  C   UNL     1      -0.913  -0.190  25.143  0.00  0.00    +0.022 C 
ATOM     33  C   UNL     1      -1.355  -0.196  25.838  0.00  0.00    +0.002 C 
ENDROOT
BRANCH   7   6
ATOM      4  C   UNL     1      -1.778  -1.933  24.473  0.00  0.00    +0.272 C 
ATOM      5  O   UNL     1      -1.984  -1.596  23.748  0.00  0.00    -0.271 OA
ATOM      6  N   UNL     1      -1.205  -1.576  24.947  0.00  0.00    -0.205 NA
BRANCH   4   3
ATOM      3  C   UNL     1      -2.145  -2.628  24.723  0.00  0.00    +0.229 C 
BRANCH   3   2
ATOM      1  C   UNL     1      -3.433  -3.241  24.813  0.00  0.00    +0.175 C 
ATOM      2  O   UNL     1      -2.845  -2.878  24.363  0.00  0.00    -0.342 OA
ENDBRANCH   3   2
ENDBRANCH   4   3
ENDBRANCH   7   6
BRANCH  14  15
ATOM     15  C   UNL     1      -0.331   2.579  25.534  0.00  0.00    +0.081 C 
ATOM     16  C   UNL     1       0.070   2.653  26.250  0.00  0.00    +0.010 C 
BRANCH  15  17
ATOM     17  C   UNL     1      -0.809   3.195  25.263  0.00  0.00    +0.241 C 
ATOM     18  O   UNL     1      -0.477   3.817  24.835  0.00  0.00    -0.273 OA
ATOM     19  N   UNL     1      -1.619   3.188  25.421  0.00  0.00    -0.200 NA
BRANCH  19  20
ATOM     20  C   UNL     1      -2.097   3.804  25.150  0.00  0.00    +0.144 C 
BRANCH  20  21
ATOM     21  C   UNL     1      -2.901   3.813  25.336  0.00  0.00    +0.033 A 
ATOM     22  C   UNL     1      -3.459   3.629  24.757  0.00  0.00    +0.136 A 
ATOM     25  C   UNL     1      -4.263   3.638  24.942  0.00  0.00    +0.037 A 
ATOM     26  C   UNL     1      -4.508   3.832  25.705  0.00  0.00    +0.003 A 
ATOM     27  C   UNL     1      -3.950   4.017  26.284  0.00  0.00    -0.000 A 
ATOM     28  C   UNL     1      -3.146   4.007  26.098  0.00  0.00    +0.000 A 
BRANCH  22  23
ATOM     23  O   UNL     1      -3.214   3.435  23.993  0.00  0.00    -0.472 OA
ATOM     24  C   UNL     1      -3.756   3.127  23.452  0.00  0.00    +0.252 C 
ENDBRANCH  22  23
ENDBRANCH  20  21
ENDBRANCH  19  20
ENDBRANCH  15  17
ENDBRANCH  14  15
TORSDOF 8
ENDMDL
MODEL 3
REMARK VINA RESULT:     -10.8      1.046      4.989
REMARK  Name = 
REMARK  8 active torsions:
REMARK  status: ('A' for Active; 'I' for Inactive)
REMARK    1  A    between atoms: O_2  and  C_3
REMARK    2  A    between atoms: C_3  and  C_4
REMARK    3  A    between atoms: N_6  and  C_7
REMARK    4  A    between atoms: C_14  and  C_15
REMARK    5  A    between atoms: C_15  and  C_17
REMARK    6  A    between atoms: N_19  and  C_20
REMARK    7  A    between atoms: C_20  and  C_21
REMARK    8  A    between atoms: C_22  and  O_23
REMARK                            x       y       z     vdW  Elec       q    Type
REMARK                         _______ _______ _______ _____ _____    ______ ____
ROOT
ATOM      7  C   UNL     1      -3.590   3.657  24.866  0.00  0.00    +0.095 C 
ATOM      8  C   UNL     1      -4.216   3.913  25.339  0.00  0.00    +0.022 C 
ATOM      9  C   UNL     1      -4.793   3.377  25.584  0.00  0.00    +0.002 C 
ATOM     10  C   UNL     1      -4.744   2.585  25.358  0.00  0.00    +0.002 C 
ATOM     11  C   UNL     1      -5.370   2.841  25.830  0.00  0.00    +0.000 C 
ATOM     12  C   UNL     1      -5.321   2.049  25.603  0.00  0.00    +0.000 C 
ATOM     13  C   UNL     1      -5.273   1.258  25.376  0.00  0.00    +0.003 C 
ATOM     14  C   UNL     1      -4.647   1.002  24.904  0.00  0.00    +0.039 C 
ATOM     29  C   UNL     1      -4.070   1.537  24.658  0.00  0.00    +0.152 C 
ATOM     30  O   UNL     1      -3.445   1.282  24.186  0.00  0.00    -0.223 OA
ATOM     31  C   UNL     1      -4.118   2.330  24.885  0.00  0.00    +0.032 C 
ATOM     32  C   UNL     1      -3.541   2.865  24.639  0.00  0.00    +0.022 C 
ATOM     33  C   UNL     1      -2.916   2.609  24.167  0.00  0.00    +0.002 C 
ENDROOT
BRANCH   7   6
ATOM      4  C   UNL     1      -2.534   4.568  25.179  0.00  0.00    +0.272 C 
ATOM      5  O   UNL     1      -2.635   4.409  25.982  0.00  0.00    -0.271 OA
ATOM      6  N   UNL     1      -3.012   4.192  24.620  0.00  0.00    -0.205 NA
BRANCH   4   3
ATOM      3  C   UNL     1      -1.957   5.104  24.933  0.00  0.00    +0.229 C 
BRANCH   3   2
ATOM      1  C   UNL     1      -0.547   5.306  24.816  0.00  0.00    +0.175 C 
ATOM      2  O   UNL     1      -1.201   5.074  25.263  0.00  0.00    -0.342 OA
ENDBRANCH   3   2
ENDBRANCH   4   3
ENDBRANCH   7   6
BRANCH  14  15
ATOM     15  C   UNL     1      -4.598   0.211  24.676  0.00  0.00    +0.081 C 
ATOM     16  C   UNL     1      -4.961  -0.042  23.981  0.00  0.00    +0.010 C 
BRANCH  15  17
ATOM     17  C   UNL     1      -4.185  -0.328  25.146  0.00  0.00    +0.241 C 
ATOM     18  O   UNL     1      -4.360  -0.395  25.949  0.00  0.00    -0.273 OA
ATOM     19  N   UNL     1      -3.596  -0.800  24.812  0.00  0.00    -0.200 NA
BRANCH  19  20
ATOM     20  C   UNL     1      -3.184  -1.339  25.281  0.00  0.00    +0.144 C 
BRANCH  20  21
ATOM     21  C   UNL     1      -2.654  -1.867  24.934  0.00  0.00    +0.033 A 
ATOM     22  C   UNL     1      -1.842  -1.768  25.042  0.00  0.00    +0.136 A 
ATOM     25  C   UNL     1      -1.312  -2.296  24.694  0.00  0.00    +0.037 A 
ATOM     26  C   UNL     1      -1.594  -2.922  24.239  0.00  0.00    +0.003 A 
ATOM     27  C   UNL     1      -2.405  -3.022  24.130  0.00  0.00    -0.000 A 
ATOM     28  C   UNL     1      -2.936  -2.493  24.478  0.00  0.00    +0.000 A 
BRANCH  22  23
ATOM     23  O   UNL     1      -1.560  -1.141  25.499  0.00  0.00    -0.472 OA
ATOM     24  C   UNL     1      -0.747  -1.031  25.590  0.00  0.00    +0.252 C 
ENDBRANCH  22  23
ENDBRANCH  20  21
ENDBRANCH  19  20
ENDBRANCH  15  17
ENDBRANCH  14  15
TORSDOF 8
ENDMDL
MODEL 4
REMARK VINA RESULT:     -10.7      1.784      5.442
REMARK  Name = 
REMARK  8 active torsions:
REMARK  status: ('A' for Active; 'I' for Inactive)
REMARK    1  A    between atoms: O_2  and  C_3
REMARK    2  A    between atoms: C_3  and  C_4
REMARK    3  A    between atoms: N_6  and  C_7
REMARK    4  A    between atoms: C_14  and  C_15
REMARK    5  A    between atoms: C_15  and  C_17
REMARK    6  A    between atoms: N_19  and  C_20
REMARK    7  A    between atoms: C_20  and  C_21
REMARK    8  A    between atoms: C_22  and  O_23
REMARK                            x       y       z     vdW  Elec       q    Type
REMARK                         _______ _______ _______ _____ _____    ______ ____
ROOT
ATOM      7  C   UNL     1      -2.774   3.463  25.079  0.00  0.00    +0.095 C 
ATOM      8  C   UNL     1      -2.310   3.738  25.703  0.00  0.00    +0.022 C 
ATOM      9  C   UNL     1      -1.603   3.356  25.890  0.00  0.00    +0.002 C 
ATOM     10  C   UNL     1      -1.360   2.700  25.454  0.00  0.00    +0.002 C 
ATOM     11  C   UNL     1      -0.895   2.975  26.078  0.00  0.00    +0.000 C 
ATOM     12  C   UNL     1      -0.652   2.318  25.640  0.00  0.00    +0.000 C 
ATOM     13  C   UNL     1      -0.410   1.663  25.204  0.00  0.00    +0.003 C 
ATOM     14  C   UNL     1      -0.874   1.388  24.580  0.00  0.00    +0.039 C 
ATOM     29  C   UNL     1      -1.581   1.769  24.392  0.00  0.00    +0.152 C 
ATOM     30  O   UNL     1      -2.045   1.494  23.769  0.00  0.00    -0.223 OA
ATOM     31  C   UNL     1      -1.824   2.425  24.829  0.00  0.00    +0.032 C 
ATOM     32  C   UNL     1      -2.531   2.806  24.642  0.00  0.00    +0.022 C 
ATOM     33  C   UNL     1      -2.995   2.532  24.019  0.00  0.00    +0.002 C 
ENDROOT
BRANCH   7   6
ATOM      4  C   UNL     1      -4.093   3.875  25.446  0.00  0.00    +0.272 C 
ATOM      5  O   UNL     1      -3.996   3.525  26.187  0.00  0.00    -0.271 OA
ATOM      6  N   UNL     1      -3.482   3.844  24.892  0.00  0.00    -0.205 NA
BRANCH   4   3
ATOM      3  C   UNL     1      -4.800   4.256  25.259  0.00  0.00    +0.229 C 
BRANCH   3   2
ATOM      1  C   UNL     1      -6.181   4.503  25.530  0.00  0.00    +0.175 C 
ATOM      2  O   UNL     1      -5.468   4.140  25.731  0.00  0.00    -0.342 OA
ENDBRANCH   3   2
ENDBRANCH   4   3
ENDBRANCH   7   6
BRANCH  14  15
ATOM     15  C   UNL     1      -0.632   0.732  24.142  0.00  0.00    +0.081 C 
ATOM     16  C   UNL     1      -0.352   0.829  23.373  0.00  0.00    +0.010 C 
BRANCH  15  17
ATOM     17  C   UNL     1      -0.669  -0.023  24.476  0.00  0.00    +0.241 C 
ATOM     18  O   UNL     1       0.011  -0.370  24.788  0.00  0.00    -0.273 OA
ATOM     19  N   UNL     1      -1.387  -0.429  24.497  0.00  0.00    -0.200 NA
BRANCH  19  20
ATOM     20  C   UNL     1      -1.424  -1.183  24.830  0.00  0.00    +0.144 C 
BRANCH  20  21
ATOM     21  C   UNL     1      -2.157  -1.530  24.982  0.00  0.00    +0.033 A 
ATOM     22  C   UNL     1      -2.357  -2.245  24.620  0.00  0.00    +0.136 A 
ATOM     25  C   UNL     1      -3.089  -2.592  24.771  0.00  0.00    +0.037 A 
ATOM     26  C   UNL     1      -3.621  -2.227  25.283  0.00  0.00    +0.003 A 
ATOM     27  C   UNL     1      -3.422  -1.513  25.645  0.00  0.00    -0.000 A 
ATOM     28  C   UNL     1      -2.689  -1.165  25.494  0.00  0.00    +0.000 A 
BRANCH  22  23
ATOM     23  O   UNL     1      -1.824  -2.611  24.107  0.00  0.00    -0.472 OA
ATOM     24  C   UNL     1      -2.023  -3.327  23.748  0.00  0.00    +0.252 C 
ENDBRANCH  22  23
ENDBRANCH  20  21
ENDBRANCH  19  20
ENDBRANCH  15  17
ENDBRANCH  14  15
TORSDOF 8
ENDMDL
MODEL 5
REMARK VINA RESULT:     -10.4      2.577      4.370
REMARK  Name = 
REMARK  8 active torsions:
REMARK  status: ('A' for Active; 'I' for Inactive)
REMARK    1  A    between atoms: O_2  and  C_3
REMARK    2  A    between atoms: C_3  and  C_4
REMARK    3  A    between atoms: N_6  and  C_7
REMARK    4  A    between atoms: C_14  and  C_15
REMARK    5  A    between atoms: C_15  and  C_17
REMARK    6  A    between atoms: N_19  and  C_20
REMARK    7  A    between atoms: C_20  and  C_21
REMARK    8  A    between atoms: C_22  and  O_23
REMARK                            x       y       z     vdW  Elec       q    Type
REMARK                         _______ _______ _______ _____ _____    ______ ____
ROOT
ATOM      7  C   UNL     1      -0.109  -0.054  24.045  0.00  0.00    +0.095 C 
ATOM      8  C   UNL     1       0.079  -0.680  24.548  0.00  0.00    +0.022 C 
ATOM      9  C   UNL     1      -0.523  -1.115  24.908  0.00  0.00    +0.002 C 
ATOM     10  C   UNL     1      -1.312  -0.924  24.766  0.00  0.00    +0.002 C 
ATOM     11  C   UNL     1      -1.124  -1.550  25.269  0.00  0.00    +0.000 C 
ATOM     12  C   UNL     1      -1.914  -1.358  25.126  0.00  0.00    +0.000 C 
ATOM     13  C   UNL     1      -2.703  -1.167  24.984  0.00  0.00    +0.003 C 
ATOM     14  C   UNL     1      -2.892  -0.541  24.481  0.00  0.00    +0.039 C 
ATOM     29  C   UNL     1      -2.291  -0.105  24.121  0.00  0.00    +0.152 C 
ATOM     30  O   UNL     1      -2.479   0.520  23.619  0.00  0.00    -0.223 OA
ATOM     31  C   UNL     1      -1.501  -0.297  24.263  0.00  0.00    +0.032 C 
ATOM     32  C   UNL     1      -0.900   0.138  23.903  0.00  0.00    +0.022 C 
ATOM     33  C   UNL     1      -1.088   0.764  23.401  0.00  0.00    +0.002 C 
ENDROOT
BRANCH   7   6
ATOM      4  C   UNL     1       1.086  -0.007  23.263  0.00  0.00    +0.272 C 
ATOM      5  O   UNL     1       1.079  -0.830  23.204  0.00  0.00    -0.271 OA
ATOM      6  N   UNL     1       0.491   0.382  23.684  0.00  0.00    -0.205 NA
BRANCH   4   3
ATOM      3  C   UNL     1       1.687   0.428  22.903  0.00  0.00    +0.229 C 
BRANCH   3   2
ATOM      1  C   UNL     1       3.039   0.461  22.442  0.00  0.00    +0.175 C 
ATOM      2  O   UNL     1       2.344   0.041  22.588  0.00  0.00    -0.342 OA
ENDBRANCH   3   2
ENDBRANCH   4   3
ENDBRANCH   7   6
BRANCH  14  15
ATOM     15  C   UNL     1      -3.681  -0.349  24.339  0.00  0.00    +0.081 C 
ATOM     16  C   UNL     1      -4.030  -0.544  23.618  0.00  0.00    +0.010 C 
BRANCH  15  17
ATOM     17  C   UNL     1      -4.122   0.040  24.919  0.00  0.00    +0.241 C 
ATOM     18  O   UNL     1      -4.354  -0.364  25.600  0.00  0.00    -0.273 OA
ATOM     19  N   UNL     1      -4.331   0.832  24.817  0.00  0.00    -0.200 NA
BRANCH  19  20
ATOM     20  C   UNL     1      -4.772   1.219  25.397  0.00  0.00    +0.144 C 
BRANCH  20  21
ATOM     21  C   UNL     1      -4.883   2.035  25.352  0.00  0.00    +0.033 A 
ATOM     22  C   UNL     1      -5.539   2.382  25.713  0.00  0.00    +0.136 A 
ATOM     25  C   UNL     1      -5.651   3.198  25.668  0.00  0.00    +0.037 A 
ATOM     26  C   UNL     1      -5.107   3.667  25.263  0.00  0.00    +0.003 A 
ATOM     27  C   UNL     1      -4.452   3.321  24.902  0.00  0.00    -0.000 A 
ATOM     28  C   UNL     1      -4.340   2.504  24.946  0.00  0.00    +0.000 A 
BRANCH  22  23
ATOM     23  O   UNL     1      -6.083   1.913  26.119  0.00  0.00    -0.472 OA
ATOM     24  C   UNL     1      -6.657   2.266  26.595  0.00  0.00    +0.252 C 
ENDBRANCH  22  23
ENDBRANCH  20  21
ENDBRANCH  19  20
ENDBRANCH  15  17
ENDBRANCH  14  15
TORSDOF 8
ENDMDL
MODEL 6
REMARK VINA RESULT:     -10.4      1.833      4.662
REMARK  Name = 
REMARK  8 active torsions:
REMARK  status: ('A' for Active; 'I' for Inactive)
REMARK    1  A    between atoms: O_2  and  C_3
REMARK    2  A    between atoms: C_3  and  C_4
REMARK    3  A    between atoms: N_6  and  C_7
REMARK    4  A    between atoms: C_14  and  C_15
REMARK    5  A    between atoms: C_15  and  C_17
REMARK    6  A    between atoms: N_19  and  C_20
REMARK    7  A    between atoms: C_20  and  C_21
REMARK    8  A    between atoms: C_22  and  O_23
REMARK                            x       y       z     vdW  Elec       q    Type
REMARK                         _______ _______ _______ _____ _____    ______ ____
ROOT
ATOM      7  C   UNL     1      -0.724   2.760  24.321  0.00  0.00    +0.095 C 
ATOM      8  C   UNL     1      -0.682   3.247  24.985  0.00  0.00    +0.022 C 
ATOM      9  C   UNL     1      -1.363   3.403  25.425  0.00  0.00    +0.002 C 
ATOM     10  C   UNL     1      -2.084   3.072  25.201  0.00  0.00    +0.002 C 
ATOM     11  C   UNL     1      -2.042   3.559  25.866  0.00  0.00    +0.000 C 
ATOM     12  C   UNL     1      -2.764   3.227  25.642  0.00  0.00    +0.000 C 
ATOM     13  C   UNL     1      -3.485   2.896  25.418  0.00  0.00    +0.003 C 
ATOM     14  C   UNL     1      -3.527   2.409  24.754  0.00  0.00    +0.039 C 
ATOM     29  C   UNL     1      -2.847   2.252  24.313  0.00  0.00    +0.152 C 
ATOM     30  O   UNL     1      -2.889   1.766  23.649  0.00  0.00    -0.223 OA
ATOM     31  C   UNL     1      -2.125   2.584  24.537  0.00  0.00    +0.032 C 
ATOM     32  C   UNL     1      -1.446   2.428  24.096  0.00  0.00    +0.022 C 
ATOM     33  C   UNL     1      -1.487   1.941  23.433  0.00  0.00    +0.002 C 
ENDROOT
BRANCH   7   6
ATOM      4  C   UNL     1       0.592   2.210  24.229  0.00  0.00    +0.272 C 
ATOM      5  O   UNL     1       0.548   1.974  25.018  0.00  0.00    -0.271 OA
ATOM      6  N   UNL     1      -0.044   2.604  23.880  0.00  0.00    -0.205 NA
BRANCH   4   3
ATOM      3  C   UNL     1       1.272   2.054  23.788  0.00  0.00    +0.229 C 
BRANCH   3   2
ATOM      1  C   UNL     1       2.156   1.070  23.247  0.00  0.00    +0.175 C 
ATOM      2  O   UNL     1       1.634   1.314  23.838  0.00  0.00    -0.342 OA
ENDBRANCH   3   2
ENDBRANCH   4   3
ENDBRANCH   7   6
BRANCH  14  15
ATOM     15  C   UNL     1      -4.248   2.077  24.529  0.00  0.00    +0.081 C 
ATOM     16  C   UNL     1      -4.696   2.428  23.933  0.00  0.00    +0.010 C 
BRANCH  15  17
ATOM     17  C   UNL     1      -4.521   1.393  24.903  0.00  0.00    +0.241 C 
ATOM     18  O   UNL     1      -5.063   1.449  25.522  0.00  0.00    -0.273 OA
ATOM     19  N   UNL     1      -4.251   0.653  24.656  0.00  0.00    -0.200 NA
BRANCH  19  20
ATOM     20  C   UNL     1      -4.523  -0.031  25.029  0.00  0.00    +0.144 C 
BRANCH  20  21
ATOM     21  C   UNL     1      -4.269  -0.771  24.769  0.00  0.00    +0.033 A 
ATOM     22  C   UNL     1      -3.804  -1.243  25.262  0.00  0.00    +0.136 A 
ATOM     25  C   UNL     1      -3.550  -1.984  25.002  0.00  0.00    +0.037 A 
ATOM     26  C   UNL     1      -3.759  -2.252  24.251  0.00  0.00    +0.003 A 
ATOM     27  C   UNL     1      -4.224  -1.780  23.759  0.00  0.00    -0.000 A 
ATOM     28  C   UNL     1      -4.479  -1.039  24.019  0.00  0.00    +0.000 A 
BRANCH  22  23
ATOM     23  O   UNL     1      -3.594  -0.975  26.013  0.00  0.00    -0.472 OA
ATOM     24  C   UNL     1      -3.099  -1.431  26.490  0.00  0.00    +0.252 C 
ENDBRANCH  22  23
ENDBRANCH  20  21
ENDBRANCH  19  20
ENDBRANCH  15  17
ENDBRANCH  14  15
TORSDOF 8
ENDMDL
MODEL 7
REMARK VINA RESULT:     -10.2      2.235      4.255
REMARK  Name = 
REMARK  8 active torsions:
REMARK  status: ('A' for Active; 'I' for Inactive)
REMARK    1  A    between atoms: O_2  and  C_3
REMARK    2  A    between atoms: C_3  and  C_4
REMARK    3  A    between atoms: N_6  and  C_7
REMARK    4  A    between atoms: C_14  and  C_15
REMARK    5  A    between atoms: C_15  and  C_17
REMARK    6  A    between atoms: N_19  and  C_20
REMARK    7  A    between atoms: C_20  and  C_21
REMARK    8  A    between atoms: C_22  and  O_23
REMARK                            x       y       z     vdW  Elec       q    Type
REMARK                         _______ _______ _______ _____ _____    ______ ____
ROOT
ATOM      7  C   UNL     1       0.036   1.747  24.293  0.00  0.00    +0.095 C 
ATOM      8  C   UNL     1       0.372   1.594  25.031  0.00  0.00    +0.022 C 
ATOM      9  C   UNL     1       0.085   1.978  25.703  0.00  0.00    +0.002 C 
ATOM     10  C   UNL     1      -0.536   2.515  25.637  0.00  0.00    +0.002 C 
ATOM     11  C   UNL     1      -0.200   2.362  26.374  0.00  0.00    +0.000 C 
ATOM     12  C   UNL     1      -0.823   2.900  26.308  0.00  0.00    +0.000 C 
ATOM     13  C   UNL     1      -1.445   3.437  26.242  0.00  0.00    +0.003 C 
ATOM     14  C   UNL     1      -1.781   3.591  25.504  0.00  0.00    +0.039 C 
ATOM     29  C   UNL     1      -1.495   3.207  24.832  0.00  0.00    +0.152 C 
ATOM     30  O   UNL     1      -1.831   3.360  24.096  0.00  0.00    -0.223 OA
ATOM     31  C   UNL     1      -0.872   2.669  24.899  0.00  0.00    +0.032 C 
ATOM     32  C   UNL     1      -0.587   2.285  24.227  0.00  0.00    +0.022 C 
ATOM     33  C   UNL     1      -0.922   2.438  23.490  0.00  0.00    +0.002 C 
ENDROOT
BRANCH   7   6
ATOM      4  C   UNL     1       0.406   0.542  23.621  0.00  0.00    +0.272 C 
ATOM      5  O   UNL     1       0.204   0.106  24.291  0.00  0.00    -0.271 OA
ATOM      6  N   UNL     1       0.322   1.363  23.622  0.00  0.00    -0.205 NA
BRANCH   4   3
ATOM      3  C   UNL     1       0.692   0.158  22.949  0.00  0.00    +0.229 C 
BRANCH   3   2
ATOM      1  C   UNL     1       1.833  -0.261  22.197  0.00  0.00    +0.175 C 
ATOM      2  O   UNL     1       1.477  -0.098  22.923  0.00  0.00    -0.342 OA
ENDBRANCH   3   2
ENDBRANCH   4   3
ENDBRANCH   7   6
BRANCH  14  15
ATOM     15  C   UNL     1      -2.403   4.128  25.437  0.00  0.00    +0.081 C 
ATOM     16  C   UNL     1      -2.292   4.842  25.041  0.00  0.00    +0.010 C 
BRANCH  15  17
ATOM     17  C   UNL     1      -3.139   3.950  25.768  0.00  0.00    +0.241 C 
ATOM     18  O   UNL     1      -3.325   4.213  26.527  0.00  0.00    -0.273 OA
ATOM     19  N   UNL     1      -3.688   3.508  25.338  0.00  0.00    -0.200 NA
BRANCH  19  20
ATOM     20  C   UNL     1      -4.423   3.330  25.669  0.00  0.00    +0.144 C 
BRANCH  20  21
ATOM     21  C   UNL     1      -4.903   2.757  25.321  0.00  0.00    +0.033 A 
ATOM     22  C   UNL     1      -5.559   2.465  25.729  0.00  0.00    +0.136 A 
ATOM     25  C   UNL     1      -6.038   1.891  25.381  0.00  0.00    +0.037 A 
ATOM     26  C   UNL     1      -5.863   1.609  24.627  0.00  0.00    +0.003 A 
ATOM     27  C   UNL     1      -5.208   1.900  24.219  0.00  0.00    -0.000 A 
ATOM     28  C   UNL     1      -4.728   2.475  24.567  0.00  0.00    +0.000 A 
BRANCH  22  23
ATOM     23  O   UNL     1      -5.734   2.748  26.484  0.00  0.00    -0.472 OA
ATOM     24  C   UNL     1      -6.303   2.367  26.944  0.00  0.00    +0.252 C 
ENDBRANCH  22  23
ENDBRANCH  20  21
ENDBRANCH  19  20
ENDBRANCH  15  17
ENDBRANCH  14  15
TORSDOF 8
ENDMDL
MODEL 8
REMARK VINA RESULT:      -9.9      2.151      4.456
REMARK  Name = 
REMARK  8 active torsions:
REMARK  status: ('A' for Active; 'I' for Inactive)
REMARK    1  A    between atoms: O_2  and  C_3
REMARK    2  A    between atoms: C_3  and  C_4
REMARK    3  A    between atoms: N_6  and  C_7
REMARK    4  A    between atoms: C_14  and  C_15
REMARK    5  A    between atoms: C_15  and  C_17
REMARK    6  A    between atoms: N_19  and  C_20
REMARK    7  A    between atoms: C_20  and  C_21
REMARK    8  A    between atoms: C_22  and  O_23
REMARK                            x       y       z     vdW  Elec       q    Type
REMARK                         _______ _______ _______ _____ _____    ______ ____
ROOT
ATOM      7  C   UNL     1      -4.120   3.428  25.145  0.00  0.00    +0.095 C 
ATOM      8  C   UNL     1      -4.025   3.838  25.855  0.00  0.00    +0.022 C 
ATOM      9  C   UNL     1      -3.268   4.027  26.123  0.00  0.00    +0.002 C 
ATOM     10  C   UNL     1      -2.607   3.806  25.682  0.00  0.00    +0.002 C 
ATOM     11  C   UNL     1      -2.511   4.216  26.391  0.00  0.00    +0.000 C 
ATOM     12  C   UNL     1      -1.849   3.995  25.950  0.00  0.00    +0.000 C 
ATOM     13  C   UNL     1      -1.188   3.775  25.509  0.00  0.00    +0.003 C 
ATOM     14  C   UNL     1      -1.284   3.365  24.800  0.00  0.00    +0.039 C 
ATOM     29  C   UNL     1      -2.040   3.175  24.531  0.00  0.00    +0.152 C 
ATOM     30  O   UNL     1      -2.136   2.766  23.822  0.00  0.00    -0.223 OA
ATOM     31  C   UNL     1      -2.702   3.396  24.973  0.00  0.00    +0.032 C 
ATOM     32  C   UNL     1      -3.459   3.207  24.704  0.00  0.00    +0.022 C 
ATOM     33  C   UNL     1      -3.554   2.797  23.995  0.00  0.00    +0.002 C 
ENDROOT
BRANCH   7   6
ATOM      4  C   UNL     1      -5.405   2.846  25.375  0.00  0.00    +0.272 C 
ATOM      5  O   UNL     1      -5.176   2.643  26.141  0.00  0.00    -0.271 OA
ATOM      6  N   UNL     1      -4.877   3.239  24.876  0.00  0.00    -0.205 NA
BRANCH   4   3
ATOM      3  C   UNL     1      -6.161   2.656  25.106  0.00  0.00    +0.229 C 
BRANCH   3   2
ATOM      1  C   UNL     1      -6.907   1.530  24.637  0.00  0.00    +0.175 C 
ATOM      2  O   UNL     1      -6.465   1.898  25.229  0.00  0.00    -0.342 OA
ENDBRANCH   3   2
ENDBRANCH   4   3
ENDBRANCH   7   6
BRANCH  14  15
ATOM     15  C   UNL     1      -0.623   3.143  24.359  0.00  0.00    +0.081 C 
ATOM     16  C   UNL     1      -0.430   3.554  23.671  0.00  0.00    +0.010 C 
BRANCH  15  17
ATOM     17  C   UNL     1      -0.156   2.510  24.606  0.00  0.00    +0.241 C 
ATOM     18  O   UNL     1       0.484   2.641  25.111  0.00  0.00    -0.273 OA
ATOM     19  N   UNL     1      -0.328   1.744  24.348  0.00  0.00    -0.200 NA
BRANCH  19  20
ATOM     20  C   UNL     1       0.140   1.111  24.596  0.00  0.00    +0.144 C 
BRANCH  20  21
ATOM     21  C   UNL     1      -0.145   0.340  24.532  0.00  0.00    +0.033 A 
ATOM     22  C   UNL     1       0.139  -0.156  23.936  0.00  0.00    +0.136 A 
ATOM     25  C   UNL     1      -0.146  -0.928  23.872  0.00  0.00    +0.037 A 
ATOM     26  C   UNL     1      -0.713  -1.203  24.402  0.00  0.00    +0.003 A 
ATOM     27  C   UNL     1      -0.997  -0.708  24.997  0.00  0.00    -0.000 A 
ATOM     28  C   UNL     1      -0.713   0.064  25.062  0.00  0.00    +0.000 A 
BRANCH  22  23
ATOM     23  O   UNL     1       0.707   0.120  23.406  0.00  0.00    -0.472 OA
ATOM     24  C   UNL     1       1.009  -0.384  22.826  0.00  0.00    +0.252 C 
ENDBRANCH  22  23
ENDBRANCH  20  21
ENDBRANCH  19  20
ENDBRANCH  15  17
ENDBRANCH  14  15
TORSDOF 8
ENDMDL
MODEL 9
REMARK VINA RESULT:      -9.7      2.898      4.843
REMARK  Name = 
REMARK  8 active torsions:
REMARK  status: ('A' for Active; 'I' for Inactive)
REMARK    1  A    between atoms: O_2  and  C_3
REMARK    2  A    between atoms: C_3  and  C_4
REMARK    3  A    between atoms: N_6  and  C_7
REMARK    4  A    between atoms: C_14  and  C_15
REMARK    5  A    between atoms: C_15  and  C_17
REMARK    6  A    between atoms: N_19  and  C_20
REMARK    7  A    between atoms: C_20  and  C_21
REMARK    8  A    between atoms: C_22  and  O_23
REMARK                            x       y       z     vdW  Elec       q    Type
REMARK                         _______ _______ _______ _____ _____    ______ ____
ROOT
ATOM      7  C   UNL     1       0.746   0.577  23.720  0.00  0.00    +0.095 C 
ATOM      8  C   UNL     1       0.869   1.306  24.088  0.00  0.00    +0.022 C 
ATOM      9  C   UNL     1       0.280   1.631  24.566  0.00  0.00    +0.002 C 
ATOM     10  C   UNL     1      -0.431   1.229  24.676  0.00  0.00    +0.002 C 
ATOM     11  C   UNL     1      -0.307   1.957  25.044  0.00  0.00    +0.000 C 
ATOM     12  C   UNL     1      -1.019   1.554  25.154  0.00  0.00    +0.000 C 
ATOM     13  C   UNL     1      -1.731   1.152  25.265  0.00  0.00    +0.003 C 
ATOM     14  C   UNL     1      -1.854   0.424  24.897  0.00  0.00    +0.039 C 
ATOM     29  C   UNL     1      -1.266   0.098  24.419  0.00  0.00    +0.152 C 
ATOM     30  O   UNL     1      -1.389  -0.630  24.052  0.00  0.00    -0.223 OA
ATOM     31  C   UNL     1      -0.554   0.501  24.309  0.00  0.00    +0.032 C 
ATOM     32  C   UNL     1       0.034   0.174  23.831  0.00  0.00    +0.022 C 
ATOM     33  C   UNL     1      -0.089  -0.553  23.464  0.00  0.00    +0.002 C 
ENDROOT
BRANCH   7   6
ATOM      4  C   UNL     1       2.059   0.637  23.159  0.00  0.00    +0.272 C 
ATOM      5  O   UNL     1       2.195   1.349  23.553  0.00  0.00    -0.271 OA
ATOM      6  N   UNL     1       1.334   0.251  23.242  0.00  0.00    -0.205 NA
BRANCH   4   3
ATOM      3  C   UNL     1       2.646   0.311  22.681  0.00  0.00    +0.229 C 
BRANCH   3   2
ATOM      1  C   UNL     1       4.023   0.313  22.296  0.00  0.00    +0.175 C 
ATOM      2  O   UNL     1       3.356   0.718  22.564  0.00  0.00    -0.342 OA
ENDBRANCH   3   2
ENDBRANCH   4   3
ENDBRANCH   7   6
BRANCH  14  15
ATOM     15  C   UNL     1      -2.565   0.021  25.007  0.00  0.00    +0.081 C 
ATOM     16  C   UNL     1      -2.593  -0.640  25.499  0.00  0.00    +0.010 C 
BRANCH  15  17
ATOM     17  C   UNL     1      -3.249   0.280  24.624  0.00  0.00    +0.241 C 
ATOM     18  O   UNL     1      -3.474  -0.058  23.906  0.00  0.00    -0.273 OA
ATOM     19  N   UNL     1      -3.709   0.879  24.960  0.00  0.00    -0.200 NA
BRANCH  19  20
ATOM     20  C   UNL     1      -4.392   1.137  24.578  0.00  0.00    +0.144 C 
BRANCH  20  21
ATOM     21  C   UNL     1      -4.880   1.694  24.940  0.00  0.00    +0.033 A 
ATOM     22  C   UNL     1      -4.881   2.476  24.676  0.00  0.00    +0.136 A 
ATOM     25  C   UNL     1      -5.370   3.033  25.038  0.00  0.00    +0.037 A 
ATOM     26  C   UNL     1      -5.857   2.810  25.664  0.00  0.00    +0.003 A 
ATOM     27  C   UNL     1      -5.857   2.028  25.928  0.00  0.00    -0.000 A 
ATOM     28  C   UNL     1      -5.368   1.470  25.566  0.00  0.00    +0.000 A 
BRANCH  22  23
ATOM     23  O   UNL     1      -4.393   2.700  24.049  0.00  0.00    -0.472 OA
ATOM     24  C   UNL     1      -4.270   3.500  23.888  0.00  0.00    +0.252 C 
ENDBRANCH  22  23
ENDBRANCH  20  21
ENDBRANCH  19  20
ENDBRANCH  15  17
ENDBRANCH  14  15
TORSDOF 8
ENDMDL
