MODEL 1
REMARK VINA RESULT:     -11.9      0.000      0.000
REMARK  Name = 
REMARK  5 active torsions:
REMARK  status: ('A' for Active; 'I' for Inactive)
REMARK    1  A    between atoms: C_5  and  C_6
REMARK    2  A    between atoms: C_6  and  N_7
REMARK    3  A    between atoms: C_8  and  C_10
REMARK    4  A    between atoms: N_15  and  C_16
REMARK    5  A    between atoms: C_16  and  C_17
REMARK                            x       y       z     vdW  Elec       q    Type
REMARK                         _______ _______ _______ _____ _____    ______ ____
ROOT
ATOM     10  C   UNL     1      -3.563   1.957  24.104  0.00  0.00    +0.143 C 
ATOM     11  C   UNL     1      -4.374   1.998  24.245  0.00  0.00    +0.072 C 
ATOM     12  C   UNL     1      -4.669   2.507  24.823  0.00  0.00    +0.077 A 
ATOM     13  C   UNL     1      -4.151   2.976  25.261  0.00  0.00    +0.090 A 
ATOM     14  C   UNL     1      -3.338   2.936  25.121  0.00  0.00    +0.121 C 
ATOM     15  N   UNL     1      -3.045   2.427  24.542  0.00  0.00    -0.257 NA
ATOM     22  N   UNL     1      -4.597   3.423  25.791  0.00  0.00    -0.226 NA
ATOM     23  C   UNL     1      -5.391   3.230  25.681  0.00  0.00    +0.198 A 
ATOM     24  N   UNL     1      -5.435   2.664  25.083  0.00  0.00    -0.227 NA
ENDROOT
BRANCH  10   8
ATOM      7  N   UNL     1      -3.307   0.631  23.637  0.00  0.00    -0.199 NA
ATOM      8  C   UNL     1      -3.269   1.448  23.526  0.00  0.00    +0.257 C 
ATOM      9  O   UNL     1      -2.938   1.756  22.836  0.00  0.00    -0.272 OA
BRANCH   7   6
ATOM      6  C   UNL     1      -3.639   0.324  24.327  0.00  0.00    +0.142 C 
BRANCH   6   5
ATOM      1 CL   UNL     1      -3.656  -2.935  24.844  0.00  0.00    -0.082 Cl
ATOM      2  C   UNL     1      -3.652  -2.120  24.714  0.00  0.00    +0.058 A 
ATOM      3  C   UNL     1      -3.278  -1.619  25.252  0.00  0.00    +0.011 A 
ATOM      4  C   UNL     1      -3.273  -0.804  25.123  0.00  0.00    -0.002 A 
ATOM      5  C   UNL     1      -3.643  -0.491  24.455  0.00  0.00    -0.001 A 
ATOM     25  C   UNL     1      -4.017  -0.992  23.917  0.00  0.00    -0.002 A 
ATOM     26  C   UNL     1      -4.021  -1.807  24.047  0.00  0.00    +0.011 A 
ENDBRANCH   6   5
ENDBRANCH   7   6
ENDBRANCH  10   8
BRANCH  15  16
ATOM     16  C   UNL     1      -2.233   2.387  24.402  0.00  0.00    +0.106 C 
BRANCH  16  17
ATOM     17  C   UNL     1      -1.712   2.829  24.865  0.00  0.00    +0.023 A 
ATOM     18  C   UNL     1      -1.370   2.586  25.575  0.00  0.00    +0.004 A 
ATOM     19  C   UNL     1      -0.888   3.198  25.847  0.00  0.00    +0.007 A 
ATOM     20  C   UNL     1      -0.933   3.818  25.305  0.00  0.00    +0.035 A 
ATOM     21  S   UNL     1      -1.442   3.591  24.698  0.00  0.00    -0.089 S 
ENDBRANCH  16  17
ENDBRANCH  15  16
TORSDOF 5
ENDMDL
MODEL 2
REMARK VINA RESULT:     -10.6      2.099      4.127
REMARK  Name = 
REMARK  5 active torsions:
REMARK  status: ('A' for Active; 'I' for Inactive)
REMARK    1  A    between atoms: C_5  and  C_6
REMARK    2  A    between atoms: C_6  and  N_7
REMARK    3  A    between atoms: C_8  and  C_10
REMARK    4  A    between atoms: N_15  and  C_16
REMARK    5  A    between atoms: C_16  and  C_17
REMARK                            x       y       z     vdW  Elec       q    Type
REMARK                         _______ _______ _______ _____ _____    ______ ____
ROOT
ATOM     10  C   UNL     1      -3.851   1.697  24.145  0.00  0.00    +0.143 C 
ATOM     11  C   UNL     1      -4.415   2.276  24.307  0.00  0.00    +0.072 C 
ATOM     12  C   UNL     1      -5.024   2.121  24.842  0.00  0.00    +0.077 A 
ATOM     13  C   UNL     1      -5.068   1.386  25.215  0.00  0.00    +0.090 A 
ATOM     14  C   UNL     1      -4.503   0.807  25.053  0.00  0.00    +0.121 C 
ATOM     15  N   UNL     1      -3.895   0.963  24.518  0.00  0.00    -0.257 NA
ATOM     22  N   UNL     1      -5.725   1.392  25.713  0.00  0.00    -0.226 NA
ATOM     23  C   UNL     1      -6.088   2.130  25.648  0.00  0.00    +0.198 A 
ATOM     24  N   UNL     1      -5.654   2.580  25.110  0.00  0.00    -0.227 NA
ENDROOT
BRANCH  10   8
ATOM      7  N   UNL     1      -2.651   2.393  23.804  0.00  0.00    -0.199 NA
ATOM      8  C   UNL     1      -3.243   1.852  23.611  0.00  0.00    +0.257 C 
ATOM      9  O   UNL     1      -3.226   1.466  22.882  0.00  0.00    -0.272 OA
BRANCH   7   6
ATOM      6  C   UNL     1      -2.667   2.779  24.532  0.00  0.00    +0.142 C 
BRANCH   6   5
ATOM      1 CL   UNL     1      -0.494   5.176  25.184  0.00  0.00    -0.082 Cl
ATOM      2  C   UNL     1      -1.037   4.577  25.021  0.00  0.00    +0.058 A 
ATOM      3  C   UNL     1      -1.844   4.712  25.126  0.00  0.00    +0.011 A 
ATOM      4  C   UNL     1      -2.388   4.113  24.963  0.00  0.00    -0.002 A 
ATOM      5  C   UNL     1      -2.124   3.378  24.695  0.00  0.00    -0.001 A 
ATOM     25  C   UNL     1      -1.317   3.243  24.590  0.00  0.00    -0.002 A 
ATOM     26  C   UNL     1      -0.774   3.843  24.753  0.00  0.00    +0.011 A 
ENDBRANCH   6   5
ENDBRANCH   7   6
ENDBRANCH  10   8
BRANCH  15  16
ATOM     16  C   UNL     1      -3.330   0.383  24.357  0.00  0.00    +0.106 C 
BRANCH  16  17
ATOM     17  C   UNL     1      -3.465  -0.399  24.583  0.00  0.00    +0.023 A 
ATOM     18  C   UNL     1      -3.910  -0.954  24.166  0.00  0.00    +0.004 A 
ATOM     19  C   UNL     1      -3.898  -1.661  24.591  0.00  0.00    +0.007 A 
ATOM     20  C   UNL     1      -3.445  -1.542  25.270  0.00  0.00    +0.035 A 
ATOM     21  S   UNL     1      -3.177  -0.763  25.266  0.00  0.00    -0.089 S 
ENDBRANCH  16  17
ENDBRANCH  15  16
TORSDOF 5
ENDMDL
MODEL 3
REMARK VINA RESULT:     -10.6      1.061      2.376
REMARK  Name = 
REMARK  5 active torsions:
REMARK  status: ('A' for Active; 'I' for Inactive)
REMARK    1  A    between atoms: C_5  and  C_6
REMARK    2  A    between atoms: C_6  and  N_7
REMARK    3  A    between atoms: C_8  and  C_10
REMARK    4  A    between atoms: N_15  and  C_16
REMARK    5  A    between atoms: C_16  and  C_17
REMARK                            x       y       z     vdW  Elec       q    Type
REMARK                         _______ _______ _______ _____ _____    ______ ____
ROOT
ATOM     10  C   UNL     1      -2.541   1.773  24.082  0.00  0.00    +0.143 C 
ATOM     11  C   UNL     1      -1.765   1.605  24.302  0.00  0.00    +0.072 C 
ATOM     12  C   UNL     1      -1.424   1.993  24.945  0.00  0.00    +0.077 A 
ATOM     13  C   UNL     1      -1.861   2.549  25.370  0.00  0.00    +0.090 A 
ATOM     14  C   UNL     1      -2.640   2.717  25.151  0.00  0.00    +0.121 C 
ATOM     15  N   UNL     1      -2.979   2.329  24.507  0.00  0.00    -0.257 NA
ATOM     22  N   UNL     1      -1.384   2.842  25.975  0.00  0.00    -0.226 NA
ATOM     23  C   UNL     1      -0.651   2.467  25.924  0.00  0.00    +0.198 A 
ATOM     24  N   UNL     1      -0.676   1.943  25.288  0.00  0.00    -0.227 NA
ENDROOT
BRANCH  10   8
ATOM      7  N   UNL     1      -3.111   0.596  23.507  0.00  0.00    -0.199 NA
ATOM      8  C   UNL     1      -2.881   1.385  23.439  0.00  0.00    +0.257 C 
ATOM      9  O   UNL     1      -2.992   1.787  22.727  0.00  0.00    -0.272 OA
BRANCH   7   6
ATOM      6  C   UNL     1      -3.001   0.194  24.219  0.00  0.00    +0.142 C 
BRANCH   6   5
ATOM      1 CL   UNL     1      -3.806  -2.997  24.460  0.00  0.00    -0.082 Cl
ATOM      2  C   UNL     1      -3.605  -2.199  24.399  0.00  0.00    +0.058 A 
ATOM      3  C   UNL     1      -2.860  -1.942  24.644  0.00  0.00    +0.011 A 
ATOM      4  C   UNL     1      -2.659  -1.145  24.584  0.00  0.00    -0.002 A 
ATOM      5  C   UNL     1      -3.203  -0.603  24.279  0.00  0.00    -0.001 A 
ATOM     25  C   UNL     1      -3.948  -0.861  24.035  0.00  0.00    -0.002 A 
ATOM     26  C   UNL     1      -4.148  -1.659  24.095  0.00  0.00    +0.011 A 
ENDBRANCH   6   5
ENDBRANCH   7   6
ENDBRANCH  10   8
BRANCH  15  16
ATOM     16  C   UNL     1      -3.756   2.497  24.288  0.00  0.00    +0.106 C 
BRANCH  16  17
ATOM     17  C   UNL     1      -4.248   2.915  24.801  0.00  0.00    +0.023 A 
ATOM     18  C   UNL     1      -4.740   2.587  25.377  0.00  0.00    +0.004 A 
ATOM     19  C   UNL     1      -5.130   3.204  25.760  0.00  0.00    +0.007 A 
ATOM     20  C   UNL     1      -4.881   3.914  25.421  0.00  0.00    +0.035 A 
ATOM     21  S   UNL     1      -4.336   3.736  24.829  0.00  0.00    -0.089 S 
ENDBRANCH  16  17
ENDBRANCH  15  16
TORSDOF 5
ENDMDL
MODEL 4
REMARK VINA RESULT:     -10.1      2.507      3.546
REMARK  Name = 
REMARK  5 active torsions:
REMARK  status: ('A' for Active; 'I' for Inactive)
REMARK    1  A    between atoms: C_5  and  C_6
REMARK    2  A    between atoms: C_6  and  N_7
REMARK    3  A    between atoms: C_8  and  C_10
REMARK    4  A    between atoms: N_15  and  C_16
REMARK    5  A    between atoms: C_16  and  C_17
REMARK                            x       y       z     vdW  Elec       q    Type
REMARK                         _______ _______ _______ _____ _____    ______ ____
ROOT
ATOM     10  C   UNL     1      -0.833  -0.157  25.063  0.00  0.00    +0.143 C 
ATOM     11  C   UNL     1      -0.400  -0.628  24.543  0.00  0.00    +0.072 C 
ATOM     12  C   UNL     1       0.071  -0.279  23.963  0.00  0.00    +0.077 A 
ATOM     13  C   UNL     1       0.108   0.543  23.902  0.00  0.00    +0.090 A 
ATOM     14  C   UNL     1      -0.325   1.016  24.422  0.00  0.00    +0.121 C 
ATOM     15  N   UNL     1      -0.796   0.665  25.002  0.00  0.00    -0.257 NA
ATOM     22  N   UNL     1       0.615   0.730  23.280  0.00  0.00    -0.226 NA
ATOM     23  C   UNL     1       0.892   0.025  22.955  0.00  0.00    +0.198 A 
ATOM     24  N   UNL     1       0.555  -0.599  23.377  0.00  0.00    -0.227 NA
ENDROOT
BRANCH  10   8
ATOM      7  N   UNL     1      -1.991  -0.910  25.430  0.00  0.00    -0.199 NA
ATOM      8  C   UNL     1      -1.303  -0.506  25.643  0.00  0.00    +0.257 C 
ATOM      9  O   UNL     1      -1.086  -0.453  26.437  0.00  0.00    -0.272 OA
BRANCH   7   6
ATOM      6  C   UNL     1      -2.208  -0.963  24.635  0.00  0.00    +0.142 C 
BRANCH   6   5
ATOM      1 CL   UNL     1      -4.886  -2.684  23.765  0.00  0.00    -0.082 Cl
ATOM      2  C   UNL     1      -4.216  -2.255  23.983  0.00  0.00    +0.058 A 
ATOM      3  C   UNL     1      -4.224  -1.431  23.943  0.00  0.00    +0.011 A 
ATOM      4  C   UNL     1      -3.555  -1.000  24.160  0.00  0.00    -0.002 A 
ATOM      5  C   UNL     1      -2.877  -1.394  24.418  0.00  0.00    -0.001 A 
ATOM     25  C   UNL     1      -2.868  -2.218  24.458  0.00  0.00    -0.002 A 
ATOM     26  C   UNL     1      -3.538  -2.648  24.240  0.00  0.00    +0.011 A 
ENDBRANCH   6   5
ENDBRANCH   7   6
ENDBRANCH  10   8
BRANCH  15  16
ATOM     16  C   UNL     1      -1.228   1.138  25.522  0.00  0.00    +0.106 C 
BRANCH  16  17
ATOM     17  C   UNL     1      -1.121   1.956  25.523  0.00  0.00    +0.023 A 
ATOM     18  C   UNL     1      -0.521   2.366  25.912  0.00  0.00    +0.004 A 
ATOM     19  C   UNL     1      -0.624   3.170  25.765  0.00  0.00    +0.007 A 
ATOM     20  C   UNL     1      -1.290   3.258  25.285  0.00  0.00    +0.035 A 
ATOM     21  S   UNL     1      -1.597   2.508  25.135  0.00  0.00    -0.089 S 
ENDBRANCH  16  17
ENDBRANCH  15  16
TORSDOF 5
ENDMDL
MODEL 5
REMARK VINA RESULT:     -10.1      2.145      3.661
REMARK  Name = 
REMARK  5 active torsions:
REMARK  status: ('A' for Active; 'I' for Inactive)
REMARK    1  A    between atoms: C_5  and  C_6
REMARK    2  A    between atoms: C_6  and  N_7
REMARK    3  A    between atoms: C_8  and  C_10
REMARK    4  A    between atoms: N_15  and  C_16
REMARK    5  A    between atoms: C_16  and  C_17
REMARK                            x       y       z     vdW  Elec       q    Type
REMARK                         _______ _______ _______ _____ _____    ______ ____
ROOT
ATOM     10  C   UNL     1      -1.651   1.780  24.304  0.00  0.00    +0.143 C 
ATOM     11  C   UNL     1      -1.485   2.512  24.646  0.00  0.00    +0.072 C 
ATOM     12  C   UNL     1      -0.936   2.567  25.260  0.00  0.00    +0.077 A 
ATOM     13  C   UNL     1      -0.553   1.888  25.531  0.00  0.00    +0.090 A 
ATOM     14  C   UNL     1      -0.718   1.155  25.189  0.00  0.00    +0.121 C 
ATOM     15  N   UNL     1      -1.267   1.102  24.576  0.00  0.00    -0.257 NA
ATOM     22  N   UNL     1      -0.042   2.110  26.139  0.00  0.00    -0.226 NA
ATOM     23  C   UNL     1      -0.109   2.926  26.244  0.00  0.00    +0.198 A 
ATOM     24  N   UNL     1      -0.662   3.207  25.700  0.00  0.00    -0.227 NA
ENDROOT
BRANCH  10   8
ATOM      7  N   UNL     1      -3.006   1.798  23.851  0.00  0.00    -0.199 NA
ATOM      8  C   UNL     1      -2.199   1.726  23.691  0.00  0.00    +0.257 C 
ATOM      9  O   UNL     1      -1.942   1.599  22.918  0.00  0.00    -0.272 OA
BRANCH   7   6
ATOM      6  C   UNL     1      -3.263   1.925  24.624  0.00  0.00    +0.142 C 
BRANCH   6   5
ATOM      1 CL   UNL     1      -6.492   2.052  25.292  0.00  0.00    -0.082 Cl
ATOM      2  C   UNL     1      -5.685   2.021  25.125  0.00  0.00    +0.058 A 
ATOM      3  C   UNL     1      -5.313   1.292  25.025  0.00  0.00    +0.011 A 
ATOM      4  C   UNL     1      -4.506   1.259  24.858  0.00  0.00    -0.002 A 
ATOM      5  C   UNL     1      -4.070   1.957  24.791  0.00  0.00    -0.001 A 
ATOM     25  C   UNL     1      -4.442   2.687  24.891  0.00  0.00    -0.002 A 
ATOM     26  C   UNL     1      -5.250   2.718  25.058  0.00  0.00    +0.011 A 
ENDBRANCH   6   5
ENDBRANCH   7   6
ENDBRANCH  10   8
BRANCH  15  16
ATOM     16  C   UNL     1      -1.433   0.370  24.234  0.00  0.00    +0.106 C 
BRANCH  16  17
ATOM     17  C   UNL     1      -1.098  -0.317  24.547  0.00  0.00    +0.023 A 
ATOM     18  C   UNL     1      -1.399  -0.761  25.173  0.00  0.00    +0.004 A 
ATOM     19  C   UNL     1      -0.891  -1.398  25.301  0.00  0.00    +0.007 A 
ATOM     20  C   UNL     1      -0.276  -1.347  24.754  0.00  0.00    +0.035 A 
ATOM     21  S   UNL     1      -0.404  -0.680  24.287  0.00  0.00    -0.089 S 
ENDBRANCH  16  17
ENDBRANCH  15  16
TORSDOF 5
ENDMDL
MODEL 6
REMARK VINA RESULT:      -9.7      2.590      4.928
REMARK  Name = 
REMARK  5 active torsions:
REMARK  status: ('A' for Active; 'I' for Inactive)
REMARK    1  A    between atoms: C_5  and  C_6
REMARK    2  A    between atoms: C_6  and  N_7
REMARK    3  A    between atoms: C_8  and  C_10
REMARK    4  A    between atoms: N_15  and  C_16
REMARK    5  A    between atoms: C_16  and  C_17
REMARK                            x       y       z     vdW  Elec       q    Type
REMARK                         _______ _______ _______ _____ _____    ______ ____
ROOT
ATOM     10  C   UNL     1      -1.984   0.843  23.866  0.00  0.00    +0.143 C 
ATOM     11  C   UNL     1      -1.219   0.924  23.570  0.00  0.00    +0.072 C 
ATOM     12  C   UNL     1      -0.641   0.366  23.761  0.00  0.00    +0.077 A 
ATOM     13  C   UNL     1      -0.831  -0.273  24.248  0.00  0.00    +0.090 A 
ATOM     14  C   UNL     1      -1.597  -0.354  24.544  0.00  0.00    +0.121 C 
ATOM     15  N   UNL     1      -2.173   0.205  24.352  0.00  0.00    -0.257 NA
ATOM     22  N   UNL     1      -0.152  -0.732  24.341  0.00  0.00    -0.226 NA
ATOM     23  C   UNL     1       0.456  -0.378  23.912  0.00  0.00    +0.198 A 
ATOM     24  N   UNL     1       0.154   0.300  23.554  0.00  0.00    -0.227 NA
ENDROOT
BRANCH  10   8
ATOM      7  N   UNL     1      -2.512   2.166  23.980  0.00  0.00    -0.199 NA
ATOM      8  C   UNL     1      -2.561   1.401  23.675  0.00  0.00    +0.257 C 
ATOM      9  O   UNL     1      -3.186   1.194  23.179  0.00  0.00    -0.272 OA
BRANCH   7   6
ATOM      6  C   UNL     1      -1.886   2.373  24.475  0.00  0.00    +0.142 C 
BRANCH   6   5
ATOM      1 CL   UNL     1      -1.474   5.516  25.394  0.00  0.00    -0.082 Cl
ATOM      2  C   UNL     1      -1.578   4.730  25.164  0.00  0.00    +0.058 A 
ATOM      3  C   UNL     1      -0.941   4.302  24.862  0.00  0.00    +0.011 A 
ATOM      4  C   UNL     1      -1.043   3.516  24.632  0.00  0.00    -0.002 A 
ATOM      5  C   UNL     1      -1.784   3.159  24.705  0.00  0.00    -0.001 A 
ATOM     25  C   UNL     1      -2.421   3.587  25.008  0.00  0.00    -0.002 A 
ATOM     26  C   UNL     1      -2.317   4.373  25.237  0.00  0.00    +0.011 A 
ENDBRANCH   6   5
ENDBRANCH   7   6
ENDBRANCH  10   8
BRANCH  15  16
ATOM     16  C   UNL     1      -2.939   0.123  24.648  0.00  0.00    +0.106 C 
BRANCH  16  17
ATOM     17  C   UNL     1      -3.205  -0.612  24.910  0.00  0.00    +0.023 A 
ATOM     18  C   UNL     1      -3.467  -1.232  24.433  0.00  0.00    +0.004 A 
ATOM     19  C   UNL     1      -3.679  -1.859  24.924  0.00  0.00    +0.007 A 
ATOM     20  C   UNL     1      -3.548  -1.628  25.705  0.00  0.00    +0.035 A 
ATOM     21  S   UNL     1      -3.255  -0.858  25.697  0.00  0.00    -0.089 S 
ENDBRANCH  16  17
ENDBRANCH  15  16
TORSDOF 5
ENDMDL
MODEL 7
REMARK VINA RESULT:      -9.5      1.937      3.586
REMARK  Name = 
REMARK  5 active torsions:
REMARK  status: ('A' for Active; 'I' for Inactive)
REMARK    1  A    between atoms: C_5  and  C_6
REMARK    2  A    between atoms: C_6  and  N_7
REMARK    3  A    between atoms: C_8  and  C_10
REMARK    4  A    between atoms: N_15  and  C_16
REMARK    5  A    between atoms: C_16  and  C_17
REMARK                            x       y       z     vdW  Elec       q    Type
REMARK                         _______ _______ _______ _____ _____    ______ ____
ROOT
ATOM     10  C   UNL     1      -2.743   0.876  23.936  0.00  0.00    +0.143 C 
ATOM     11  C   UNL     1      -3.195   0.208  24.104  0.00  0.00    +0.072 C 
ATOM     12  C   UNL     1      -2.884  -0.395  24.574  0.00  0.00    +0.077 A 
ATOM     13  C   UNL     1      -2.119  -0.328  24.876  0.00  0.00    +0.090 A 
ATOM     14  C   UNL     1      -1.665   0.341  24.708  0.00  0.00    +0.121 C 
ATOM     15  N   UNL     1      -1.977   0.943  24.238  0.00  0.00    -0.257 NA
ATOM     22  N   UNL     1      -1.961  -1.005  25.319  0.00  0.00    -0.226 NA
ATOM     23  C   UNL     1      -2.627  -1.490  25.291  0.00  0.00    +0.198 A 
ATOM     24  N   UNL     1      -3.198  -1.112  24.831  0.00  0.00    -0.227 NA
ENDROOT
BRANCH  10   8
ATOM      7  N   UNL     1      -3.641   1.975  23.767  0.00  0.00    -0.199 NA
ATOM      8  C   UNL     1      -3.054   1.479  23.467  0.00  0.00    +0.257 C 
ATOM      9  O   UNL     1      -2.778   1.585  22.697  0.00  0.00    -0.272 OA
BRANCH   7   6
ATOM      6  C   UNL     1      -3.916   1.868  24.537  0.00  0.00    +0.142 C 
BRANCH   6   5
ATOM      1 CL   UNL     1      -6.096   3.987  25.822  0.00  0.00    -0.082 Cl
ATOM      2  C   UNL     1      -5.550   3.458  25.501  0.00  0.00    +0.058 A 
ATOM      3  C   UNL     1      -5.782   2.687  25.318  0.00  0.00    +0.011 A 
ATOM      4  C   UNL     1      -5.238   2.157  24.997  0.00  0.00    -0.002 A 
ATOM      5  C   UNL     1      -4.461   2.398  24.858  0.00  0.00    -0.001 A 
ATOM     25  C   UNL     1      -4.229   3.169  25.041  0.00  0.00    -0.002 A 
ATOM     26  C   UNL     1      -4.774   3.698  25.362  0.00  0.00    +0.011 A 
ENDBRANCH   6   5
ENDBRANCH   7   6
ENDBRANCH  10   8
BRANCH  15  16
ATOM     16  C   UNL     1      -1.524   1.611  24.070  0.00  0.00    +0.106 C 
BRANCH  16  17
ATOM     17  C   UNL     1      -0.818   1.743  24.477  0.00  0.00    +0.023 A 
ATOM     18  C   UNL     1      -0.743   2.106  25.213  0.00  0.00    +0.004 A 
ATOM     19  C   UNL     1       0.057   2.123  25.409  0.00  0.00    +0.007 A 
ATOM     20  C   UNL     1       0.478   1.770  24.793  0.00  0.00    +0.035 A 
ATOM     21  S   UNL     1      -0.062   1.535  24.217  0.00  0.00    -0.089 S 
ENDBRANCH  16  17
ENDBRANCH  15  16
TORSDOF 5
ENDMDL
