MODEL 1
REMARK VINA RESULT:     -11.8      0.000      0.000
REMARK  Name = 
REMARK  7 active torsions:
REMARK  status: ('A' for Active; 'I' for Inactive)
REMARK    1  A    between atoms: O_2  and  C_3
REMARK    2  A    between atoms: C_8  and  O_9
REMARK    3  A    between atoms: C_11  and  C_12
REMARK    4  A    between atoms: C_12  and  C_13
REMARK    5  A    between atoms: C_18  and  C_19
REMARK    6  A    between atoms: C_19  and  C_20
REMARK    7  A    between atoms: C_23  and  C_25
REMARK                            x       y       z     vdW  Elec       q    Type
REMARK                         _______ _______ _______ _____ _____    ______ ____
ROOT
ATOM     13  C   UNL     1      -3.894   1.377  24.757  0.00  0.00    +0.026 C 
ATOM     14  C   UNL     1      -3.339   0.769  24.736  0.00  0.00    +0.094 C 
ATOM     15  N   UNL     1      -3.588  -0.018  24.729  0.00  0.00    -0.276 N 
ATOM     16  C   UNL     1      -4.394  -0.195  24.745  0.00  0.00    +0.094 C 
ATOM     17  C   UNL     1      -4.949   0.414  24.767  0.00  0.00    +0.022 C 
ATOM     18  C   UNL     1      -4.701   1.200  24.773  0.00  0.00    +0.015 C 
ATOM     23  C   UNL     1      -3.032  -0.627  24.708  0.00  0.00    +0.249 C 
ATOM     24  O   UNL     1      -2.227  -0.449  24.692  0.00  0.00    -0.270 OA
ENDROOT
BRANCH  23  25
ATOM     25  C   UNL     1      -3.282  -1.413  24.701  0.00  0.00    +0.054 A 
ATOM     26  C   UNL     1      -3.251  -1.861  25.393  0.00  0.00    +0.005 A 
ATOM     27  C   UNL     1      -3.501  -2.648  25.387  0.00  0.00    +0.000 A 
ATOM     28  C   UNL     1      -3.781  -2.985  24.689  0.00  0.00    +0.000 A 
ATOM     29  C   UNL     1      -3.812  -2.537  23.997  0.00  0.00    +0.000 A 
ATOM     30  C   UNL     1      -3.562  -1.752  24.003  0.00  0.00    +0.005 A 
ENDBRANCH  23  25
BRANCH  13  12
ATOM     12  C   UNL     1      -3.645   2.164  24.764  0.00  0.00    +0.047 C 
BRANCH  12  11
ATOM      3  C   UNL     1      -1.516   4.218  25.075  0.00  0.00    +0.172 A 
ATOM      4  C   UNL     1      -1.371   3.845  24.353  0.00  0.00    +0.036 A 
ATOM      5  C   UNL     1      -1.867   3.238  24.094  0.00  0.00    -0.016 A 
ATOM      6  C   UNL     1      -2.509   3.004  24.558  0.00  0.00    +0.012 A 
ATOM      7  C   UNL     1      -2.654   3.377  25.280  0.00  0.00    +0.041 A 
ATOM      8  C   UNL     1      -2.158   3.984  25.539  0.00  0.00    +0.172 A 
ATOM     11  C   UNL     1      -3.004   2.398  24.300  0.00  0.00    +0.054 C 
ATOM     31  N   UNL     1      -2.859   2.025  23.579  0.00  0.00    -0.274 NA
ATOM     32  C   UNL     1      -2.218   2.260  23.115  0.00  0.00    +0.130 C 
ATOM     33  C   UNL     1      -1.722   2.866  23.373  0.00  0.00    +0.053 C 
BRANCH   3   2
ATOM      1  C   UNL     1      -0.635   5.304  24.784  0.00  0.00    +0.253 C 
ATOM      2  O   UNL     1      -1.021   4.825  25.333  0.00  0.00    -0.468 OA
ENDBRANCH   3   2
BRANCH   8   9
ATOM      9  O   UNL     1      -2.303   4.356  26.260  0.00  0.00    -0.468 OA
ATOM     10  C   UNL     1      -3.025   4.247  26.643  0.00  0.00    +0.253 C 
ENDBRANCH   8   9
ENDBRANCH  12  11
ENDBRANCH  13  12
BRANCH  18  19
ATOM     19  C   UNL     1      -5.257   1.809  24.795  0.00  0.00    +0.114 C 
BRANCH  19  20
ATOM     20  C   UNL     1      -5.985   1.688  25.161  0.00  0.00    +0.365 C 
ATOM     21  O   UNL     1      -6.049   1.737  25.982  0.00  0.00    -0.246 OA
ATOM     22  O   UNL     1      -6.653   1.519  24.705  0.00  0.00    -0.246 OA
ENDBRANCH  19  20
ENDBRANCH  18  19
TORSDOF 7
ENDMDL
MODEL 2
REMARK VINA RESULT:     -11.1      1.600      2.868
REMARK  Name = 
REMARK  7 active torsions:
REMARK  status: ('A' for Active; 'I' for Inactive)
REMARK    1  A    between atoms: O_2  and  C_3
REMARK    2  A    between atoms: C_8  and  O_9
REMARK    3  A    between atoms: C_11  and  C_12
REMARK    4  A    between atoms: C_12  and  C_13
REMARK    5  A    between atoms: C_18  and  C_19
REMARK    6  A    between atoms: C_19  and  C_20
REMARK    7  A    between atoms: C_23  and  C_25
REMARK                            x       y       z     vdW  Elec       q    Type
REMARK                         _______ _______ _______ _____ _____    ______ ____
ROOT
ATOM     13  C   UNL     1      -2.284   1.017  24.443  0.00  0.00    +0.026 C 
ATOM     14  C   UNL     1      -2.962   0.576  24.598  0.00  0.00    +0.094 C 
ATOM     15  N   UNL     1      -2.929  -0.249  24.594  0.00  0.00    -0.276 N 
ATOM     16  C   UNL     1      -2.216  -0.631  24.433  0.00  0.00    +0.094 C 
ATOM     17  C   UNL     1      -1.537  -0.190  24.277  0.00  0.00    +0.022 C 
ATOM     18  C   UNL     1      -1.570   0.634  24.282  0.00  0.00    +0.015 C 
ATOM     23  C   UNL     1      -3.608  -0.690  24.749  0.00  0.00    +0.249 C 
ATOM     24  O   UNL     1      -4.321  -0.307  24.910  0.00  0.00    -0.270 OA
ENDROOT
BRANCH  23  25
ATOM     25  C   UNL     1      -3.574  -1.514  24.744  0.00  0.00    +0.054 A 
ATOM     26  C   UNL     1      -3.775  -1.931  24.061  0.00  0.00    +0.005 A 
ATOM     27  C   UNL     1      -3.741  -2.756  24.056  0.00  0.00    +0.000 A 
ATOM     28  C   UNL     1      -3.507  -3.162  24.734  0.00  0.00    +0.000 A 
ATOM     29  C   UNL     1      -3.307  -2.746  25.417  0.00  0.00    +0.000 A 
ATOM     30  C   UNL     1      -3.340  -1.922  25.422  0.00  0.00    +0.005 A 
ENDBRANCH  23  25
BRANCH  13  12
ATOM     12  C   UNL     1      -2.316   1.841  24.448  0.00  0.00    +0.047 C 
BRANCH  12  11
ATOM      3  C   UNL     1      -4.333   3.922  25.125  0.00  0.00    +0.172 A 
ATOM      4  C   UNL     1      -4.439   3.751  24.324  0.00  0.00    +0.036 A 
ATOM      5  C   UNL     1      -3.962   3.189  23.954  0.00  0.00    -0.016 A 
ATOM      6  C   UNL     1      -3.377   2.796  24.386  0.00  0.00    +0.012 A 
ATOM      7  C   UNL     1      -3.271   2.966  25.186  0.00  0.00    +0.041 A 
ATOM      8  C   UNL     1      -3.748   3.529  25.556  0.00  0.00    +0.172 A 
ATOM     11  C   UNL     1      -2.900   2.234  24.017  0.00  0.00    +0.054 C 
ATOM     31  N   UNL     1      -3.006   2.064  23.217  0.00  0.00    -0.274 NA
ATOM     32  C   UNL     1      -3.591   2.457  22.785  0.00  0.00    +0.130 C 
ATOM     33  C   UNL     1      -4.068   3.019  23.155  0.00  0.00    +0.053 C 
BRANCH   3   2
ATOM      1  C   UNL     1      -5.630   4.434  25.430  0.00  0.00    +0.253 C 
ATOM      2  O   UNL     1      -4.810   4.484  25.494  0.00  0.00    -0.468 OA
ENDBRANCH   3   2
BRANCH   8   9
ATOM      9  O   UNL     1      -3.642   3.699  26.356  0.00  0.00    -0.468 OA
ATOM     10  C   UNL     1      -2.902   3.931  26.634  0.00  0.00    +0.253 C 
ENDBRANCH   8   9
ENDBRANCH  12  11
ENDBRANCH  13  12
BRANCH  18  19
ATOM     19  C   UNL     1      -0.891   1.076  24.127  0.00  0.00    +0.114 C 
BRANCH  19  20
ATOM     20  C   UNL     1      -0.160   0.699  24.062  0.00  0.00    +0.365 C 
ATOM     21  O   UNL     1       0.306   0.583  24.733  0.00  0.00    -0.246 OA
ATOM     22  O   UNL     1       0.105   0.436  23.325  0.00  0.00    -0.246 OA
ENDBRANCH  19  20
ENDBRANCH  18  19
TORSDOF 7
ENDMDL
MODEL 3
REMARK VINA RESULT:     -10.6      1.280      4.831
REMARK  Name = 
REMARK  7 active torsions:
REMARK  status: ('A' for Active; 'I' for Inactive)
REMARK    1  A    between atoms: O_2  and  C_3
REMARK    2  A    between atoms: C_8  and  O_9
REMARK    3  A    between atoms: C_11  and  C_12
REMARK    4  A    between atoms: C_12  and  C_13
REMARK    5  A    between atoms: C_18  and  C_19
REMARK    6  A    between atoms: C_19  and  C_20
REMARK    7  A    between atoms: C_23  and  C_25
REMARK                            x       y       z     vdW  Elec       q    Type
REMARK                         _______ _______ _______ _____ _____    ______ ____
ROOT
ATOM     13  C   UNL     1      -3.687   1.778  25.096  0.00  0.00    +0.026 C 
ATOM     14  C   UNL     1      -2.876   1.887  25.005  0.00  0.00    +0.094 C 
ATOM     15  N   UNL     1      -2.562   2.651  24.988  0.00  0.00    -0.276 N 
ATOM     16  C   UNL     1      -3.061   3.303  25.063  0.00  0.00    +0.094 C 
ATOM     17  C   UNL     1      -3.872   3.193  25.154  0.00  0.00    +0.022 C 
ATOM     18  C   UNL     1      -4.187   2.431  25.171  0.00  0.00    +0.015 C 
ATOM     23  C   UNL     1      -1.749   2.760  24.897  0.00  0.00    +0.249 C 
ATOM     24  O   UNL     1      -1.251   2.107  24.822  0.00  0.00    -0.270 OA
ENDROOT
BRANCH  23  25
ATOM     25  C   UNL     1      -1.436   3.523  24.880  0.00  0.00    +0.054 A 
ATOM     26  C   UNL     1      -1.141   3.832  24.175  0.00  0.00    +0.005 A 
ATOM     27  C   UNL     1      -0.827   4.596  24.158  0.00  0.00    +0.000 A 
ATOM     28  C   UNL     1      -0.808   5.048  24.847  0.00  0.00    +0.000 A 
ATOM     29  C   UNL     1      -1.103   4.739  25.553  0.00  0.00    +0.000 A 
ATOM     30  C   UNL     1      -1.416   3.977  25.569  0.00  0.00    +0.005 A 
ENDBRANCH  23  25
BRANCH  13  12
ATOM     12  C   UNL     1      -4.002   1.015  25.112  0.00  0.00    +0.047 C 
BRANCH  12  11
ATOM      3  C   UNL     1      -3.479  -1.908  24.935  0.00  0.00    +0.172 A 
ATOM      4  C   UNL     1      -3.465  -1.625  24.160  0.00  0.00    +0.036 A 
ATOM      5  C   UNL     1      -3.592  -0.824  24.010  0.00  0.00    -0.016 A 
ATOM      6  C   UNL     1      -3.734  -0.304  24.636  0.00  0.00    +0.012 A 
ATOM      7  C   UNL     1      -3.748  -0.588  25.411  0.00  0.00    +0.041 A 
ATOM      8  C   UNL     1      -3.621  -1.389  25.561  0.00  0.00    +0.172 A 
ATOM     11  C   UNL     1      -3.860   0.496  24.487  0.00  0.00    +0.054 C 
ATOM     31  N   UNL     1      -3.846   0.779  23.713  0.00  0.00    -0.274 NA
ATOM     32  C   UNL     1      -3.704   0.259  23.086  0.00  0.00    +0.130 C 
ATOM     33  C   UNL     1      -3.578  -0.541  23.236  0.00  0.00    +0.053 C 
BRANCH   3   2
ATOM      1  C   UNL     1      -3.407  -3.257  24.471  0.00  0.00    +0.253 C 
ATOM      2  O   UNL     1      -3.352  -2.709  25.085  0.00  0.00    -0.468 OA
ENDBRANCH   3   2
BRANCH   8   9
ATOM      9  O   UNL     1      -3.635  -1.671  26.336  0.00  0.00    -0.468 OA
ATOM     10  C   UNL     1      -3.087  -1.395  26.886  0.00  0.00    +0.253 C 
ENDBRANCH   8   9
ENDBRANCH  12  11
ENDBRANCH  13  12
BRANCH  18  19
ATOM     19  C   UNL     1      -4.999   2.321  25.262  0.00  0.00    +0.114 C 
BRANCH  19  20
ATOM     20  C   UNL     1      -5.453   2.896  25.641  0.00  0.00    +0.365 C 
ATOM     21  O   UNL     1      -5.731   3.548  25.218  0.00  0.00    -0.246 OA
ATOM     22  O   UNL     1      -5.628   2.820  26.444  0.00  0.00    -0.246 OA
ENDBRANCH  19  20
ENDBRANCH  18  19
TORSDOF 7
ENDMDL
MODEL 4
REMARK VINA RESULT:     -10.4      1.579      2.954
REMARK  Name = 
REMARK  7 active torsions:
REMARK  status: ('A' for Active; 'I' for Inactive)
REMARK    1  A    between atoms: O_2  and  C_3
REMARK    2  A    between atoms: C_8  and  O_9
REMARK    3  A    between atoms: C_11  and  C_12
REMARK    4  A    between atoms: C_12  and  C_13
REMARK    5  A    between atoms: C_18  and  C_19
REMARK    6  A    between atoms: C_19  and  C_20
REMARK    7  A    between atoms: C_23  and  C_25
REMARK                            x       y       z     vdW  Elec       q    Type
REMARK                         _______ _______ _______ _____ _____    ______ ____
ROOT
ATOM     13  C   UNL     1      -1.553   0.520  24.272  0.00  0.00    +0.026 C 
ATOM     14  C   UNL     1      -2.292   0.249  24.514  0.00  0.00    +0.094 C 
ATOM     15  N   UNL     1      -2.462  -0.559  24.494  0.00  0.00    -0.276 N 
ATOM     16  C   UNL     1      -1.892  -1.093  24.231  0.00  0.00    +0.094 C 
ATOM     17  C   UNL     1      -1.152  -0.822  23.989  0.00  0.00    +0.022 C 
ATOM     18  C   UNL     1      -0.982  -0.015  24.009  0.00  0.00    +0.015 C 
ATOM     23  C   UNL     1      -3.203  -0.830  24.736  0.00  0.00    +0.249 C 
ATOM     24  O   UNL     1      -3.773  -0.295  24.999  0.00  0.00    -0.270 OA
ENDROOT
BRANCH  23  25
ATOM     25  C   UNL     1      -3.372  -1.637  24.716  0.00  0.00    +0.054 A 
ATOM     26  C   UNL     1      -3.757  -1.961  24.062  0.00  0.00    +0.005 A 
ATOM     27  C   UNL     1      -3.927  -2.769  24.042  0.00  0.00    +0.000 A 
ATOM     28  C   UNL     1      -3.712  -3.251  24.676  0.00  0.00    +0.000 A 
ATOM     29  C   UNL     1      -3.327  -2.927  25.329  0.00  0.00    +0.000 A 
ATOM     30  C   UNL     1      -3.158  -2.120  25.349  0.00  0.00    +0.005 A 
ENDBRANCH  23  25
BRANCH  13  12
ATOM     12  C   UNL     1      -1.382   1.327  24.292  0.00  0.00    +0.047 C 
BRANCH  12  11
ATOM      3  C   UNL     1      -2.342   3.853  25.538  0.00  0.00    +0.172 A 
ATOM      4  C   UNL     1      -2.798   3.744  24.859  0.00  0.00    +0.036 A 
ATOM      5  C   UNL     1      -2.672   3.086  24.377  0.00  0.00    -0.016 A 
ATOM      6  C   UNL     1      -2.090   2.535  24.575  0.00  0.00    +0.012 A 
ATOM      7  C   UNL     1      -1.634   2.644  25.254  0.00  0.00    +0.041 A 
ATOM      8  C   UNL     1      -1.759   3.302  25.736  0.00  0.00    +0.172 A 
ATOM     11  C   UNL     1      -1.964   1.877  24.094  0.00  0.00    +0.054 C 
ATOM     31  N   UNL     1      -2.420   1.769  23.416  0.00  0.00    -0.274 NA
ATOM     32  C   UNL     1      -3.003   2.320  23.218  0.00  0.00    +0.130 C 
ATOM     33  C   UNL     1      -3.128   2.978  23.699  0.00  0.00    +0.053 C 
BRANCH   3   2
ATOM      1  C   UNL     1      -3.232   4.793  26.140  0.00  0.00    +0.253 C 
ATOM      2  O   UNL     1      -2.467   4.511  26.018  0.00  0.00    -0.468 OA
ENDBRANCH   3   2
BRANCH   8   9
ATOM      9  O   UNL     1      -1.303   3.410  26.414  0.00  0.00    -0.468 OA
ATOM     10  C   UNL     1      -0.571   3.038  26.482  0.00  0.00    +0.253 C 
ENDBRANCH   8   9
ENDBRANCH  12  11
ENDBRANCH  13  12
BRANCH  18  19
ATOM     19  C   UNL     1      -0.242   0.257  23.767  0.00  0.00    +0.114 C 
BRANCH  19  20
ATOM     20  C   UNL     1       0.327  -0.278  23.502  0.00  0.00    +0.365 C 
ATOM     21  O   UNL     1       0.733  -0.751  24.043  0.00  0.00    -0.246 OA
ATOM     22  O   UNL     1       0.491  -0.341  22.695  0.00  0.00    -0.246 OA
ENDBRANCH  19  20
ENDBRANCH  18  19
TORSDOF 7
ENDMDL
MODEL 5
REMARK VINA RESULT:     -10.0      1.556      5.320
REMARK  Name = 
REMARK  7 active torsions:
REMARK  status: ('A' for Active; 'I' for Inactive)
REMARK    1  A    between atoms: O_2  and  C_3
REMARK    2  A    between atoms: C_8  and  O_9
REMARK    3  A    between atoms: C_11  and  C_12
REMARK    4  A    between atoms: C_12  and  C_13
REMARK    5  A    between atoms: C_18  and  C_19
REMARK    6  A    between atoms: C_19  and  C_20
REMARK    7  A    between atoms: C_23  and  C_25
REMARK                            x       y       z     vdW  Elec       q    Type
REMARK                         _______ _______ _______ _____ _____    ______ ____
ROOT
ATOM     13  C   UNL     1      -2.449   1.566  23.796  0.00  0.00    +0.026 C 
ATOM     14  C   UNL     1      -2.180   1.927  24.487  0.00  0.00    +0.094 C 
ATOM     15  N   UNL     1      -2.011   2.735  24.491  0.00  0.00    -0.276 N 
ATOM     16  C   UNL     1      -2.110   3.180  23.804  0.00  0.00    +0.094 C 
ATOM     17  C   UNL     1      -2.378   2.819  23.113  0.00  0.00    +0.022 C 
ATOM     18  C   UNL     1      -2.548   2.012  23.109  0.00  0.00    +0.015 C 
ATOM     23  C   UNL     1      -1.743   3.097  25.182  0.00  0.00    +0.249 C 
ATOM     24  O   UNL     1      -1.644   2.651  25.869  0.00  0.00    -0.270 OA
ENDROOT
BRANCH  23  25
ATOM     25  C   UNL     1      -1.573   3.904  25.186  0.00  0.00    +0.054 A 
ATOM     26  C   UNL     1      -0.825   4.169  24.963  0.00  0.00    +0.005 A 
ATOM     27  C   UNL     1      -0.655   4.977  24.967  0.00  0.00    +0.000 A 
ATOM     28  C   UNL     1      -1.235   5.519  25.193  0.00  0.00    +0.000 A 
ATOM     29  C   UNL     1      -1.983   5.253  25.416  0.00  0.00    +0.000 A 
ATOM     30  C   UNL     1      -2.152   4.447  25.412  0.00  0.00    +0.005 A 
ENDBRANCH  23  25
BRANCH  13  12
ATOM     12  C   UNL     1      -2.618   0.759  23.792  0.00  0.00    +0.047 C 
BRANCH  12  11
ATOM      3  C   UNL     1      -3.058  -1.876  25.103  0.00  0.00    +0.172 A 
ATOM      4  C   UNL     1      -3.695  -1.399  25.325  0.00  0.00    +0.036 A 
ATOM      5  C   UNL     1      -3.744  -0.622  25.054  0.00  0.00    -0.016 A 
ATOM      6  C   UNL     1      -3.156  -0.320  24.558  0.00  0.00    +0.012 A 
ATOM      7  C   UNL     1      -2.520  -0.796  24.336  0.00  0.00    +0.041 A 
ATOM      8  C   UNL     1      -2.470  -1.574  24.608  0.00  0.00    +0.172 A 
ATOM     11  C   UNL     1      -3.205   0.457  24.287  0.00  0.00    +0.054 C 
ATOM     31  N   UNL     1      -3.841   0.932  24.509  0.00  0.00    -0.274 NA
ATOM     32  C   UNL     1      -4.429   0.630  25.004  0.00  0.00    +0.130 C 
ATOM     33  C   UNL     1      -4.380  -0.146  25.276  0.00  0.00    +0.053 C 
BRANCH   3   2
ATOM      1  C   UNL     1      -3.599  -3.195  25.181  0.00  0.00    +0.253 C 
ATOM      2  O   UNL     1      -3.009  -2.652  25.375  0.00  0.00    -0.468 OA
ENDBRANCH   3   2
BRANCH   8   9
ATOM      9  O   UNL     1      -1.835  -2.049  24.385  0.00  0.00    -0.468 OA
ATOM     10  C   UNL     1      -1.063  -1.774  24.474  0.00  0.00    +0.253 C 
ENDBRANCH   8   9
ENDBRANCH  12  11
ENDBRANCH  13  12
BRANCH  18  19
ATOM     19  C   UNL     1      -2.816   1.650  22.418  0.00  0.00    +0.114 C 
BRANCH  19  20
ATOM     20  C   UNL     1      -2.742   2.037  21.694  0.00  0.00    +0.365 C 
ATOM     21  O   UNL     1      -3.280   2.625  21.482  0.00  0.00    -0.246 OA
ATOM     22  O   UNL     1      -2.127   1.837  21.180  0.00  0.00    -0.246 OA
ENDBRANCH  19  20
ENDBRANCH  18  19
TORSDOF 7
ENDMDL
MODEL 6
REMARK VINA RESULT:      -9.5      1.933      3.219
REMARK  Name = 
REMARK  7 active torsions:
REMARK  status: ('A' for Active; 'I' for Inactive)
REMARK    1  A    between atoms: O_2  and  C_3
REMARK    2  A    between atoms: C_8  and  O_9
REMARK    3  A    between atoms: C_11  and  C_12
REMARK    4  A    between atoms: C_12  and  C_13
REMARK    5  A    between atoms: C_18  and  C_19
REMARK    6  A    between atoms: C_19  and  C_20
REMARK    7  A    between atoms: C_23  and  C_25
REMARK                            x       y       z     vdW  Elec       q    Type
REMARK                         _______ _______ _______ _____ _____    ______ ____
ROOT
ATOM     13  C   UNL     1      -3.568  -0.128  24.595  0.00  0.00    +0.026 C 
ATOM     14  C   UNL     1      -2.824   0.091  24.874  0.00  0.00    +0.094 C 
ATOM     15  N   UNL     1      -2.198  -0.447  24.846  0.00  0.00    -0.276 N 
ATOM     16  C   UNL     1      -2.318  -1.203  24.539  0.00  0.00    +0.094 C 
ATOM     17  C   UNL     1      -3.062  -1.422  24.260  0.00  0.00    +0.022 C 
ATOM     18  C   UNL     1      -3.688  -0.885  24.288  0.00  0.00    +0.015 C 
ATOM     23  C   UNL     1      -1.454  -0.228  25.125  0.00  0.00    +0.249 C 
ATOM     24  O   UNL     1      -1.335   0.529  25.432  0.00  0.00    -0.270 OA
ENDROOT
BRANCH  23  25
ATOM     25  C   UNL     1      -0.829  -0.765  25.097  0.00  0.00    +0.054 A 
ATOM     26  C   UNL     1      -0.296  -0.745  24.467  0.00  0.00    +0.005 A 
ATOM     27  C   UNL     1       0.330  -1.283  24.438  0.00  0.00    +0.000 A 
ATOM     28  C   UNL     1       0.422  -1.839  25.040  0.00  0.00    +0.000 A 
ATOM     29  C   UNL     1      -0.110  -1.859  25.670  0.00  0.00    +0.000 A 
ATOM     30  C   UNL     1      -0.735  -1.322  25.698  0.00  0.00    +0.005 A 
ENDBRANCH  23  25
BRANCH  13  12
ATOM     12  C   UNL     1      -4.194   0.408  24.623  0.00  0.00    +0.047 C 
BRANCH  12  11
ATOM      3  C   UNL     1      -5.302   3.057  25.405  0.00  0.00    +0.172 A 
ATOM      4  C   UNL     1      -4.796   3.198  24.769  0.00  0.00    +0.036 A 
ATOM      5  C   UNL     1      -4.393   2.572  24.413  0.00  0.00    -0.016 A 
ATOM      6  C   UNL     1      -4.495   1.803  24.696  0.00  0.00    +0.012 A 
ATOM      7  C   UNL     1      -5.000   1.661  25.332  0.00  0.00    +0.041 A 
ATOM      8  C   UNL     1      -5.404   2.287  25.687  0.00  0.00    +0.172 A 
ATOM     11  C   UNL     1      -4.092   1.177  24.341  0.00  0.00    +0.054 C 
ATOM     31  N   UNL     1      -3.587   1.319  23.705  0.00  0.00    -0.274 NA
ATOM     32  C   UNL     1      -3.485   2.089  23.423  0.00  0.00    +0.130 C 
ATOM     33  C   UNL     1      -3.888   2.714  23.777  0.00  0.00    +0.053 C 
BRANCH   3   2
ATOM      1  C   UNL     1      -5.579   4.455  25.499  0.00  0.00    +0.253 C 
ATOM      2  O   UNL     1      -5.705   3.683  25.760  0.00  0.00    -0.468 OA
ENDBRANCH   3   2
BRANCH   8   9
ATOM      9  O   UNL     1      -5.909   2.145  26.323  0.00  0.00    -0.468 OA
ATOM     10  C   UNL     1      -6.417   1.497  26.310  0.00  0.00    +0.253 C 
ENDBRANCH   8   9
ENDBRANCH  12  11
ENDBRANCH  13  12
BRANCH  18  19
ATOM     19  C   UNL     1      -4.433  -1.104  24.009  0.00  0.00    +0.114 C 
BRANCH  19  20
ATOM     20  C   UNL     1      -4.564  -1.874  23.746  0.00  0.00    +0.365 C 
ATOM     21  O   UNL     1      -4.778  -2.464  24.282  0.00  0.00    -0.246 OA
ATOM     22  O   UNL     1      -4.481  -2.057  22.944  0.00  0.00    -0.246 OA
ENDBRANCH  19  20
ENDBRANCH  18  19
TORSDOF 7
ENDMDL
MODEL 7
REMARK VINA RESULT:      -8.9      2.262      4.040
REMARK  Name = 
REMARK  7 active torsions:
REMARK  status: ('A' for Active; 'I' for Inactive)
REMARK    1  A    between atoms: O_2  and  C_3
REMARK    2  A    between atoms: C_8  and  O_9
REMARK    3  A    between atoms: C_11  and  C_12
REMARK    4  A    between atoms: C_12  and  C_13
REMARK    5  A    between atoms: C_18  and  C_19
REMARK    6  A    between atoms: C_19  and  C_20
REMARK    7  A    between atoms: C_23  and  C_25
REMARK                            x       y       z     vdW  Elec       q    Type
REMARK                         _______ _______ _______ _____ _____    ______ ____
ROOT
ATOM     13  C   UNL     1      -2.576   0.291  24.845  0.00  0.00    +0.026 C 
ATOM     14  C   UNL     1      -2.921   1.029  24.721  0.00  0.00    +0.094 C 
ATOM     15  N   UNL     1      -3.710   1.156  24.927  0.00  0.00    -0.276 N 
ATOM     16  C   UNL     1      -4.154   0.543  25.256  0.00  0.00    +0.094 C 
ATOM     17  C   UNL     1      -3.809  -0.195  25.380  0.00  0.00    +0.022 C 
ATOM     18  C   UNL     1      -3.021  -0.322  25.175  0.00  0.00    +0.015 C 
ATOM     23  C   UNL     1      -4.055   1.895  24.802  0.00  0.00    +0.249 C 
ATOM     24  O   UNL     1      -3.611   2.507  24.472  0.00  0.00    -0.270 OA
ENDROOT
BRANCH  23  25
ATOM     25  C   UNL     1      -4.844   2.021  25.008  0.00  0.00    +0.054 A 
ATOM     26  C   UNL     1      -5.447   1.762  24.508  0.00  0.00    +0.005 A 
ATOM     27  C   UNL     1      -6.236   1.888  24.714  0.00  0.00    +0.000 A 
ATOM     28  C   UNL     1      -6.422   2.275  25.418  0.00  0.00    +0.000 A 
ATOM     29  C   UNL     1      -5.818   2.535  25.918  0.00  0.00    +0.000 A 
ATOM     30  C   UNL     1      -5.030   2.408  25.712  0.00  0.00    +0.005 A 
ENDBRANCH  23  25
BRANCH  13  12
ATOM     12  C   UNL     1      -1.788   0.163  24.640  0.00  0.00    +0.047 C 
BRANCH  12  11
ATOM      3  C   UNL     1       0.894   0.881  23.570  0.00  0.00    +0.172 A 
ATOM      4  C   UNL     1       0.771   1.367  24.226  0.00  0.00    +0.036 A 
ATOM      5  C   UNL     1       0.070   1.310  24.657  0.00  0.00    -0.016 A 
ATOM      6  C   UNL     1      -0.509   0.765  24.433  0.00  0.00    +0.012 A 
ATOM      7  C   UNL     1      -0.386   0.279  23.778  0.00  0.00    +0.041 A 
ATOM      8  C   UNL     1       0.315   0.337  23.346  0.00  0.00    +0.172 A 
ATOM     11  C   UNL     1      -1.209   0.707  24.864  0.00  0.00    +0.054 C 
ATOM     31  N   UNL     1      -1.332   1.193  25.519  0.00  0.00    -0.274 NA
ATOM     32  C   UNL     1      -0.753   1.738  25.743  0.00  0.00    +0.130 C 
ATOM     33  C   UNL     1      -0.053   1.796  25.312  0.00  0.00    +0.053 C 
BRANCH   3   2
ATOM      1  C   UNL     1       2.249   1.321  23.465  0.00  0.00    +0.253 C 
ATOM      2  O   UNL     1       1.595   0.939  23.139  0.00  0.00    -0.468 OA
ENDBRANCH   3   2
BRANCH   8   9
ATOM      9  O   UNL     1       0.438  -0.149  22.691  0.00  0.00    -0.468 OA
ATOM     10  C   UNL     1       0.198  -0.937  22.711  0.00  0.00    +0.253 C 
ENDBRANCH   8   9
ENDBRANCH  12  11
ENDBRANCH  13  12
BRANCH  18  19
ATOM     19  C   UNL     1      -2.676  -1.061  25.299  0.00  0.00    +0.114 C 
BRANCH  19  20
ATOM     20  C   UNL     1      -3.152  -1.729  25.385  0.00  0.00    +0.365 C 
ATOM     21  O   UNL     1      -3.339  -2.190  24.727  0.00  0.00    -0.246 OA
ATOM     22  O   UNL     1      -3.441  -1.936  26.130  0.00  0.00    -0.246 OA
ENDBRANCH  19  20
ENDBRANCH  18  19
TORSDOF 7
ENDMDL
