MODEL 1
REMARK VINA RESULT:      -9.4      0.000      0.000
REMARK  Name = 
REMARK  10 active torsions:
REMARK  status: ('A' for Active; 'I' for Inactive)
REMARK    1  A    between atoms: O_2  and  C_3
REMARK    2  A    between atoms: C_3  and  C_4
REMARK    3  A    between atoms: C_4  and  N_5
REMARK    4  A    between atoms: N_8  and  C_9
REMARK    5  A    between atoms: C_9  and  C_10
REMARK    6  A    between atoms: C_14  and  C_15
REMARK    7  A    between atoms: C_15  and  C_16
REMARK    8  A    between atoms: C_19  and  C_21
REMARK    9  A    between atoms: C_24  and  O_25
REMARK   10  A    between atoms: C_30  and  C_31
REMARK                            x       y       z     vdW  Elec       q    Type
REMARK                         _______ _______ _______ _____ _____    ______ ____
ROOT
ATOM     10  C   UNL     1      -2.876  -0.892  24.649  0.00  0.00    +0.037 C 
ATOM     11  C   UNL     1      -2.915  -0.408  23.982  0.00  0.00    -0.034 C 
ATOM     12  C   UNL     1      -3.525   0.142  23.907  0.00  0.00    -0.048 C 
ATOM     13  C   UNL     1      -3.564   0.626  23.239  0.00  0.00    +0.026 C 
ATOM     14  C   UNL     1      -4.096   0.209  24.498  0.00  0.00    +0.027 C 
ATOM     29  C   UNL     1      -4.057  -0.275  25.165  0.00  0.00    +0.005 C 
ATOM     30  C   UNL     1      -3.448  -0.825  25.241  0.00  0.00    +0.006 C 
ENDROOT
BRANCH  30  31
ATOM     31  C   UNL     1      -3.409  -1.308  25.908  0.00  0.00    +0.000 C 
ATOM     32  C   UNL     1      -3.201  -0.987  26.639  0.00  0.00    +0.000 C 
ATOM     33  C   UNL     1      -3.577  -2.113  25.845  0.00  0.00    +0.000 C 
ENDBRANCH  30  31
BRANCH  10   9
ATOM      9  C   UNL     1      -2.267  -1.443  24.725  0.00  0.00    +0.076 C 
BRANCH   9   8
ATOM      5  N   UNL     1       0.020  -0.867  23.971  0.00  0.00    -0.268 NA
ATOM      6  C   UNL     1      -0.302  -0.497  24.635  0.00  0.00    +0.090 C 
ATOM      7  C   UNL     1      -1.063  -0.689  24.886  0.00  0.00    +0.090 C 
ATOM      8  N   UNL     1      -1.504  -1.251  24.474  0.00  0.00    -0.270 NA
ATOM     34  C   UNL     1      -1.184  -1.621  23.810  0.00  0.00    +0.090 C 
ATOM     35  C   UNL     1      -0.421  -1.429  23.559  0.00  0.00    +0.090 C 
BRANCH   5   4
ATOM      4  C   UNL     1       0.781  -0.675  23.720  0.00  0.00    +0.105 C 
BRANCH   4   3
ATOM      3  C   UNL     1       0.890  -0.183  23.067  0.00  0.00    +0.160 C 
BRANCH   3   2
ATOM      1  C   UNL     1       2.083   0.025  22.308  0.00  0.00    +0.174 C 
ATOM      2  O   UNL     1       1.608   0.207  22.958  0.00  0.00    -0.350 OA
ENDBRANCH   3   2
ENDBRANCH   4   3
ENDBRANCH   5   4
ENDBRANCH   9   8
ENDBRANCH  10   9
BRANCH  14  15
ATOM     15  C   UNL     1      -4.705   0.759  24.423  0.00  0.00    +0.091 C 
BRANCH  15  16
ATOM     16  C   UNL     1      -4.635   1.503  24.774  0.00  0.00    +0.227 A 
ATOM     17  N   UNL     1      -5.212   1.883  25.224  0.00  0.00    -0.111 NA
ATOM     18  N   UNL     1      -4.909   2.612  25.464  0.00  0.00    -0.107 NA
ATOM     19  C   UNL     1      -4.145   2.682  25.163  0.00  0.00    +0.250 A 
ATOM     20  O   UNL     1      -3.975   1.996  24.736  0.00  0.00    -0.420 OA
BRANCH  19  21
ATOM     21  C   UNL     1      -3.638   3.325  25.270  0.00  0.00    +0.055 A 
ATOM     22  C   UNL     1      -3.271   3.444  25.999  0.00  0.00    +0.008 A 
ATOM     23  C   UNL     1      -2.765   4.087  26.106  0.00  0.00    +0.037 A 
ATOM     24  C   UNL     1      -2.627   4.611  25.483  0.00  0.00    +0.139 A 
ATOM     27  C   UNL     1      -2.995   4.492  24.755  0.00  0.00    +0.037 A 
ATOM     28  C   UNL     1      -3.501   3.848  24.648  0.00  0.00    +0.008 A 
BRANCH  24  25
ATOM     25  O   UNL     1      -2.121   5.254  25.590  0.00  0.00    -0.471 OA
ATOM     26  C   UNL     1      -1.430   5.314  25.142  0.00  0.00    +0.252 C 
ENDBRANCH  24  25
ENDBRANCH  19  21
ENDBRANCH  15  16
ENDBRANCH  14  15
TORSDOF 10
ENDMDL
MODEL 2
REMARK VINA RESULT:      -9.3      2.071      3.527
REMARK  Name = 
REMARK  10 active torsions:
REMARK  status: ('A' for Active; 'I' for Inactive)
REMARK    1  A    between atoms: O_2  and  C_3
REMARK    2  A    between atoms: C_3  and  C_4
REMARK    3  A    between atoms: C_4  and  N_5
REMARK    4  A    between atoms: N_8  and  C_9
REMARK    5  A    between atoms: C_9  and  C_10
REMARK    6  A    between atoms: C_14  and  C_15
REMARK    7  A    between atoms: C_15  and  C_16
REMARK    8  A    between atoms: C_19  and  C_21
REMARK    9  A    between atoms: C_24  and  O_25
REMARK   10  A    between atoms: C_30  and  C_31
REMARK                            x       y       z     vdW  Elec       q    Type
REMARK                         _______ _______ _______ _____ _____    ______ ____
ROOT
ATOM     10  C   UNL     1      -0.783   1.515  24.525  0.00  0.00    +0.037 C 
ATOM     11  C   UNL     1      -1.228   1.387  23.842  0.00  0.00    -0.034 C 
ATOM     12  C   UNL     1      -1.727   1.979  23.557  0.00  0.00    -0.048 C 
ATOM     13  C   UNL     1      -2.172   1.850  22.874  0.00  0.00    +0.026 C 
ATOM     14  C   UNL     1      -1.782   2.699  23.955  0.00  0.00    +0.027 C 
ATOM     29  C   UNL     1      -1.337   2.828  24.638  0.00  0.00    +0.005 C 
ATOM     30  C   UNL     1      -0.837   2.237  24.923  0.00  0.00    +0.006 C 
ENDROOT
BRANCH  30  31
ATOM     31  C   UNL     1      -0.393   2.365  25.605  0.00  0.00    +0.000 C 
ATOM     32  C   UNL     1      -0.762   2.366  26.344  0.00  0.00    +0.000 C 
ATOM     33  C   UNL     1       0.420   2.494  25.550  0.00  0.00    +0.000 C 
ENDBRANCH  30  31
BRANCH  10   9
ATOM      9  C   UNL     1      -0.284   0.924  24.810  0.00  0.00    +0.076 C 
BRANCH   9   8
ATOM      5  N   UNL     1      -1.017  -1.440  24.767  0.00  0.00    -0.268 NA
ATOM      6  C   UNL     1      -1.295  -0.932  25.355  0.00  0.00    +0.090 C 
ATOM      7  C   UNL     1      -1.051  -0.145  25.370  0.00  0.00    +0.090 C 
ATOM      8  N   UNL     1      -0.528   0.136  24.796  0.00  0.00    -0.270 NA
ATOM     34  C   UNL     1      -0.250  -0.371  24.207  0.00  0.00    +0.090 C 
ATOM     35  C   UNL     1      -0.495  -1.160  24.193  0.00  0.00    +0.090 C 
BRANCH   5   4
ATOM      4  C   UNL     1      -1.262  -2.227  24.753  0.00  0.00    +0.105 C 
BRANCH   4   3
ATOM      3  C   UNL     1      -2.023  -2.419  24.500  0.00  0.00    +0.160 C 
BRANCH   3   2
ATOM      1  C   UNL     1      -3.109  -3.348  24.500  0.00  0.00    +0.174 C 
ATOM      2  O   UNL     1      -2.303  -3.190  24.580  0.00  0.00    -0.350 OA
ENDBRANCH   3   2
ENDBRANCH   4   3
ENDBRANCH   5   4
ENDBRANCH   9   8
ENDBRANCH  10   9
BRANCH  14  15
ATOM     15  C   UNL     1      -2.280   3.291  23.670  0.00  0.00    +0.091 C 
BRANCH  15  16
ATOM     16  C   UNL     1      -2.992   3.452  24.057  0.00  0.00    +0.227 A 
ATOM     17  N   UNL     1      -3.304   4.200  24.205  0.00  0.00    -0.111 NA
ATOM     18  N   UNL     1      -4.021   4.103  24.603  0.00  0.00    -0.107 NA
ATOM     19  C   UNL     1      -4.151   3.294  24.700  0.00  0.00    +0.250 A 
ATOM     20  O   UNL     1      -3.515   2.891  24.363  0.00  0.00    -0.420 OA
BRANCH  19  21
ATOM     21  C   UNL     1      -4.803   2.949  25.070  0.00  0.00    +0.055 A 
ATOM     22  C   UNL     1      -5.207   2.332  24.702  0.00  0.00    +0.008 A 
ATOM     23  C   UNL     1      -5.859   1.987  25.072  0.00  0.00    +0.037 A 
ATOM     24  C   UNL     1      -6.106   2.260  25.811  0.00  0.00    +0.139 A 
ATOM     27  C   UNL     1      -5.701   2.877  26.179  0.00  0.00    +0.037 A 
ATOM     28  C   UNL     1      -5.049   3.222  25.809  0.00  0.00    +0.008 A 
BRANCH  24  25
ATOM     25  O   UNL     1      -6.758   1.915  26.181  0.00  0.00    -0.471 OA
ATOM     26  C   UNL     1      -6.665   1.525  26.903  0.00  0.00    +0.252 C 
ENDBRANCH  24  25
ENDBRANCH  19  21
ENDBRANCH  15  16
ENDBRANCH  14  15
TORSDOF 10
ENDMDL
MODEL 3
REMARK VINA RESULT:      -9.3      1.829      4.317
REMARK  Name = 
REMARK  10 active torsions:
REMARK  status: ('A' for Active; 'I' for Inactive)
REMARK    1  A    between atoms: O_2  and  C_3
REMARK    2  A    between atoms: C_3  and  C_4
REMARK    3  A    between atoms: C_4  and  N_5
REMARK    4  A    between atoms: N_8  and  C_9
REMARK    5  A    between atoms: C_9  and  C_10
REMARK    6  A    between atoms: C_14  and  C_15
REMARK    7  A    between atoms: C_15  and  C_16
REMARK    8  A    between atoms: C_19  and  C_21
REMARK    9  A    between atoms: C_24  and  O_25
REMARK   10  A    between atoms: C_30  and  C_31
REMARK                            x       y       z     vdW  Elec       q    Type
REMARK                         _______ _______ _______ _____ _____    ______ ____
ROOT
ATOM     10  C   UNL     1      -2.394   3.502  24.794  0.00  0.00    +0.037 C 
ATOM     11  C   UNL     1      -2.511   3.117  24.074  0.00  0.00    -0.034 C 
ATOM     12  C   UNL     1      -3.244   2.778  23.902  0.00  0.00    -0.048 C 
ATOM     13  C   UNL     1      -3.361   2.393  23.181  0.00  0.00    +0.026 C 
ATOM     14  C   UNL     1      -3.859   2.824  24.450  0.00  0.00    +0.027 C 
ATOM     29  C   UNL     1      -3.742   3.209  25.170  0.00  0.00    +0.005 C 
ATOM     30  C   UNL     1      -3.010   3.548  25.343  0.00  0.00    +0.006 C 
ENDROOT
BRANCH  30  31
ATOM     31  C   UNL     1      -2.893   3.933  26.062  0.00  0.00    +0.000 C 
ATOM     32  C   UNL     1      -2.812   3.494  26.757  0.00  0.00    +0.000 C 
ATOM     33  C   UNL     1      -2.857   4.757  26.089  0.00  0.00    +0.000 C 
ENDBRANCH  30  31
BRANCH  10   9
ATOM      9  C   UNL     1      -1.662   3.841  24.967  0.00  0.00    +0.076 C 
BRANCH   9   8
ATOM      5  N   UNL     1       0.423   2.631  24.405  0.00  0.00    -0.268 NA
ATOM      6  C   UNL     1      -0.005   2.425  25.080  0.00  0.00    +0.090 C 
ATOM      7  C   UNL     1      -0.699   2.828  25.267  0.00  0.00    +0.090 C 
ATOM      8  N   UNL     1      -0.967   3.437  24.780  0.00  0.00    -0.270 NA
ATOM     34  C   UNL     1      -0.540   3.644  24.105  0.00  0.00    +0.090 C 
ATOM     35  C   UNL     1       0.156   3.241  23.918  0.00  0.00    +0.090 C 
BRANCH   5   4
ATOM      4  C   UNL     1       1.118   2.228  24.218  0.00  0.00    +0.105 C 
BRANCH   4   3
ATOM      3  C   UNL     1       1.082   1.504  23.824  0.00  0.00    +0.160 C 
BRANCH   3   2
ATOM      1  C   UNL     1       1.738   0.430  23.146  0.00  0.00    +0.174 C 
ATOM      2  O   UNL     1       1.769   1.168  23.515  0.00  0.00    -0.350 OA
ENDBRANCH   3   2
ENDBRANCH   4   3
ENDBRANCH   5   4
ENDBRANCH   9   8
ENDBRANCH  10   9
BRANCH  14  15
ATOM     15  C   UNL     1      -4.591   2.486  24.278  0.00  0.00    +0.091 C 
BRANCH  15  16
ATOM     16  C   UNL     1      -4.760   1.718  24.531  0.00  0.00    +0.227 A 
ATOM     17  N   UNL     1      -5.446   1.478  24.921  0.00  0.00    -0.111 NA
ATOM     18  N   UNL     1      -5.383   0.668  25.070  0.00  0.00    -0.107 NA
ATOM     19  C   UNL     1      -4.658   0.410  24.772  0.00  0.00    +0.250 A 
ATOM     20  O   UNL     1      -4.273   1.059  24.439  0.00  0.00    -0.420 OA
BRANCH  19  21
ATOM     21  C   UNL     1      -4.370  -0.363  24.802  0.00  0.00    +0.055 A 
ATOM     22  C   UNL     1      -4.507  -0.879  24.174  0.00  0.00    +0.008 A 
ATOM     23  C   UNL     1      -4.218  -1.652  24.204  0.00  0.00    +0.037 A 
ATOM     24  C   UNL     1      -3.792  -1.907  24.863  0.00  0.00    +0.139 A 
ATOM     27  C   UNL     1      -3.655  -1.391  25.491  0.00  0.00    +0.037 A 
ATOM     28  C   UNL     1      -3.944  -0.618  25.461  0.00  0.00    +0.008 A 
BRANCH  24  25
ATOM     25  O   UNL     1      -3.504  -2.680  24.893  0.00  0.00    -0.471 OA
ATOM     26  C   UNL     1      -2.793  -2.870  24.519  0.00  0.00    +0.252 C 
ENDBRANCH  24  25
ENDBRANCH  19  21
ENDBRANCH  15  16
ENDBRANCH  14  15
TORSDOF 10
ENDMDL
MODEL 4
REMARK VINA RESULT:      -9.2      2.059      6.241
REMARK  Name = 
REMARK  10 active torsions:
REMARK  status: ('A' for Active; 'I' for Inactive)
REMARK    1  A    between atoms: O_2  and  C_3
REMARK    2  A    between atoms: C_3  and  C_4
REMARK    3  A    between atoms: C_4  and  N_5
REMARK    4  A    between atoms: N_8  and  C_9
REMARK    5  A    between atoms: C_9  and  C_10
REMARK    6  A    between atoms: C_14  and  C_15
REMARK    7  A    between atoms: C_15  and  C_16
REMARK    8  A    between atoms: C_19  and  C_21
REMARK    9  A    between atoms: C_24  and  O_25
REMARK   10  A    between atoms: C_30  and  C_31
REMARK                            x       y       z     vdW  Elec       q    Type
REMARK                         _______ _______ _______ _____ _____    ______ ____
ROOT
ATOM     10  C   UNL     1      -1.322   2.176  24.415  0.00  0.00    +0.037 C 
ATOM     11  C   UNL     1      -1.746   1.518  24.153  0.00  0.00    -0.034 C 
ATOM     12  C   UNL     1      -1.352   0.811  23.996  0.00  0.00    -0.048 C 
ATOM     13  C   UNL     1      -1.776   0.152  23.734  0.00  0.00    +0.026 C 
ATOM     14  C   UNL     1      -0.536   0.760  24.100  0.00  0.00    +0.027 C 
ATOM     29  C   UNL     1      -0.112   1.418  24.362  0.00  0.00    +0.005 C 
ATOM     30  C   UNL     1      -0.505   2.127  24.519  0.00  0.00    +0.006 C 
ENDROOT
BRANCH  30  31
ATOM     31  C   UNL     1      -0.082   2.784  24.780  0.00  0.00    +0.000 C 
ATOM     32  C   UNL     1       0.129   2.849  25.576  0.00  0.00    +0.000 C 
ATOM     33  C   UNL     1       0.131   3.376  24.248  0.00  0.00    +0.000 C 
ENDBRANCH  30  31
BRANCH  10   9
ATOM      9  C   UNL     1      -1.715   2.884  24.572  0.00  0.00    +0.076 C 
BRANCH   9   8
ATOM      5  N   UNL     1      -4.180   2.905  24.805  0.00  0.00    -0.268 NA
ATOM      6  C   UNL     1      -3.704   2.769  25.465  0.00  0.00    +0.090 C 
ATOM      7  C   UNL     1      -2.883   2.762  25.387  0.00  0.00    +0.090 C 
ATOM      8  N   UNL     1      -2.537   2.891  24.649  0.00  0.00    -0.270 NA
ATOM     34  C   UNL     1      -3.012   3.028  23.989  0.00  0.00    +0.090 C 
ATOM     35  C   UNL     1      -3.834   3.035  24.067  0.00  0.00    +0.090 C 
BRANCH   5   4
ATOM      4  C   UNL     1      -5.001   2.912  24.882  0.00  0.00    +0.105 C 
BRANCH   4   3
ATOM      3  C   UNL     1      -5.406   2.213  25.048  0.00  0.00    +0.160 C 
BRANCH   3   2
ATOM      1  C   UNL     1      -6.620   1.461  24.992  0.00  0.00    +0.174 C 
ATOM      2  O   UNL     1      -6.228   2.187  24.984  0.00  0.00    -0.350 OA
ENDBRANCH   3   2
ENDBRANCH   4   3
ENDBRANCH   5   4
ENDBRANCH   9   8
ENDBRANCH  10   9
BRANCH  14  15
ATOM     15  C   UNL     1      -0.142   0.053  23.944  0.00  0.00    +0.091 C 
BRANCH  15  16
ATOM     16  C   UNL     1       0.512   0.048  23.439  0.00  0.00    +0.227 A 
ATOM     17  N   UNL     1       0.493  -0.057  22.622  0.00  0.00    -0.111 NA
ATOM     18  N   UNL     1       1.268  -0.024  22.343  0.00  0.00    -0.107 NA
ATOM     19  C   UNL     1       1.767   0.102  22.988  0.00  0.00    +0.250 A 
ATOM     20  O   UNL     1       1.299   0.146  23.667  0.00  0.00    -0.420 OA
BRANCH  19  21
ATOM     21  C   UNL     1       2.589   0.171  22.960  0.00  0.00    +0.055 A 
ATOM     22  C   UNL     1       3.063  -0.485  23.115  0.00  0.00    +0.008 A 
ATOM     23  C   UNL     1       3.885  -0.416  23.087  0.00  0.00    +0.037 A 
ATOM     24  C   UNL     1       4.231   0.311  22.903  0.00  0.00    +0.139 A 
ATOM     27  C   UNL     1       3.756   0.967  22.749  0.00  0.00    +0.037 A 
ATOM     28  C   UNL     1       2.934   0.897  22.777  0.00  0.00    +0.008 A 
BRANCH  24  25
ATOM     25  O   UNL     1       5.053   0.380  22.875  0.00  0.00    -0.471 OA
ATOM     26  C   UNL     1       5.512   0.108  23.505  0.00  0.00    +0.252 C 
ENDBRANCH  24  25
ENDBRANCH  19  21
ENDBRANCH  15  16
ENDBRANCH  14  15
TORSDOF 10
ENDMDL
MODEL 5
REMARK VINA RESULT:      -9.2      1.582      2.285
REMARK  Name = 
REMARK  10 active torsions:
REMARK  status: ('A' for Active; 'I' for Inactive)
REMARK    1  A    between atoms: O_2  and  C_3
REMARK    2  A    between atoms: C_3  and  C_4
REMARK    3  A    between atoms: C_4  and  N_5
REMARK    4  A    between atoms: N_8  and  C_9
REMARK    5  A    between atoms: C_9  and  C_10
REMARK    6  A    between atoms: C_14  and  C_15
REMARK    7  A    between atoms: C_15  and  C_16
REMARK    8  A    between atoms: C_19  and  C_21
REMARK    9  A    between atoms: C_24  and  O_25
REMARK   10  A    between atoms: C_30  and  C_31
REMARK                            x       y       z     vdW  Elec       q    Type
REMARK                         _______ _______ _______ _____ _____    ______ ____
ROOT
ATOM     10  C   UNL     1      -1.182  -0.038  24.377  0.00  0.00    +0.037 C 
ATOM     11  C   UNL     1      -1.350   0.483  23.759  0.00  0.00    -0.034 C 
ATOM     12  C   UNL     1      -2.131   0.599  23.520  0.00  0.00    -0.048 C 
ATOM     13  C   UNL     1      -2.300   1.120  22.902  0.00  0.00    +0.026 C 
ATOM     14  C   UNL     1      -2.743   0.196  23.898  0.00  0.00    +0.027 C 
ATOM     29  C   UNL     1      -2.575  -0.324  24.516  0.00  0.00    +0.005 C 
ATOM     30  C   UNL     1      -1.794  -0.441  24.755  0.00  0.00    +0.006 C 
ENDROOT
BRANCH  30  31
ATOM     31  C   UNL     1      -1.626  -0.961  25.372  0.00  0.00    +0.000 C 
ATOM     32  C   UNL     1      -1.595  -1.774  25.231  0.00  0.00    +0.000 C 
ATOM     33  C   UNL     1      -1.487  -0.670  26.132  0.00  0.00    +0.000 C 
ENDBRANCH  30  31
BRANCH  10   9
ATOM      9  C   UNL     1      -0.401  -0.155  24.617  0.00  0.00    +0.076 C 
BRANCH   9   8
ATOM      5  N   UNL     1       1.458   0.351  23.062  0.00  0.00    -0.268 NA
ATOM      6  C   UNL     1       1.090  -0.387  23.039  0.00  0.00    +0.090 C 
ATOM      7  C   UNL     1       0.470  -0.556  23.557  0.00  0.00    +0.090 C 
ATOM      8  N   UNL     1       0.219   0.014  24.098  0.00  0.00    -0.270 NA
ATOM     34  C   UNL     1       0.587   0.751  24.122  0.00  0.00    +0.090 C 
ATOM     35  C   UNL     1       1.207   0.920  23.604  0.00  0.00    +0.090 C 
BRANCH   5   4
ATOM      4  C   UNL     1       2.078   0.519  22.545  0.00  0.00    +0.105 C 
BRANCH   4   3
ATOM      3  C   UNL     1       2.859   0.395  22.781  0.00  0.00    +0.160 C 
BRANCH   3   2
ATOM      1  C   UNL     1       4.236   0.737  22.616  0.00  0.00    +0.174 C 
ATOM      2  O   UNL     1       3.480   0.645  22.300  0.00  0.00    -0.350 OA
ENDBRANCH   3   2
ENDBRANCH   4   3
ENDBRANCH   5   4
ENDBRANCH   9   8
ENDBRANCH  10   9
BRANCH  14  15
ATOM     15  C   UNL     1      -3.523   0.313  23.659  0.00  0.00    +0.091 C 
BRANCH  15  16
ATOM     16  C   UNL     1      -4.065   0.664  24.175  0.00  0.00    +0.227 A 
ATOM     17  N   UNL     1      -4.601   0.266  24.658  0.00  0.00    -0.111 NA
ATOM     18  N   UNL     1      -5.032   0.830  25.079  0.00  0.00    -0.107 NA
ATOM     19  C   UNL     1      -4.762   1.577  24.854  0.00  0.00    +0.250 A 
ATOM     20  O   UNL     1      -4.164   1.474  24.295  0.00  0.00    -0.420 OA
BRANCH  19  21
ATOM     21  C   UNL     1      -5.041   2.299  25.140  0.00  0.00    +0.055 A 
ATOM     22  C   UNL     1      -4.555   2.965  25.122  0.00  0.00    +0.008 A 
ATOM     23  C   UNL     1      -4.834   3.687  25.407  0.00  0.00    +0.037 A 
ATOM     24  C   UNL     1      -5.600   3.742  25.710  0.00  0.00    +0.139 A 
ATOM     27  C   UNL     1      -6.086   3.077  25.727  0.00  0.00    +0.037 A 
ATOM     28  C   UNL     1      -5.806   2.354  25.442  0.00  0.00    +0.008 A 
BRANCH  24  25
ATOM     25  O   UNL     1      -5.879   4.465  25.995  0.00  0.00    -0.471 OA
ATOM     26  C   UNL     1      -6.093   5.062  25.467  0.00  0.00    +0.252 C 
ENDBRANCH  24  25
ENDBRANCH  19  21
ENDBRANCH  15  16
ENDBRANCH  14  15
TORSDOF 10
ENDMDL
MODEL 6
REMARK VINA RESULT:      -9.2      2.102      5.902
REMARK  Name = 
REMARK  10 active torsions:
REMARK  status: ('A' for Active; 'I' for Inactive)
REMARK    1  A    between atoms: O_2  and  C_3
REMARK    2  A    between atoms: C_3  and  C_4
REMARK    3  A    between atoms: C_4  and  N_5
REMARK    4  A    between atoms: N_8  and  C_9
REMARK    5  A    between atoms: C_9  and  C_10
REMARK    6  A    between atoms: C_14  and  C_15
REMARK    7  A    between atoms: C_15  and  C_16
REMARK    8  A    between atoms: C_19  and  C_21
REMARK    9  A    between atoms: C_24  and  O_25
REMARK   10  A    between atoms: C_30  and  C_31
REMARK                            x       y       z     vdW  Elec       q    Type
REMARK                         _______ _______ _______ _____ _____    ______ ____
ROOT
ATOM     10  C   UNL     1      -0.945   2.869  25.052  0.00  0.00    +0.037 C 
ATOM     11  C   UNL     1      -1.281   2.677  24.324  0.00  0.00    -0.034 C 
ATOM     12  C   UNL     1      -1.014   2.015  23.909  0.00  0.00    -0.048 C 
ATOM     13  C   UNL     1      -1.349   1.823  23.179  0.00  0.00    +0.026 C 
ATOM     14  C   UNL     1      -0.413   1.546  24.223  0.00  0.00    +0.027 C 
ATOM     29  C   UNL     1      -0.078   1.738  24.952  0.00  0.00    +0.005 C 
ATOM     30  C   UNL     1      -0.343   2.399  25.367  0.00  0.00    +0.006 C 
ENDROOT
BRANCH  30  31
ATOM     31  C   UNL     1      -0.009   2.591  26.095  0.00  0.00    +0.000 C 
ATOM     32  C   UNL     1      -0.214   2.163  26.770  0.00  0.00    +0.000 C 
ATOM     33  C   UNL     1       0.532   3.212  26.150  0.00  0.00    +0.000 C 
ENDBRANCH  30  31
BRANCH  10   9
ATOM      9  C   UNL     1      -1.211   3.530  25.468  0.00  0.00    +0.076 C 
BRANCH   9   8
ATOM      5  N   UNL     1      -3.634   4.026  25.583  0.00  0.00    -0.268 NA
ATOM      6  C   UNL     1      -3.284   3.538  26.150  0.00  0.00    +0.090 C 
ATOM      7  C   UNL     1      -2.478   3.373  26.112  0.00  0.00    +0.090 C 
ATOM      8  N   UNL     1      -2.019   3.696  25.506  0.00  0.00    -0.270 NA
ATOM     34  C   UNL     1      -2.367   4.183  24.939  0.00  0.00    +0.090 C 
ATOM     35  C   UNL     1      -3.175   4.348  24.978  0.00  0.00    +0.090 C 
BRANCH   5   4
ATOM      4  C   UNL     1      -4.441   4.191  25.621  0.00  0.00    +0.105 C 
BRANCH   4   3
ATOM      3  C   UNL     1      -4.991   3.617  25.401  0.00  0.00    +0.160 C 
BRANCH   3   2
ATOM      1  C   UNL     1      -6.225   2.974  25.726  0.00  0.00    +0.174 C 
ATOM      2  O   UNL     1      -5.765   3.657  25.682  0.00  0.00    -0.350 OA
ENDBRANCH   3   2
ENDBRANCH   4   3
ENDBRANCH   5   4
ENDBRANCH   9   8
ENDBRANCH  10   9
BRANCH  14  15
ATOM     15  C   UNL     1      -0.147   0.885  23.808  0.00  0.00    +0.091 C 
BRANCH  15  16
ATOM     16  C   UNL     1      -0.337   0.126  24.075  0.00  0.00    +0.227 A 
ATOM     17  N   UNL     1       0.198  -0.440  24.344  0.00  0.00    -0.111 NA
ATOM     18  N   UNL     1      -0.229  -1.114  24.554  0.00  0.00    -0.107 NA
ATOM     19  C   UNL     1      -1.028  -0.963  24.415  0.00  0.00    +0.250 A 
ATOM     20  O   UNL     1      -1.095  -0.196  24.119  0.00  0.00    -0.420 OA
BRANCH  19  21
ATOM     21  C   UNL     1      -1.651  -1.487  24.550  0.00  0.00    +0.055 A 
ATOM     22  C   UNL     1      -2.305  -1.246  24.991  0.00  0.00    +0.008 A 
ATOM     23  C   UNL     1      -2.928  -1.771  25.125  0.00  0.00    +0.037 A 
ATOM     24  C   UNL     1      -2.896  -2.536  24.817  0.00  0.00    +0.139 A 
ATOM     27  C   UNL     1      -2.242  -2.776  24.376  0.00  0.00    +0.037 A 
ATOM     28  C   UNL     1      -1.619  -2.252  24.242  0.00  0.00    +0.008 A 
BRANCH  24  25
ATOM     25  O   UNL     1      -3.519  -3.061  24.951  0.00  0.00    -0.471 OA
ATOM     26  C   UNL     1      -4.089  -3.183  24.366  0.00  0.00    +0.252 C 
ENDBRANCH  24  25
ENDBRANCH  19  21
ENDBRANCH  15  16
ENDBRANCH  14  15
TORSDOF 10
ENDMDL
MODEL 7
REMARK VINA RESULT:      -9.0      2.096      3.365
REMARK  Name = 
REMARK  10 active torsions:
REMARK  status: ('A' for Active; 'I' for Inactive)
REMARK    1  A    between atoms: O_2  and  C_3
REMARK    2  A    between atoms: C_3  and  C_4
REMARK    3  A    between atoms: C_4  and  N_5
REMARK    4  A    between atoms: N_8  and  C_9
REMARK    5  A    between atoms: C_9  and  C_10
REMARK    6  A    between atoms: C_14  and  C_15
REMARK    7  A    between atoms: C_15  and  C_16
REMARK    8  A    between atoms: C_19  and  C_21
REMARK    9  A    between atoms: C_24  and  O_25
REMARK   10  A    between atoms: C_30  and  C_31
REMARK                            x       y       z     vdW  Elec       q    Type
REMARK                         _______ _______ _______ _____ _____    ______ ____
ROOT
ATOM     10  C   UNL     1      -4.671   1.095  24.435  0.00  0.00    +0.037 C 
ATOM     11  C   UNL     1      -4.052   1.117  23.890  0.00  0.00    -0.034 C 
ATOM     12  C   UNL     1      -3.684   1.835  23.714  0.00  0.00    -0.048 C 
ATOM     13  C   UNL     1      -3.065   1.858  23.168  0.00  0.00    +0.026 C 
ATOM     14  C   UNL     1      -3.934   2.528  24.083  0.00  0.00    +0.027 C 
ATOM     29  C   UNL     1      -4.552   2.506  24.629  0.00  0.00    +0.005 C 
ATOM     30  C   UNL     1      -4.921   1.789  24.805  0.00  0.00    +0.006 C 
ENDROOT
BRANCH  30  31
ATOM     31  C   UNL     1      -5.539   1.766  25.350  0.00  0.00    +0.000 C 
ATOM     32  C   UNL     1      -5.377   1.794  26.159  0.00  0.00    +0.000 C 
ATOM     33  C   UNL     1      -6.319   1.716  25.088  0.00  0.00    +0.000 C 
ENDBRANCH  30  31
BRANCH  10   9
ATOM      9  C   UNL     1      -5.039   0.378  24.612  0.00  0.00    +0.076 C 
BRANCH   9   8
ATOM      5  N   UNL     1      -3.731  -1.724  24.590  0.00  0.00    -0.268 NA
ATOM      6  C   UNL     1      -3.681  -1.213  25.235  0.00  0.00    +0.090 C 
ATOM      7  C   UNL     1      -4.116  -0.513  25.243  0.00  0.00    +0.090 C 
ATOM      8  N   UNL     1      -4.603  -0.323  24.605  0.00  0.00    -0.270 NA
ATOM     34  C   UNL     1      -4.654  -0.833  23.958  0.00  0.00    +0.090 C 
ATOM     35  C   UNL     1      -4.218  -1.534  23.951  0.00  0.00    +0.090 C 
BRANCH   5   4
ATOM      4  C   UNL     1      -3.296  -2.423  24.582  0.00  0.00    +0.105 C 
BRANCH   4   3
ATOM      3  C   UNL     1      -2.475  -2.401  24.666  0.00  0.00    +0.160 C 
BRANCH   3   2
ATOM      1  C   UNL     1      -1.184  -2.884  24.288  0.00  0.00    +0.174 C 
ATOM      2  O   UNL     1      -2.006  -2.964  24.289  0.00  0.00    -0.350 OA
ENDBRANCH   3   2
ENDBRANCH   4   3
ENDBRANCH   5   4
ENDBRANCH   9   8
ENDBRANCH  10   9
BRANCH  14  15
ATOM     15  C   UNL     1      -3.566   3.245  23.907  0.00  0.00    +0.091 C 
BRANCH  15  16
ATOM     16  C   UNL     1      -2.953   3.523  24.387  0.00  0.00    +0.227 A 
ATOM     17  N   UNL     1      -2.867   4.295  24.662  0.00  0.00    -0.111 NA
ATOM     18  N   UNL     1      -2.181   4.326  25.120  0.00  0.00    -0.107 NA
ATOM     19  C   UNL     1      -1.844   3.573  25.127  0.00  0.00    +0.250 A 
ATOM     20  O   UNL     1      -2.322   3.076  24.673  0.00  0.00    -0.420 OA
BRANCH  19  21
ATOM     21  C   UNL     1      -1.151   3.356  25.518  0.00  0.00    +0.055 A 
ATOM     22  C   UNL     1      -1.190   2.892  26.199  0.00  0.00    +0.008 A 
ATOM     23  C   UNL     1      -0.497   2.674  26.591  0.00  0.00    +0.037 A 
ATOM     24  C   UNL     1       0.235   2.921  26.300  0.00  0.00    +0.139 A 
ATOM     27  C   UNL     1       0.274   3.384  25.620  0.00  0.00    +0.037 A 
ATOM     28  C   UNL     1      -0.419   3.602  25.228  0.00  0.00    +0.008 A 
BRANCH  24  25
ATOM     25  O   UNL     1       0.928   2.703  26.692  0.00  0.00    -0.471 OA
ATOM     26  C   UNL     1       0.925   2.600  27.511  0.00  0.00    +0.252 C 
ENDBRANCH  24  25
ENDBRANCH  19  21
ENDBRANCH  15  16
ENDBRANCH  14  15
TORSDOF 10
ENDMDL
MODEL 8
REMARK VINA RESULT:      -9.0      1.767      3.160
REMARK  Name = 
REMARK  10 active torsions:
REMARK  status: ('A' for Active; 'I' for Inactive)
REMARK    1  A    between atoms: O_2  and  C_3
REMARK    2  A    between atoms: C_3  and  C_4
REMARK    3  A    between atoms: C_4  and  N_5
REMARK    4  A    between atoms: N_8  and  C_9
REMARK    5  A    between atoms: C_9  and  C_10
REMARK    6  A    between atoms: C_14  and  C_15
REMARK    7  A    between atoms: C_15  and  C_16
REMARK    8  A    between atoms: C_19  and  C_21
REMARK    9  A    between atoms: C_24  and  O_25
REMARK   10  A    between atoms: C_30  and  C_31
REMARK                            x       y       z     vdW  Elec       q    Type
REMARK                         _______ _______ _______ _____ _____    ______ ____
ROOT
ATOM     10  C   UNL     1      -0.361   0.587  24.248  0.00  0.00    +0.037 C 
ATOM     11  C   UNL     1       0.004   1.318  24.135  0.00  0.00    -0.034 C 
ATOM     12  C   UNL     1      -0.263   1.981  24.548  0.00  0.00    -0.048 C 
ATOM     13  C   UNL     1       0.102   2.713  24.435  0.00  0.00    +0.026 C 
ATOM     14  C   UNL     1      -0.895   1.913  25.073  0.00  0.00    +0.027 C 
ATOM     29  C   UNL     1      -1.260   1.182  25.186  0.00  0.00    +0.005 C 
ATOM     30  C   UNL     1      -0.994   0.519  24.774  0.00  0.00    +0.006 C 
ENDROOT
BRANCH  30  31
ATOM     31  C   UNL     1      -1.359  -0.211  24.887  0.00  0.00    +0.000 C 
ATOM     32  C   UNL     1      -1.945  -0.466  24.364  0.00  0.00    +0.000 C 
ATOM     33  C   UNL     1      -1.139  -0.689  25.523  0.00  0.00    +0.000 C 
ENDBRANCH  30  31
BRANCH  10   9
ATOM      9  C   UNL     1      -0.095  -0.076  23.836  0.00  0.00    +0.076 C 
BRANCH   9   8
ATOM      5  N   UNL     1       2.106  -0.025  22.704  0.00  0.00    -0.268 NA
ATOM      6  C   UNL     1       1.418   0.129  22.276  0.00  0.00    +0.090 C 
ATOM      7  C   UNL     1       0.685   0.112  22.653  0.00  0.00    +0.090 C 
ATOM      8  N   UNL     1       0.639  -0.059  23.459  0.00  0.00    -0.270 NA
ATOM     34  C   UNL     1       1.327  -0.213  23.888  0.00  0.00    +0.090 C 
ATOM     35  C   UNL     1       2.061  -0.196  23.510  0.00  0.00    +0.090 C 
BRANCH   5   4
ATOM      4  C   UNL     1       2.839  -0.008  22.328  0.00  0.00    +0.105 C 
BRANCH   4   3
ATOM      3  C   UNL     1       3.443   0.472  22.620  0.00  0.00    +0.160 C 
BRANCH   3   2
ATOM      1  C   UNL     1       4.856   0.492  22.834  0.00  0.00    +0.174 C 
ATOM      2  O   UNL     1       4.211   0.394  22.329  0.00  0.00    -0.350 OA
ENDBRANCH   3   2
ENDBRANCH   4   3
ENDBRANCH   5   4
ENDBRANCH   9   8
ENDBRANCH  10   9
BRANCH  14  15
ATOM     15  C   UNL     1      -1.162   2.575  25.485  0.00  0.00    +0.091 C 
BRANCH  15  16
ATOM     16  C   UNL     1      -1.906   2.893  25.319  0.00  0.00    +0.227 A 
ATOM     17  N   UNL     1      -2.056   3.652  25.035  0.00  0.00    -0.111 NA
ATOM     18  N   UNL     1      -2.872   3.735  24.948  0.00  0.00    -0.107 NA
ATOM     19  C   UNL     1      -3.227   3.026  25.178  0.00  0.00    +0.250 A 
ATOM     20  O   UNL     1      -2.629   2.505  25.408  0.00  0.00    -0.420 OA
BRANCH  19  21
ATOM     21  C   UNL     1      -4.036   2.867  25.179  0.00  0.00    +0.055 A 
ATOM     22  C   UNL     1      -4.359   2.371  24.604  0.00  0.00    +0.008 A 
ATOM     23  C   UNL     1      -5.169   2.211  24.605  0.00  0.00    +0.037 A 
ATOM     24  C   UNL     1      -5.655   2.548  25.182  0.00  0.00    +0.139 A 
ATOM     27  C   UNL     1      -5.331   3.043  25.756  0.00  0.00    +0.037 A 
ATOM     28  C   UNL     1      -4.521   3.203  25.755  0.00  0.00    +0.008 A 
BRANCH  24  25
ATOM     25  O   UNL     1      -6.465   2.389  25.182  0.00  0.00    -0.471 OA
ATOM     26  C   UNL     1      -6.738   1.639  24.971  0.00  0.00    +0.252 C 
ENDBRANCH  24  25
ENDBRANCH  19  21
ENDBRANCH  15  16
ENDBRANCH  14  15
TORSDOF 10
ENDMDL
MODEL 9
REMARK VINA RESULT:      -8.8      1.913      2.932
REMARK  Name = 
REMARK  10 active torsions:
REMARK  status: ('A' for Active; 'I' for Inactive)
REMARK    1  A    between atoms: O_2  and  C_3
REMARK    2  A    between atoms: C_3  and  C_4
REMARK    3  A    between atoms: C_4  and  N_5
REMARK    4  A    between atoms: N_8  and  C_9
REMARK    5  A    between atoms: C_9  and  C_10
REMARK    6  A    between atoms: C_14  and  C_15
REMARK    7  A    between atoms: C_15  and  C_16
REMARK    8  A    between atoms: C_19  and  C_21
REMARK    9  A    between atoms: C_24  and  O_25
REMARK   10  A    between atoms: C_30  and  C_31
REMARK                            x       y       z     vdW  Elec       q    Type
REMARK                         _______ _______ _______ _____ _____    ______ ____
ROOT
ATOM     10  C   UNL     1      -0.973   0.663  23.913  0.00  0.00    +0.037 C 
ATOM     11  C   UNL     1      -0.909   1.204  23.293  0.00  0.00    -0.034 C 
ATOM     12  C   UNL     1      -1.585   1.575  22.999  0.00  0.00    -0.048 C 
ATOM     13  C   UNL     1      -1.521   2.116  22.378  0.00  0.00    +0.026 C 
ATOM     14  C   UNL     1      -2.323   1.406  23.325  0.00  0.00    +0.027 C 
ATOM     29  C   UNL     1      -2.387   0.866  23.945  0.00  0.00    +0.005 C 
ATOM     30  C   UNL     1      -1.712   0.494  24.239  0.00  0.00    +0.006 C 
ENDROOT
BRANCH  30  31
ATOM     31  C   UNL     1      -1.775  -0.046  24.858  0.00  0.00    +0.000 C 
ATOM     32  C   UNL     1      -1.621   0.194  25.633  0.00  0.00    +0.000 C 
ATOM     33  C   UNL     1      -1.993  -0.826  24.705  0.00  0.00    +0.000 C 
ENDBRANCH  30  31
BRANCH  10   9
ATOM      9  C   UNL     1      -0.298   0.291  24.207  0.00  0.00    +0.076 C 
BRANCH   9   8
ATOM      5  N   UNL     1       1.832   0.421  22.952  0.00  0.00    -0.268 NA
ATOM      6  C   UNL     1       1.315  -0.210  22.824  0.00  0.00    +0.090 C 
ATOM      7  C   UNL     1       0.606  -0.253  23.242  0.00  0.00    +0.090 C 
ATOM      8  N   UNL     1       0.413   0.335  23.788  0.00  0.00    -0.270 NA
ATOM     34  C   UNL     1       0.928   0.965  23.917  0.00  0.00    +0.090 C 
ATOM     35  C   UNL     1       1.639   1.008  23.498  0.00  0.00    +0.090 C 
BRANCH   5   4
ATOM      4  C   UNL     1       2.541   0.464  22.533  0.00  0.00    +0.105 C 
BRANCH   4   3
ATOM      3  C   UNL     1       3.261   0.418  22.935  0.00  0.00    +0.160 C 
BRANCH   3   2
ATOM      1  C   UNL     1       4.688   0.495  22.928  0.00  0.00    +0.174 C 
ATOM      2  O   UNL     1       3.966   0.577  22.537  0.00  0.00    -0.350 OA
ENDBRANCH   3   2
ENDBRANCH   4   3
ENDBRANCH   5   4
ENDBRANCH   9   8
ENDBRANCH  10   9
BRANCH  14  15
ATOM     15  C   UNL     1      -2.998   1.778  23.031  0.00  0.00    +0.091 C 
BRANCH  15  16
ATOM     16  C   UNL     1      -3.497   2.193  23.542  0.00  0.00    +0.227 A 
ATOM     17  N   UNL     1      -3.521   3.011  23.637  0.00  0.00    -0.111 NA
ATOM     18  N   UNL     1      -4.097   3.185  24.201  0.00  0.00    -0.107 NA
ATOM     19  C   UNL     1      -4.429   2.474  24.455  0.00  0.00    +0.250 A 
ATOM     20  O   UNL     1      -4.057   1.860  24.048  0.00  0.00    -0.420 OA
BRANCH  19  21
ATOM     21  C   UNL     1      -5.027   2.391  25.018  0.00  0.00    +0.055 A 
ATOM     22  C   UNL     1      -5.043   2.886  25.678  0.00  0.00    +0.008 A 
ATOM     23  C   UNL     1      -5.641   2.804  26.241  0.00  0.00    +0.037 A 
ATOM     24  C   UNL     1      -6.222   2.226  26.143  0.00  0.00    +0.139 A 
ATOM     27  C   UNL     1      -6.205   1.732  25.483  0.00  0.00    +0.037 A 
ATOM     28  C   UNL     1      -5.607   1.814  24.920  0.00  0.00    +0.008 A 
BRANCH  24  25
ATOM     25  O   UNL     1      -6.820   2.143  26.706  0.00  0.00    -0.471 OA
ATOM     26  C   UNL     1      -6.789   1.527  27.254  0.00  0.00    +0.252 C 
ENDBRANCH  24  25
ENDBRANCH  19  21
ENDBRANCH  15  16
ENDBRANCH  14  15
TORSDOF 10
ENDMDL
MODEL 10
REMARK VINA RESULT:      -8.8      1.771      5.031
REMARK  Name = 
REMARK  10 active torsions:
REMARK  status: ('A' for Active; 'I' for Inactive)
REMARK    1  A    between atoms: O_2  and  C_3
REMARK    2  A    between atoms: C_3  and  C_4
REMARK    3  A    between atoms: C_4  and  N_5
REMARK    4  A    between atoms: N_8  and  C_9
REMARK    5  A    between atoms: C_9  and  C_10
REMARK    6  A    between atoms: C_14  and  C_15
REMARK    7  A    between atoms: C_15  and  C_16
REMARK    8  A    between atoms: C_19  and  C_21
REMARK    9  A    between atoms: C_24  and  O_25
REMARK   10  A    between atoms: C_30  and  C_31
REMARK                            x       y       z     vdW  Elec       q    Type
REMARK                         _______ _______ _______ _____ _____    ______ ____
ROOT
ATOM     10  C   UNL     1      -4.609   2.208  24.741  0.00  0.00    +0.037 C 
ATOM     11  C   UNL     1      -4.012   2.091  24.185  0.00  0.00    -0.034 C 
ATOM     12  C   UNL     1      -3.902   1.345  23.849  0.00  0.00    -0.048 C 
ATOM     13  C   UNL     1      -3.304   1.228  23.292  0.00  0.00    +0.026 C 
ATOM     14  C   UNL     1      -4.388   0.717  24.070  0.00  0.00    +0.027 C 
ATOM     29  C   UNL     1      -4.985   0.834  24.627  0.00  0.00    +0.005 C 
ATOM     30  C   UNL     1      -5.097   1.579  24.963  0.00  0.00    +0.006 C 
ENDROOT
BRANCH  30  31
ATOM     31  C   UNL     1      -5.693   1.696  25.519  0.00  0.00    +0.000 C 
ATOM     32  C   UNL     1      -5.561   1.509  26.312  0.00  0.00    +0.000 C 
ATOM     33  C   UNL     1      -6.423   2.000  25.284  0.00  0.00    +0.000 C 
ENDBRANCH  30  31
BRANCH  10   9
ATOM      9  C   UNL     1      -4.721   2.953  25.077  0.00  0.00    +0.076 C 
BRANCH   9   8
ATOM      5  N   UNL     1      -2.809   4.511  25.289  0.00  0.00    -0.268 NA
ATOM      6  C   UNL     1      -2.973   3.974  25.894  0.00  0.00    +0.090 C 
ATOM      7  C   UNL     1      -3.609   3.455  25.823  0.00  0.00    +0.090 C 
ATOM      8  N   UNL     1      -4.083   3.473  25.148  0.00  0.00    -0.270 NA
ATOM     34  C   UNL     1      -3.920   4.009  24.543  0.00  0.00    +0.090 C 
ATOM     35  C   UNL     1      -3.282   4.529  24.614  0.00  0.00    +0.090 C 
BRANCH   5   4
ATOM      4  C   UNL     1      -2.172   5.030  25.359  0.00  0.00    +0.105 C 
BRANCH   4   3
ATOM      3  C   UNL     1      -1.433   4.821  25.058  0.00  0.00    +0.160 C 
BRANCH   3   2
ATOM      1  C   UNL     1      -0.150   5.219  24.570  0.00  0.00    +0.174 C 
ATOM      2  O   UNL     1      -0.838   5.388  24.993  0.00  0.00    -0.350 OA
ENDBRANCH   3   2
ENDBRANCH   4   3
ENDBRANCH   5   4
ENDBRANCH   9   8
ENDBRANCH  10   9
BRANCH  14  15
ATOM     15  C   UNL     1      -4.277  -0.028  23.735  0.00  0.00    +0.091 C 
BRANCH  15  16
ATOM     16  C   UNL     1      -3.853  -0.606  24.144  0.00  0.00    +0.227 A 
ATOM     17  N   UNL     1      -4.168  -1.285  24.488  0.00  0.00    -0.111 NA
ATOM     18  N   UNL     1      -3.549  -1.704  24.837  0.00  0.00    -0.107 NA
ATOM     19  C   UNL     1      -2.851  -1.283  24.709  0.00  0.00    +0.250 A 
ATOM     20  O   UNL     1      -3.039  -0.603  24.280  0.00  0.00    -0.420 OA
BRANCH  19  21
ATOM     21  C   UNL     1      -2.097  -1.503  24.964  0.00  0.00    +0.055 A 
ATOM     22  C   UNL     1      -1.730  -2.167  24.641  0.00  0.00    +0.008 A 
ATOM     23  C   UNL     1      -0.977  -2.387  24.897  0.00  0.00    +0.037 A 
ATOM     24  C   UNL     1      -0.592  -1.941  25.476  0.00  0.00    +0.139 A 
ATOM     27  C   UNL     1      -0.960  -1.278  25.798  0.00  0.00    +0.037 A 
ATOM     28  C   UNL     1      -1.713  -1.058  25.543  0.00  0.00    +0.008 A 
BRANCH  24  25
ATOM     25  O   UNL     1       0.162  -2.161  25.731  0.00  0.00    -0.471 OA
ATOM     26  C   UNL     1       0.520  -2.839  25.425  0.00  0.00    +0.252 C 
ENDBRANCH  24  25
ENDBRANCH  19  21
ENDBRANCH  15  16
ENDBRANCH  14  15
TORSDOF 10
ENDMDL
