MODEL 1
REMARK VINA RESULT:     -10.4      0.000      0.000
REMARK  Name = 
REMARK  4 active torsions:
REMARK  status: ('A' for Active; 'I' for Inactive)
REMARK    1  A    between atoms: C_2  and  S_3
REMARK    2  A    between atoms: S_3  and  C_6
REMARK    3  A    between atoms: C_11  and  C_13
REMARK    4  A    between atoms: N_16  and  C_18
REMARK                            x       y       z     vdW  Elec       q    Type
REMARK                         _______ _______ _______ _____ _____    ______ ____
ROOT
ATOM      6  C   UNL     1      -2.189   4.202  25.256  0.00  0.00    +0.107 A 
ATOM      7  C   UNL     1      -2.177   3.467  24.883  0.00  0.00    +0.041 A 
ATOM      8  C   UNL     1      -2.786   2.926  25.016  0.00  0.00    +0.120 A 
ATOM      9  C   UNL     1      -3.407   3.122  25.523  0.00  0.00    +0.164 A 
ATOM     10  O   UNL     1      -3.927   2.482  25.548  0.00  0.00    -0.438 OA
ATOM     11  C   UNL     1      -3.627   1.891  25.057  0.00  0.00    +0.207 A 
ATOM     12  N   UNL     1      -2.923   2.166  24.729  0.00  0.00    -0.212 NA
ATOM     25  C   UNL     1      -3.419   3.858  25.897  0.00  0.00    +0.040 A 
ATOM     26  C   UNL     1      -2.810   4.398  25.763  0.00  0.00    +0.022 A 
ENDROOT
BRANCH  11  13
ATOM     13  C   UNL     1      -3.972   1.155  24.918  0.00  0.00    +0.094 C 
ATOM     14  C   UNL     1      -4.775   1.010  24.794  0.00  0.00    +0.028 C 
ATOM     15  C   UNL     1      -4.874   0.199  24.678  0.00  0.00    +0.073 C 
ATOM     16  N   UNL     1      -4.132  -0.158  24.732  0.00  0.00    -0.273 NA
ATOM     17  C   UNL     1      -3.575   0.433  24.880  0.00  0.00    +0.081 C 
BRANCH  16  18
ATOM     18  C   UNL     1      -3.975  -0.963  24.651  0.00  0.00    +0.060 C 
ATOM     19  C   UNL     1      -3.593  -1.372  25.258  0.00  0.00    +0.033 C 
ATOM     20  C   UNL     1      -3.436  -2.178  25.177  0.00  0.00    +0.074 C 
ATOM     21  N   UNL     1      -3.660  -2.575  24.491  0.00  0.00    -0.271 NA
ATOM     22  C   UNL     1      -3.502  -3.382  24.411  0.00  0.00    +0.090 C 
ATOM     23  C   UNL     1      -4.042  -2.168  23.884  0.00  0.00    +0.074 C 
ATOM     24  C   UNL     1      -4.199  -1.362  23.964  0.00  0.00    +0.033 C 
ENDBRANCH  16  18
ENDBRANCH  11  13
BRANCH   6   3
ATOM      3  S   UNL     1      -1.581   4.742  25.123  0.00  0.00    +0.009 S 
ATOM      4  O   UNL     1      -2.133   5.309  24.891  0.00  0.00    -0.169 OA
ATOM      5  O   UNL     1      -1.027   4.176  25.355  0.00  0.00    -0.169 OA
BRANCH   3   2
ATOM      1  C   UNL     1      -0.291   5.046  24.587  0.00  0.00    +0.028 C 
ATOM      2  C   UNL     1      -0.971   5.283  24.990  0.00  0.00    +0.156 C 
ENDBRANCH   3   2
ENDBRANCH   6   3
TORSDOF 4
ENDMDL
MODEL 2
REMARK VINA RESULT:     -10.4      2.734      6.054
REMARK  Name = 
REMARK  4 active torsions:
REMARK  status: ('A' for Active; 'I' for Inactive)
REMARK    1  A    between atoms: C_2  and  S_3
REMARK    2  A    between atoms: S_3  and  C_6
REMARK    3  A    between atoms: C_11  and  C_13
REMARK    4  A    between atoms: N_16  and  C_18
REMARK                            x       y       z     vdW  Elec       q    Type
REMARK                         _______ _______ _______ _____ _____    ______ ____
ROOT
ATOM      6  C   UNL     1      -2.426  -1.805  24.843  0.00  0.00    +0.107 A 
ATOM      7  C   UNL     1      -2.608  -1.008  24.944  0.00  0.00    +0.041 A 
ATOM      8  C   UNL     1      -2.007  -0.462  25.091  0.00  0.00    +0.120 A 
ATOM      9  C   UNL     1      -1.223  -0.715  25.138  0.00  0.00    +0.164 A 
ATOM     10  O   UNL     1      -0.751  -0.056  25.289  0.00  0.00    -0.438 OA
ATOM     11  C   UNL     1      -1.243   0.604  25.336  0.00  0.00    +0.207 A 
ATOM     12  N   UNL     1      -2.019   0.353  25.213  0.00  0.00    -0.212 NA
ATOM     25  C   UNL     1      -1.041  -1.514  25.037  0.00  0.00    +0.040 A 
ATOM     26  C   UNL     1      -1.642  -2.058  24.890  0.00  0.00    +0.022 A 
ENDROOT
BRANCH  11  13
ATOM     13  C   UNL     1      -1.001   1.380  25.479  0.00  0.00    +0.094 C 
ATOM     14  C   UNL     1      -0.317   1.608  25.879  0.00  0.00    +0.028 C 
ATOM     15  C   UNL     1      -0.293   2.433  25.896  0.00  0.00    +0.073 C 
ATOM     16  N   UNL     1      -0.963   2.714  25.506  0.00  0.00    -0.273 NA
ATOM     17  C   UNL     1      -1.401   2.063  25.248  0.00  0.00    +0.081 C 
BRANCH  16  18
ATOM     18  C   UNL     1      -1.162   3.507  25.392  0.00  0.00    +0.060 C 
ATOM     19  C   UNL     1      -1.889   3.792  25.657  0.00  0.00    +0.033 C 
ATOM     20  C   UNL     1      -2.088   4.584  25.544  0.00  0.00    +0.074 C 
ATOM     21  N   UNL     1      -1.559   5.092  25.166  0.00  0.00    -0.271 NA
ATOM     22  C   UNL     1      -1.758   5.885  25.053  0.00  0.00    +0.090 C 
ATOM     23  C   UNL     1      -0.832   4.808  24.902  0.00  0.00    +0.074 C 
ATOM     24  C   UNL     1      -0.632   4.015  25.015  0.00  0.00    +0.033 C 
ENDBRANCH  16  18
ENDBRANCH  11  13
BRANCH   6   3
ATOM      3  S   UNL     1      -3.027  -2.350  24.695  0.00  0.00    +0.009 S 
ATOM      4  O   UNL     1      -2.717  -2.490  23.944  0.00  0.00    -0.169 OA
ATOM      5  O   UNL     1      -3.338  -2.211  25.447  0.00  0.00    -0.169 OA
BRANCH   3   2
ATOM      1  C   UNL     1      -4.178  -2.751  23.949  0.00  0.00    +0.028 C 
ATOM      2  C   UNL     1      -3.629  -2.896  24.548  0.00  0.00    +0.156 C 
ENDBRANCH   3   2
ENDBRANCH   6   3
TORSDOF 4
ENDMDL
MODEL 3
REMARK VINA RESULT:      -9.9      1.559      2.042
REMARK  Name = 
REMARK  4 active torsions:
REMARK  status: ('A' for Active; 'I' for Inactive)
REMARK    1  A    between atoms: C_2  and  S_3
REMARK    2  A    between atoms: S_3  and  C_6
REMARK    3  A    between atoms: C_11  and  C_13
REMARK    4  A    between atoms: N_16  and  C_18
REMARK                            x       y       z     vdW  Elec       q    Type
REMARK                         _______ _______ _______ _____ _____    ______ ____
ROOT
ATOM      6  C   UNL     1      -0.852   3.484  25.290  0.00  0.00    +0.107 A 
ATOM      7  C   UNL     1      -1.404   2.936  25.017  0.00  0.00    +0.041 A 
ATOM      8  C   UNL     1      -1.330   2.139  25.218  0.00  0.00    +0.120 A 
ATOM      9  C   UNL     1      -0.702   1.891  25.693  0.00  0.00    +0.164 A 
ATOM     10  O   UNL     1      -0.771   1.077  25.800  0.00  0.00    -0.438 OA
ATOM     11  C   UNL     1      -1.440   0.821  25.392  0.00  0.00    +0.207 A 
ATOM     12  N   UNL     1      -1.785   1.478  25.032  0.00  0.00    -0.212 NA
ATOM     25  C   UNL     1      -0.149   2.440  25.966  0.00  0.00    +0.040 A 
ATOM     26  C   UNL     1      -0.225   3.236  25.765  0.00  0.00    +0.022 A 
ENDROOT
BRANCH  11  13
ATOM     13  C   UNL     1      -1.716   0.044  25.350  0.00  0.00    +0.094 C 
ATOM     14  C   UNL     1      -1.413  -0.601  25.766  0.00  0.00    +0.028 C 
ATOM     15  C   UNL     1      -1.853  -1.268  25.559  0.00  0.00    +0.073 C 
ATOM     16  N   UNL     1      -2.428  -1.034  25.015  0.00  0.00    -0.273 NA
ATOM     17  C   UNL     1      -2.343  -0.223  24.887  0.00  0.00    +0.081 C 
BRANCH  16  18
ATOM     18  C   UNL     1      -2.989  -1.525  24.662  0.00  0.00    +0.060 C 
ATOM     19  C   UNL     1      -2.890  -2.344  24.678  0.00  0.00    +0.033 C 
ATOM     20  C   UNL     1      -3.451  -2.834  24.325  0.00  0.00    +0.074 C 
ATOM     21  N   UNL     1      -4.111  -2.507  23.956  0.00  0.00    -0.271 NA
ATOM     22  C   UNL     1      -4.673  -2.998  23.602  0.00  0.00    +0.090 C 
ATOM     23  C   UNL     1      -4.211  -1.689  23.939  0.00  0.00    +0.074 C 
ATOM     24  C   UNL     1      -3.650  -1.197  24.292  0.00  0.00    +0.033 C 
ENDBRANCH  16  18
ENDBRANCH  11  13
BRANCH   6   3
ATOM      3  S   UNL     1      -0.926   4.280  25.088  0.00  0.00    +0.009 S 
ATOM      4  O   UNL     1      -1.450   4.391  25.716  0.00  0.00    -0.169 OA
ATOM      5  O   UNL     1      -0.403   4.171  24.460  0.00  0.00    -0.169 OA
BRANCH   3   2
ATOM      1  C   UNL     1      -1.681   5.493  25.097  0.00  0.00    +0.028 C 
ATOM      2  C   UNL     1      -1.001   5.077  24.887  0.00  0.00    +0.156 C 
ENDBRANCH   3   2
ENDBRANCH   6   3
TORSDOF 4
ENDMDL
MODEL 4
REMARK VINA RESULT:      -9.5      2.222      5.695
REMARK  Name = 
REMARK  4 active torsions:
REMARK  status: ('A' for Active; 'I' for Inactive)
REMARK    1  A    between atoms: C_2  and  S_3
REMARK    2  A    between atoms: S_3  and  C_6
REMARK    3  A    between atoms: C_11  and  C_13
REMARK    4  A    between atoms: N_16  and  C_18
REMARK                            x       y       z     vdW  Elec       q    Type
REMARK                         _______ _______ _______ _____ _____    ______ ____
ROOT
ATOM      6  C   UNL     1      -3.616  -1.480  24.613  0.00  0.00    +0.107 A 
ATOM      7  C   UNL     1      -3.137  -0.863  24.875  0.00  0.00    +0.041 A 
ATOM      8  C   UNL     1      -3.384  -0.081  24.784  0.00  0.00    +0.120 A 
ATOM      9  C   UNL     1      -4.112   0.083  24.430  0.00  0.00    +0.164 A 
ATOM     10  O   UNL     1      -4.209   0.902  24.415  0.00  0.00    -0.438 OA
ATOM     11  C   UNL     1      -3.543   1.244  24.759  0.00  0.00    +0.207 A 
ATOM     12  N   UNL     1      -3.033   0.637  24.987  0.00  0.00    -0.212 NA
ATOM     25  C   UNL     1      -4.591  -0.535  24.168  0.00  0.00    +0.040 A 
ATOM     26  C   UNL     1      -4.343  -1.317  24.259  0.00  0.00    +0.022 A 
ENDROOT
BRANCH  11  13
ATOM     13  C   UNL     1      -3.409   2.052  24.858  0.00  0.00    +0.094 C 
ATOM     14  C   UNL     1      -3.983   2.623  25.018  0.00  0.00    +0.028 C 
ATOM     15  C   UNL     1      -3.607   3.355  25.073  0.00  0.00    +0.073 C 
ATOM     16  N   UNL     1      -2.800   3.237  24.947  0.00  0.00    -0.273 NA
ATOM     17  C   UNL     1      -2.678   2.432  24.815  0.00  0.00    +0.081 C 
BRANCH  16  18
ATOM     18  C   UNL     1      -2.218   3.821  24.953  0.00  0.00    +0.060 C 
ATOM     19  C   UNL     1      -2.390   4.572  25.249  0.00  0.00    +0.033 C 
ATOM     20  C   UNL     1      -1.807   5.156  25.255  0.00  0.00    +0.074 C 
ATOM     21  N   UNL     1      -1.053   4.990  24.966  0.00  0.00    -0.271 NA
ATOM     22  C   UNL     1      -0.470   5.575  24.972  0.00  0.00    +0.090 C 
ATOM     23  C   UNL     1      -0.880   4.240  24.671  0.00  0.00    +0.074 C 
ATOM     24  C   UNL     1      -1.463   3.655  24.664  0.00  0.00    +0.033 C 
ENDBRANCH  16  18
ENDBRANCH  11  13
BRANCH   6   3
ATOM      3  S   UNL     1      -3.369  -2.261  24.704  0.00  0.00    +0.009 S 
ATOM      4  O   UNL     1      -3.680  -2.272  25.468  0.00  0.00    -0.169 OA
ATOM      5  O   UNL     1      -3.056  -2.252  23.940  0.00  0.00    -0.169 OA
BRANCH   3   2
ATOM      1  C   UNL     1      -2.426  -3.300  24.432  0.00  0.00    +0.028 C 
ATOM      2  C   UNL     1      -3.121  -3.044  24.795  0.00  0.00    +0.156 C 
ENDBRANCH   3   2
ENDBRANCH   6   3
TORSDOF 4
ENDMDL
MODEL 5
REMARK VINA RESULT:      -9.0      3.456      4.532
REMARK  Name = 
REMARK  4 active torsions:
REMARK  status: ('A' for Active; 'I' for Inactive)
REMARK    1  A    between atoms: C_2  and  S_3
REMARK    2  A    between atoms: S_3  and  C_6
REMARK    3  A    between atoms: C_11  and  C_13
REMARK    4  A    between atoms: N_16  and  C_18
REMARK                            x       y       z     vdW  Elec       q    Type
REMARK                         _______ _______ _______ _____ _____    ______ ____
ROOT
ATOM      6  C   UNL     1      -4.132   2.425  24.617  0.00  0.00    +0.107 A 
ATOM      7  C   UNL     1      -3.603   1.875  24.929  0.00  0.00    +0.041 A 
ATOM      8  C   UNL     1      -2.934   1.655  24.499  0.00  0.00    +0.120 A 
ATOM      9  C   UNL     1      -2.794   1.986  23.756  0.00  0.00    +0.164 A 
ATOM     10  O   UNL     1      -2.093   1.666  23.462  0.00  0.00    -0.438 OA
ATOM     11  C   UNL     1      -1.800   1.137  24.023  0.00  0.00    +0.207 A 
ATOM     12  N   UNL     1      -2.320   1.130  24.663  0.00  0.00    -0.212 NA
ATOM     25  C   UNL     1      -3.323   2.537  23.444  0.00  0.00    +0.040 A 
ATOM     26  C   UNL     1      -3.992   2.756  23.874  0.00  0.00    +0.022 A 
ENDROOT
BRANCH  11  13
ATOM     13  C   UNL     1      -1.108   0.692  23.955  0.00  0.00    +0.094 C 
ATOM     14  C   UNL     1      -0.974  -0.050  24.288  0.00  0.00    +0.028 C 
ATOM     15  C   UNL     1      -0.212  -0.290  24.081  0.00  0.00    +0.073 C 
ATOM     16  N   UNL     1       0.125   0.305  23.620  0.00  0.00    -0.273 NA
ATOM     17  C   UNL     1      -0.429   0.912  23.542  0.00  0.00    +0.081 C 
BRANCH  16  18
ATOM     18  C   UNL     1       0.882   0.295  23.293  0.00  0.00    +0.060 C 
ATOM     19  C   UNL     1       1.081  -0.272  22.728  0.00  0.00    +0.033 C 
ATOM     20  C   UNL     1       1.838  -0.282  22.402  0.00  0.00    +0.074 C 
ATOM     21  N   UNL     1       2.397   0.275  22.640  0.00  0.00    -0.271 NA
ATOM     22  C   UNL     1       3.155   0.265  22.313  0.00  0.00    +0.090 C 
ATOM     23  C   UNL     1       2.200   0.843  23.205  0.00  0.00    +0.074 C 
ATOM     24  C   UNL     1       1.442   0.853  23.532  0.00  0.00    +0.033 C 
ENDBRANCH  16  18
ENDBRANCH  11  13
BRANCH   6   3
ATOM      3  S   UNL     1      -4.800   2.644  25.046  0.00  0.00    +0.009 S 
ATOM      4  O   UNL     1      -5.224   2.024  24.706  0.00  0.00    -0.169 OA
ATOM      5  O   UNL     1      -4.378   3.266  25.387  0.00  0.00    -0.169 OA
BRANCH   3   2
ATOM      1  C   UNL     1      -5.994   2.287  25.746  0.00  0.00    +0.028 C 
ATOM      2  C   UNL     1      -5.470   2.864  25.477  0.00  0.00    +0.156 C 
ENDBRANCH   3   2
ENDBRANCH   6   3
TORSDOF 4
ENDMDL
MODEL 6
REMARK VINA RESULT:      -8.7      3.161      4.597
REMARK  Name = 
REMARK  4 active torsions:
REMARK  status: ('A' for Active; 'I' for Inactive)
REMARK    1  A    between atoms: C_2  and  S_3
REMARK    2  A    between atoms: S_3  and  C_6
REMARK    3  A    between atoms: C_11  and  C_13
REMARK    4  A    between atoms: N_16  and  C_18
REMARK                            x       y       z     vdW  Elec       q    Type
REMARK                         _______ _______ _______ _____ _____    ______ ____
ROOT
ATOM      6  C   UNL     1       0.198  -0.008  23.676  0.00  0.00    +0.107 A 
ATOM      7  C   UNL     1      -0.415   0.529  23.553  0.00  0.00    +0.041 A 
ATOM      8  C   UNL     1      -1.134   0.434  23.947  0.00  0.00    +0.120 A 
ATOM      9  C   UNL     1      -1.239  -0.200  24.465  0.00  0.00    +0.164 A 
ATOM     10  O   UNL     1      -2.002  -0.153  24.773  0.00  0.00    -0.438 OA
ATOM     11  C   UNL     1      -2.369   0.509  24.447  0.00  0.00    +0.207 A 
ATOM     12  N   UNL     1      -1.832   0.871  23.936  0.00  0.00    -0.212 NA
ATOM     25  C   UNL     1      -0.626  -0.739  24.588  0.00  0.00    +0.040 A 
ATOM     26  C   UNL     1       0.092  -0.642  24.194  0.00  0.00    +0.022 A 
ENDROOT
BRANCH  11  13
ATOM     13  C   UNL     1      -3.138   0.764  24.603  0.00  0.00    +0.094 C 
ATOM     14  C   UNL     1      -3.817   0.297  24.587  0.00  0.00    +0.028 C 
ATOM     15  C   UNL     1      -4.462   0.775  24.777  0.00  0.00    +0.073 C 
ATOM     16  N   UNL     1      -4.181   1.539  24.911  0.00  0.00    -0.273 NA
ATOM     17  C   UNL     1      -3.363   1.532  24.803  0.00  0.00    +0.081 C 
BRANCH  16  18
ATOM     18  C   UNL     1      -4.637   2.195  25.116  0.00  0.00    +0.060 C 
ATOM     19  C   UNL     1      -5.400   2.090  25.413  0.00  0.00    +0.033 C 
ATOM     20  C   UNL     1      -5.856   2.746  25.618  0.00  0.00    +0.074 C 
ATOM     21  N   UNL     1      -5.551   3.506  25.526  0.00  0.00    -0.271 NA
ATOM     22  C   UNL     1      -6.008   4.162  25.731  0.00  0.00    +0.090 C 
ATOM     23  C   UNL     1      -4.789   3.612  25.229  0.00  0.00    +0.074 C 
ATOM     24  C   UNL     1      -4.332   2.956  25.024  0.00  0.00    +0.033 C 
ENDBRANCH  16  18
ENDBRANCH  11  13
BRANCH   6   3
ATOM      3  S   UNL     1       0.915   0.087  23.282  0.00  0.00    +0.009 S 
ATOM      4  O   UNL     1       0.761  -0.589  22.836  0.00  0.00    -0.169 OA
ATOM      5  O   UNL     1       1.071   0.764  23.728  0.00  0.00    -0.169 OA
BRANCH   3   2
ATOM      1  C   UNL     1       1.763  -0.198  22.168  0.00  0.00    +0.028 C 
ATOM      2  C   UNL     1       1.634   0.183  22.888  0.00  0.00    +0.156 C 
ENDBRANCH   3   2
ENDBRANCH   6   3
TORSDOF 4
ENDMDL
MODEL 7
REMARK VINA RESULT:      -6.4     18.277     19.714
REMARK  Name = 
REMARK  4 active torsions:
REMARK  status: ('A' for Active; 'I' for Inactive)
REMARK    1  A    between atoms: C_2  and  S_3
REMARK    2  A    between atoms: S_3  and  C_6
REMARK    3  A    between atoms: C_11  and  C_13
REMARK    4  A    between atoms: N_16  and  C_18
REMARK                            x       y       z     vdW  Elec       q    Type
REMARK                         _______ _______ _______ _____ _____    ______ ____
ROOT
ATOM      6  C   UNL     1      16.334   6.762  20.344  0.00  0.00    +0.107 A 
ATOM      7  C   UNL     1      15.651   7.200  20.490  0.00  0.00    +0.041 A 
ATOM      8  C   UNL     1      15.117   7.349  19.879  0.00  0.00    +0.120 A 
ATOM      9  C   UNL     1      15.266   7.059  19.122  0.00  0.00    +0.164 A 
ATOM     10  O   UNL     1      14.645   7.291  18.632  0.00  0.00    -0.438 OA
ATOM     11  C   UNL     1      14.111   7.725  19.087  0.00  0.00    +0.207 A 
ATOM     12  N   UNL     1      14.403   7.760  19.858  0.00  0.00    -0.212 NA
ATOM     25  C   UNL     1      15.950   6.620  18.975  0.00  0.00    +0.040 A 
ATOM     26  C   UNL     1      16.483   6.472  19.586  0.00  0.00    +0.022 A 
ENDROOT
BRANCH  11  13
ATOM     13  C   UNL     1      13.408   8.063  18.819  0.00  0.00    +0.094 C 
ATOM     14  C   UNL     1      12.836   8.430  19.287  0.00  0.00    +0.028 C 
ATOM     15  C   UNL     1      12.228   8.688  18.793  0.00  0.00    +0.073 C 
ATOM     16  N   UNL     1      12.424   8.482  18.019  0.00  0.00    -0.273 NA
ATOM     17  C   UNL     1      13.153   8.095  18.035  0.00  0.00    +0.081 C 
BRANCH  16  18
ATOM     18  C   UNL     1      11.971   8.634  17.347  0.00  0.00    +0.060 C 
ATOM     19  C   UNL     1      12.328   8.941  16.669  0.00  0.00    +0.033 C 
ATOM     20  C   UNL     1      11.875   9.093  15.997  0.00  0.00    +0.074 C 
ATOM     21  N   UNL     1      11.065   8.939  16.002  0.00  0.00    -0.271 NA
ATOM     22  C   UNL     1      10.612   9.092  15.329  0.00  0.00    +0.090 C 
ATOM     23  C   UNL     1      10.707   8.632  16.678  0.00  0.00    +0.074 C 
ATOM     24  C   UNL     1      11.160   8.479  17.351  0.00  0.00    +0.033 C 
ENDBRANCH  16  18
ENDBRANCH  11  13
BRANCH   6   3
ATOM      3  S   UNL     1      16.867   6.614  20.955  0.00  0.00    +0.009 S 
ATOM      4  O   UNL     1      17.167   7.378  20.880  0.00  0.00    -0.169 OA
ATOM      5  O   UNL     1      16.568   5.848  21.031  0.00  0.00    -0.169 OA
BRANCH   3   2
ATOM      1  C   UNL     1      17.134   6.144  22.278  0.00  0.00    +0.028 C 
ATOM      2  C   UNL     1      17.402   6.465  21.567  0.00  0.00    +0.156 C 
ENDBRANCH   3   2
ENDBRANCH   6   3
TORSDOF 4
ENDMDL
