MODEL 1
REMARK VINA RESULT:      -9.8      0.000      0.000
REMARK  Name = 
REMARK  7 active torsions:
REMARK  status: ('A' for Active; 'I' for Inactive)
REMARK    1  A    between atoms: C_1  and  N_2
REMARK    2  A    between atoms: C_1  and  C_28
REMARK    3  A    between atoms: N_2  and  C_3
REMARK    4  A    between atoms: C_7  and  N_11
REMARK    5  A    between atoms: C_15  and  O_16
REMARK    6  A    between atoms: O_16  and  C_17
REMARK    7  A    between atoms: C_20  and  N_23
REMARK                            x       y       z     vdW  Elec       q    Type
REMARK                         _______ _______ _______ _____ _____    ______ ____
ROOT
ATOM     11  N   UNL     1      -4.985   2.262  24.921  0.00  0.00    -0.180 N 
ATOM     12  N   UNL     1      -5.718   2.357  25.288  0.00  0.00    -0.040 NA
ATOM     13  N   UNL     1      -6.068   1.613  25.355  0.00  0.00    -0.020 NA
ATOM     14  N   UNL     1      -5.551   1.058  25.031  0.00  0.00    -0.071 NA
ATOM     15  C   UNL     1      -4.882   1.459  24.762  0.00  0.00    +0.343 A 
ENDROOT
BRANCH  11   7
ATOM      3  C   UNL     1      -3.006   4.177  25.403  0.00  0.00    +0.132 C 
ATOM      4  C   UNL     1      -3.132   3.843  26.147  0.00  0.00    +0.162 C 
ATOM      5  O   UNL     1      -3.713   3.263  26.070  0.00  0.00    -0.350 OA
ATOM      6  C   UNL     1      -3.946   3.238  25.280  0.00  0.00    +0.169 C 
ATOM      7  C   UNL     1      -4.449   2.864  24.743  0.00  0.00    +0.170 C 
ATOM      8  C   UNL     1      -4.323   3.197  24.000  0.00  0.00    +0.169 C 
ATOM      9  O   UNL     1      -3.742   3.777  24.076  0.00  0.00    -0.350 OA
ATOM     10  C   UNL     1      -3.509   3.803  24.867  0.00  0.00    +0.163 C 
BRANCH   3   2
ATOM      2  N   UNL     1      -2.470   4.779  25.226  0.00  0.00    -0.214 NA
BRANCH   2   1
ATOM      1  C   UNL     1      -1.678   4.704  25.444  0.00  0.00    +0.089 C 
BRANCH   1  28
ATOM     28  C   UNL     1      -1.093   5.101  25.018  0.00  0.00    +0.017 C 
ATOM     29  C   UNL     1      -0.360   5.100  24.639  0.00  0.00    +0.001 C 
ATOM     30  C   UNL     1      -0.813   5.789  24.660  0.00  0.00    +0.001 C 
ENDBRANCH   1  28
ENDBRANCH   2   1
ENDBRANCH   3   2
ENDBRANCH  11   7
BRANCH  15  16
ATOM     16  O   UNL     1      -4.225   1.117  24.398  0.00  0.00    -0.421 OA
BRANCH  16  17
ATOM     17  C   UNL     1      -4.087   0.307  24.474  0.00  0.00    +0.149 A 
ATOM     18  C   UNL     1      -3.707   0.015  25.145  0.00  0.00    +0.039 A 
ATOM     19  C   UNL     1      -3.569  -0.795  25.222  0.00  0.00    +0.022 A 
ATOM     20  C   UNL     1      -3.810  -1.312  24.626  0.00  0.00    +0.085 A 
ATOM     21  C   UNL     1      -4.190  -1.020  23.954  0.00  0.00    +0.022 A 
ATOM     22  C   UNL     1      -4.328  -0.210  23.878  0.00  0.00    +0.039 A 
BRANCH  20  23
ATOM     23  N   UNL     1      -3.672  -2.122  24.701  0.00  0.00    -0.208 N 
ATOM     24  C   UNL     1      -3.379  -2.503  25.371  0.00  0.00    +0.202 A 
ATOM     25  N   UNL     1      -3.328  -3.310  25.205  0.00  0.00    -0.200 NA
ATOM     26  C   UNL     1      -3.590  -3.426  24.431  0.00  0.00    +0.221 A 
ATOM     27  N   UNL     1      -3.802  -2.693  24.120  0.00  0.00    -0.141 NA
ENDBRANCH  20  23
ENDBRANCH  16  17
ENDBRANCH  15  16
TORSDOF 7
ENDMDL
MODEL 2
REMARK VINA RESULT:      -8.5      3.805      5.287
REMARK  Name = 
REMARK  7 active torsions:
REMARK  status: ('A' for Active; 'I' for Inactive)
REMARK    1  A    between atoms: C_1  and  N_2
REMARK    2  A    between atoms: C_1  and  C_28
REMARK    3  A    between atoms: N_2  and  C_3
REMARK    4  A    between atoms: C_7  and  N_11
REMARK    5  A    between atoms: C_15  and  O_16
REMARK    6  A    between atoms: O_16  and  C_17
REMARK    7  A    between atoms: C_20  and  N_23
REMARK                            x       y       z     vdW  Elec       q    Type
REMARK                         _______ _______ _______ _____ _____    ______ ____
ROOT
ATOM     11  N   UNL     1      -1.113   0.079  24.414  0.00  0.00    -0.180 N 
ATOM     12  N   UNL     1      -1.242  -0.691  24.681  0.00  0.00    -0.040 NA
ATOM     13  N   UNL     1      -2.053  -0.789  24.797  0.00  0.00    -0.020 NA
ATOM     14  N   UNL     1      -2.425  -0.080  24.601  0.00  0.00    -0.071 NA
ATOM     15  C   UNL     1      -1.844   0.456  24.364  0.00  0.00    +0.343 A 
ENDROOT
BRANCH  11   7
ATOM      3  C   UNL     1       1.340   0.346  23.100  0.00  0.00    +0.132 C 
ATOM      4  C   UNL     1       1.014  -0.328  22.755  0.00  0.00    +0.162 C 
ATOM      5  O   UNL     1       0.279  -0.462  23.105  0.00  0.00    -0.350 OA
ATOM      6  C   UNL     1       0.151   0.128  23.665  0.00  0.00    +0.169 C 
ATOM      7  C   UNL     1      -0.381   0.412  24.228  0.00  0.00    +0.170 C 
ATOM      8  C   UNL     1      -0.054   1.086  24.573  0.00  0.00    +0.169 C 
ATOM      9  O   UNL     1       0.680   1.220  24.223  0.00  0.00    -0.350 OA
ATOM     10  C   UNL     1       0.808   0.628  23.662  0.00  0.00    +0.163 C 
BRANCH   3   2
ATOM      2  N   UNL     1       2.072   0.679  22.914  0.00  0.00    -0.214 NA
BRANCH   2   1
ATOM      1  C   UNL     1       2.705   0.193  22.705  0.00  0.00    +0.089 C 
BRANCH   1  28
ATOM     28  C   UNL     1       3.473   0.496  22.700  0.00  0.00    +0.017 C 
ATOM     29  C   UNL     1       4.289   0.374  22.706  0.00  0.00    +0.001 C 
ATOM     30  C   UNL     1       3.987   1.141  22.685  0.00  0.00    +0.001 C 
ENDBRANCH   1  28
ENDBRANCH   2   1
ENDBRANCH   3   2
ENDBRANCH  11   7
BRANCH  15  16
ATOM     16  O   UNL     1      -1.973   1.234  24.120  0.00  0.00    -0.421 OA
BRANCH  16  17
ATOM     17  C   UNL     1      -2.643   1.642  24.377  0.00  0.00    +0.149 A 
ATOM     18  C   UNL     1      -2.616   2.081  25.075  0.00  0.00    +0.039 A 
ATOM     19  C   UNL     1      -3.286   2.488  25.332  0.00  0.00    +0.022 A 
ATOM     20  C   UNL     1      -3.982   2.457  24.891  0.00  0.00    +0.085 A 
ATOM     21  C   UNL     1      -4.009   2.018  24.192  0.00  0.00    +0.022 A 
ATOM     22  C   UNL     1      -3.339   1.611  23.936  0.00  0.00    +0.039 A 
BRANCH  20  23
ATOM     23  N   UNL     1      -4.653   2.864  25.147  0.00  0.00    -0.208 N 
ATOM     24  C   UNL     1      -5.353   2.522  25.418  0.00  0.00    +0.202 A 
ATOM     25  N   UNL     1      -5.874   3.130  25.616  0.00  0.00    -0.200 NA
ATOM     26  C   UNL     1      -5.495   3.848  25.467  0.00  0.00    +0.221 A 
ATOM     27  N   UNL     1      -4.741   3.683  25.178  0.00  0.00    -0.141 NA
ENDBRANCH  20  23
ENDBRANCH  16  17
ENDBRANCH  15  16
TORSDOF 7
ENDMDL
MODEL 3
REMARK VINA RESULT:      -8.1      4.030      5.499
REMARK  Name = 
REMARK  7 active torsions:
REMARK  status: ('A' for Active; 'I' for Inactive)
REMARK    1  A    between atoms: C_1  and  N_2
REMARK    2  A    between atoms: C_1  and  C_28
REMARK    3  A    between atoms: N_2  and  C_3
REMARK    4  A    between atoms: C_7  and  N_11
REMARK    5  A    between atoms: C_15  and  O_16
REMARK    6  A    between atoms: O_16  and  C_17
REMARK    7  A    between atoms: C_20  and  N_23
REMARK                            x       y       z     vdW  Elec       q    Type
REMARK                         _______ _______ _______ _____ _____    ______ ____
ROOT
ATOM     11  N   UNL     1      -1.255  -0.289  24.993  0.00  0.00    -0.180 N 
ATOM     12  N   UNL     1      -1.214  -0.941  25.497  0.00  0.00    -0.040 NA
ATOM     13  N   UNL     1      -0.563  -1.396  25.273  0.00  0.00    -0.020 NA
ATOM     14  N   UNL     1      -0.202  -1.025  24.631  0.00  0.00    -0.071 NA
ATOM     15  C   UNL     1      -0.629  -0.341  24.458  0.00  0.00    +0.343 A 
ENDROOT
BRANCH  11   7
ATOM      3  C   UNL     1      -3.757   0.910  24.653  0.00  0.00    +0.132 C 
ATOM      4  C   UNL     1      -3.876   0.143  24.376  0.00  0.00    +0.162 C 
ATOM      5  O   UNL     1      -3.165  -0.268  24.451  0.00  0.00    -0.350 OA
ATOM      6  C   UNL     1      -2.606   0.246  24.773  0.00  0.00    +0.169 C 
ATOM      7  C   UNL     1      -1.822   0.311  25.019  0.00  0.00    +0.170 C 
ATOM      8  C   UNL     1      -1.703   1.078  25.296  0.00  0.00    +0.169 C 
ATOM      9  O   UNL     1      -2.414   1.489  25.221  0.00  0.00    -0.350 OA
ATOM     10  C   UNL     1      -2.973   0.974  24.898  0.00  0.00    +0.163 C 
BRANCH   3   2
ATOM      2  N   UNL     1      -4.324   1.510  24.679  0.00  0.00    -0.214 NA
BRANCH   2   1
ATOM      1  C   UNL     1      -5.096   1.337  24.915  0.00  0.00    +0.089 C 
BRANCH   1  28
ATOM     28  C   UNL     1      -5.591   1.942  25.182  0.00  0.00    +0.017 C 
ATOM     29  C   UNL     1      -6.286   2.184  25.553  0.00  0.00    +0.001 C 
ATOM     30  C   UNL     1      -5.751   2.746  25.274  0.00  0.00    +0.001 C 
ENDBRANCH   1  28
ENDBRANCH   2   1
ENDBRANCH   3   2
ENDBRANCH  11   7
BRANCH  15  16
ATOM     16  O   UNL     1      -0.460   0.197  23.856  0.00  0.00    -0.421 OA
BRANCH  16  17
ATOM     17  C   UNL     1       0.314   0.278  23.580  0.00  0.00    +0.149 A 
ATOM     18  C   UNL     1       0.614  -0.259  23.030  0.00  0.00    +0.039 A 
ATOM     19  C   UNL     1       1.387  -0.179  22.754  0.00  0.00    +0.022 A 
ATOM     20  C   UNL     1       1.861   0.439  23.028  0.00  0.00    +0.085 A 
ATOM     21  C   UNL     1       1.561   0.976  23.579  0.00  0.00    +0.022 A 
ATOM     22  C   UNL     1       0.787   0.895  23.854  0.00  0.00    +0.039 A 
BRANCH  20  23
ATOM     23  N   UNL     1       2.634   0.520  22.753  0.00  0.00    -0.208 N 
ATOM     24  C   UNL     1       2.946   0.169  22.075  0.00  0.00    +0.202 A 
ATOM     25  N   UNL     1       3.736   0.398  22.009  0.00  0.00    -0.200 NA
ATOM     26  C   UNL     1       3.912   0.890  22.647  0.00  0.00    +0.221 A 
ATOM     27  N   UNL     1       3.231   0.966  23.106  0.00  0.00    -0.141 NA
ENDBRANCH  20  23
ENDBRANCH  16  17
ENDBRANCH  15  16
TORSDOF 7
ENDMDL
MODEL 4
REMARK VINA RESULT:      -7.7      2.897      4.974
REMARK  Name = 
REMARK  7 active torsions:
REMARK  status: ('A' for Active; 'I' for Inactive)
REMARK    1  A    between atoms: C_1  and  N_2
REMARK    2  A    between atoms: C_1  and  C_28
REMARK    3  A    between atoms: N_2  and  C_3
REMARK    4  A    between atoms: C_7  and  N_11
REMARK    5  A    between atoms: C_15  and  O_16
REMARK    6  A    between atoms: O_16  and  C_17
REMARK    7  A    between atoms: C_20  and  N_23
REMARK                            x       y       z     vdW  Elec       q    Type
REMARK                         _______ _______ _______ _____ _____    ______ ____
ROOT
ATOM     11  N   UNL     1      -2.687  -1.085  25.256  0.00  0.00    -0.180 N 
ATOM     12  N   UNL     1      -2.763  -1.532  25.945  0.00  0.00    -0.040 NA
ATOM     13  N   UNL     1      -3.450  -1.290  26.332  0.00  0.00    -0.020 NA
ATOM     14  N   UNL     1      -3.798  -0.693  25.883  0.00  0.00    -0.071 NA
ATOM     15  C   UNL     1      -3.327  -0.566  25.218  0.00  0.00    +0.343 A 
ENDROOT
BRANCH  11   7
ATOM      3  C   UNL     1      -0.179  -0.602  24.118  0.00  0.00    +0.132 C 
ATOM      4  C   UNL     1      -0.164  -0.151  24.808  0.00  0.00    +0.162 C 
ATOM      5  O   UNL     1      -0.885  -0.252  25.194  0.00  0.00    -0.350 OA
ATOM      6  C   UNL     1      -1.347  -0.765  24.743  0.00  0.00    +0.169 C 
ATOM      7  C   UNL     1      -2.078  -1.145  24.702  0.00  0.00    +0.170 C 
ATOM      8  C   UNL     1      -2.094  -1.596  24.012  0.00  0.00    +0.169 C 
ATOM      9  O   UNL     1      -1.372  -1.495  23.626  0.00  0.00    -0.350 OA
ATOM     10  C   UNL     1      -0.910  -0.981  24.078  0.00  0.00    +0.163 C 
BRANCH   3   2
ATOM      2  N   UNL     1       0.430  -0.662  23.564  0.00  0.00    -0.214 NA
BRANCH   2   1
ATOM      1  C   UNL     1       0.875   0.004  23.366  0.00  0.00    +0.089 C 
BRANCH   1  28
ATOM     28  C   UNL     1       1.459  -0.048  22.786  0.00  0.00    +0.017 C 
ATOM     29  C   UNL     1       2.227   0.109  22.528  0.00  0.00    +0.001 C 
ATOM     30  C   UNL     1       1.703  -0.297  22.038  0.00  0.00    +0.001 C 
ENDBRANCH   1  28
ENDBRANCH   2   1
ENDBRANCH   3   2
ENDBRANCH  11   7
BRANCH  15  16
ATOM     16  O   UNL     1      -3.471  -0.017  24.619  0.00  0.00    -0.421 OA
BRANCH  16  17
ATOM     17  C   UNL     1      -3.875   0.683  24.789  0.00  0.00    +0.149 A 
ATOM     18  C   UNL     1      -4.699   0.689  24.810  0.00  0.00    +0.039 A 
ATOM     19  C   UNL     1      -5.102   1.388  24.980  0.00  0.00    +0.022 A 
ATOM     20  C   UNL     1      -4.681   2.081  25.130  0.00  0.00    +0.085 A 
ATOM     21  C   UNL     1      -3.856   2.076  25.109  0.00  0.00    +0.022 A 
ATOM     22  C   UNL     1      -3.453   1.376  24.939  0.00  0.00    +0.039 A 
BRANCH  20  23
ATOM     23  N   UNL     1      -5.083   2.781  25.301  0.00  0.00    -0.208 N 
ATOM     24  C   UNL     1      -5.763   2.848  25.763  0.00  0.00    +0.202 A 
ATOM     25  N   UNL     1      -5.978   3.645  25.788  0.00  0.00    -0.200 NA
ATOM     26  C   UNL     1      -5.430   4.069  25.340  0.00  0.00    +0.221 A 
ATOM     27  N   UNL     1      -4.878   3.535  25.039  0.00  0.00    -0.141 NA
ENDBRANCH  20  23
ENDBRANCH  16  17
ENDBRANCH  15  16
TORSDOF 7
ENDMDL
MODEL 5
REMARK VINA RESULT:      -7.7      3.002      4.650
REMARK  Name = 
REMARK  7 active torsions:
REMARK  status: ('A' for Active; 'I' for Inactive)
REMARK    1  A    between atoms: C_1  and  N_2
REMARK    2  A    between atoms: C_1  and  C_28
REMARK    3  A    between atoms: N_2  and  C_3
REMARK    4  A    between atoms: C_7  and  N_11
REMARK    5  A    between atoms: C_15  and  O_16
REMARK    6  A    between atoms: O_16  and  C_17
REMARK    7  A    between atoms: C_20  and  N_23
REMARK                            x       y       z     vdW  Elec       q    Type
REMARK                         _______ _______ _______ _____ _____    ______ ____
ROOT
ATOM     11  N   UNL     1      -1.626   4.181  25.246  0.00  0.00    -0.180 N 
ATOM     12  N   UNL     1      -1.387   4.924  24.979  0.00  0.00    -0.040 NA
ATOM     13  N   UNL     1      -0.613   4.858  24.703  0.00  0.00    -0.020 NA
ATOM     14  N   UNL     1      -0.373   4.075  24.799  0.00  0.00    -0.071 NA
ATOM     15  C   UNL     1      -1.000   3.656  25.134  0.00  0.00    +0.343 A 
ENDROOT
BRANCH  11   7
ATOM      3  C   UNL     1      -4.347   3.534  25.258  0.00  0.00    +0.132 C 
ATOM      4  C   UNL     1      -4.172   3.603  24.455  0.00  0.00    +0.162 C 
ATOM      5  O   UNL     1      -3.373   3.795  24.384  0.00  0.00    -0.350 OA
ATOM      6  C   UNL     1      -3.054   3.845  25.142  0.00  0.00    +0.169 C 
ATOM      7  C   UNL     1      -2.363   3.995  25.568  0.00  0.00    +0.170 C 
ATOM      8  C   UNL     1      -2.538   3.926  26.371  0.00  0.00    +0.169 C 
ATOM      9  O   UNL     1      -3.336   3.734  26.442  0.00  0.00    -0.350 OA
ATOM     10  C   UNL     1      -3.656   3.684  25.683  0.00  0.00    +0.163 C 
BRANCH   3   2
ATOM      2  N   UNL     1      -5.083   3.348  25.580  0.00  0.00    -0.214 NA
BRANCH   2   1
ATOM      1  C   UNL     1      -5.553   2.768  25.228  0.00  0.00    +0.089 C 
BRANCH   1  28
ATOM     28  C   UNL     1      -6.037   2.290  25.695  0.00  0.00    +0.017 C 
ATOM     29  C   UNL     1      -6.574   1.668  25.764  0.00  0.00    +0.001 C 
ATOM     30  C   UNL     1      -6.337   2.084  26.435  0.00  0.00    +0.001 C 
ENDBRANCH   1  28
ENDBRANCH   2   1
ENDBRANCH   3   2
ENDBRANCH  11   7
BRANCH  15  16
ATOM     16  O   UNL     1      -0.999   2.853  25.325  0.00  0.00    -0.421 OA
BRANCH  16  17
ATOM     17  C   UNL     1      -0.556   2.322  24.874  0.00  0.00    +0.149 A 
ATOM     18  C   UNL     1      -0.909   1.918  24.249  0.00  0.00    +0.039 A 
ATOM     19  C   UNL     1      -0.467   1.387  23.798  0.00  0.00    +0.022 A 
ATOM     20  C   UNL     1       0.330   1.261  23.974  0.00  0.00    +0.085 A 
ATOM     21  C   UNL     1       0.683   1.667  24.600  0.00  0.00    +0.022 A 
ATOM     22  C   UNL     1       0.240   2.197  25.050  0.00  0.00    +0.039 A 
BRANCH  20  23
ATOM     23  N   UNL     1       0.774   0.731  23.524  0.00  0.00    -0.208 N 
ATOM     24  C   UNL     1       0.512   0.004  23.235  0.00  0.00    +0.202 A 
ATOM     25  N   UNL     1       1.132  -0.343  22.816  0.00  0.00    -0.200 NA
ATOM     26  C   UNL     1       1.778   0.170  22.847  0.00  0.00    +0.221 A 
ATOM     27  N   UNL     1       1.556   0.834  23.284  0.00  0.00    -0.141 NA
ENDBRANCH  20  23
ENDBRANCH  16  17
ENDBRANCH  15  16
TORSDOF 7
ENDMDL
MODEL 6
REMARK VINA RESULT:      -7.3      2.753      3.547
REMARK  Name = 
REMARK  7 active torsions:
REMARK  status: ('A' for Active; 'I' for Inactive)
REMARK    1  A    between atoms: C_1  and  N_2
REMARK    2  A    between atoms: C_1  and  C_28
REMARK    3  A    between atoms: N_2  and  C_3
REMARK    4  A    between atoms: C_7  and  N_11
REMARK    5  A    between atoms: C_15  and  O_16
REMARK    6  A    between atoms: O_16  and  C_17
REMARK    7  A    between atoms: C_20  and  N_23
REMARK                            x       y       z     vdW  Elec       q    Type
REMARK                         _______ _______ _______ _____ _____    ______ ____
ROOT
ATOM     11  N   UNL     1       0.193   0.650  24.095  0.00  0.00    -0.180 N 
ATOM     12  N   UNL     1       0.700   0.526  23.456  0.00  0.00    -0.040 NA
ATOM     13  N   UNL     1       0.642  -0.266  23.235  0.00  0.00    -0.020 NA
ATOM     14  N   UNL     1       0.099  -0.632  23.736  0.00  0.00    -0.071 NA
ATOM     15  C   UNL     1      -0.179  -0.066  24.268  0.00  0.00    +0.343 A 
ENDROOT
BRANCH  11   7
ATOM      3  C   UNL     1      -0.781   3.237  24.516  0.00  0.00    +0.132 C 
ATOM      4  C   UNL     1      -1.090   3.036  23.779  0.00  0.00    +0.162 C 
ATOM      5  O   UNL     1      -0.836   2.274  23.595  0.00  0.00    -0.350 OA
ATOM      6  C   UNL     1      -0.369   2.003  24.218  0.00  0.00    +0.169 C 
ATOM      7  C   UNL     1       0.077   1.365  24.491  0.00  0.00    +0.170 C 
ATOM      8  C   UNL     1       0.386   1.565  25.229  0.00  0.00    +0.169 C 
ATOM      9  O   UNL     1       0.132   2.328  25.412  0.00  0.00    -0.350 OA
ATOM     10  C   UNL     1      -0.335   2.599  24.788  0.00  0.00    +0.163 C 
BRANCH   3   2
ATOM      2  N   UNL     1      -0.896   3.952  24.913  0.00  0.00    -0.214 NA
BRANCH   2   1
ATOM      1  C   UNL     1      -1.613   4.353  24.839  0.00  0.00    +0.089 C 
BRANCH   1  28
ATOM     28  C   UNL     1      -1.661   5.153  25.035  0.00  0.00    +0.017 C 
ATOM     29  C   UNL     1      -2.078   5.785  25.361  0.00  0.00    +0.001 C 
ATOM     30  C   UNL     1      -1.325   5.906  25.049  0.00  0.00    +0.001 C 
ENDBRANCH   1  28
ENDBRANCH   2   1
ENDBRANCH   3   2
ENDBRANCH  11   7
BRANCH  15  16
ATOM     16  O   UNL     1      -0.731  -0.193  24.867  0.00  0.00    -0.421 OA
BRANCH  16  17
ATOM     17  C   UNL     1      -1.363  -0.710  24.743  0.00  0.00    +0.149 A 
ATOM     18  C   UNL     1      -1.245  -1.525  24.789  0.00  0.00    +0.039 A 
ATOM     19  C   UNL     1      -1.876  -2.041  24.665  0.00  0.00    +0.022 A 
ATOM     20  C   UNL     1      -2.626  -1.742  24.495  0.00  0.00    +0.085 A 
ATOM     21  C   UNL     1      -2.745  -0.926  24.449  0.00  0.00    +0.022 A 
ATOM     22  C   UNL     1      -2.112  -0.411  24.573  0.00  0.00    +0.039 A 
BRANCH  20  23
ATOM     23  N   UNL     1      -3.258  -2.257  24.370  0.00  0.00    -0.208 N 
ATOM     24  C   UNL     1      -3.340  -3.010  24.697  0.00  0.00    +0.202 A 
ATOM     25  N   UNL     1      -4.052  -3.330  24.427  0.00  0.00    -0.200 NA
ATOM     26  C   UNL     1      -4.408  -2.773  23.933  0.00  0.00    +0.221 A 
ATOM     27  N   UNL     1      -3.918  -2.111  23.898  0.00  0.00    -0.141 NA
ENDBRANCH  20  23
ENDBRANCH  16  17
ENDBRANCH  15  16
TORSDOF 7
ENDMDL
MODEL 7
REMARK VINA RESULT:      -7.3      1.089      5.441
REMARK  Name = 
REMARK  7 active torsions:
REMARK  status: ('A' for Active; 'I' for Inactive)
REMARK    1  A    between atoms: C_1  and  N_2
REMARK    2  A    between atoms: C_1  and  C_28
REMARK    3  A    between atoms: N_2  and  C_3
REMARK    4  A    between atoms: C_7  and  N_11
REMARK    5  A    between atoms: C_15  and  O_16
REMARK    6  A    between atoms: O_16  and  C_17
REMARK    7  A    between atoms: C_20  and  N_23
REMARK                            x       y       z     vdW  Elec       q    Type
REMARK                         _______ _______ _______ _____ _____    ______ ____
ROOT
ATOM     11  N   UNL     1      -4.909   1.132  25.112  0.00  0.00    -0.180 N 
ATOM     12  N   UNL     1      -5.511   1.245  25.666  0.00  0.00    -0.040 NA
ATOM     13  N   UNL     1      -5.590   2.056  25.794  0.00  0.00    -0.020 NA
ATOM     14  N   UNL     1      -5.038   2.444  25.320  0.00  0.00    -0.071 NA
ATOM     15  C   UNL     1      -4.617   1.873  24.899  0.00  0.00    +0.343 A 
ENDROOT
BRANCH  11   7
ATOM      3  C   UNL     1      -3.642  -1.360  25.167  0.00  0.00    +0.132 C 
ATOM      4  C   UNL     1      -3.522  -1.070  25.930  0.00  0.00    +0.162 C 
ATOM      5  O   UNL     1      -3.877  -0.327  25.978  0.00  0.00    -0.350 OA
ATOM      6  C   UNL     1      -4.217  -0.158  25.246  0.00  0.00    +0.169 C 
ATOM      7  C   UNL     1      -4.646   0.405  24.823  0.00  0.00    +0.170 C 
ATOM      8  C   UNL     1      -4.767   0.115  24.060  0.00  0.00    +0.169 C 
ATOM      9  O   UNL     1      -4.411  -0.628  24.012  0.00  0.00    -0.350 OA
ATOM     10  C   UNL     1      -4.071  -0.797  24.745  0.00  0.00    +0.163 C 
BRANCH   3   2
ATOM      2  N   UNL     1      -3.379  -2.087  24.878  0.00  0.00    -0.214 NA
BRANCH   2   1
ATOM      1  C   UNL     1      -2.628  -2.363  25.079  0.00  0.00    +0.089 C 
BRANCH   1  28
ATOM     28  C   UNL     1      -2.165  -2.747  24.514  0.00  0.00    +0.017 C 
ATOM     29  C   UNL     1      -1.430  -2.881  24.164  0.00  0.00    +0.001 C 
ATOM     30  C   UNL     1      -2.098  -3.276  23.884  0.00  0.00    +0.001 C 
ENDBRANCH   1  28
ENDBRANCH   2   1
ENDBRANCH   3   2
ENDBRANCH  11   7
BRANCH  15  16
ATOM     16  O   UNL     1      -4.010   2.018  24.359  0.00  0.00    -0.421 OA
BRANCH  16  17
ATOM     17  C   UNL     1      -3.476   2.633  24.493  0.00  0.00    +0.149 A 
ATOM     18  C   UNL     1      -2.807   2.504  24.956  0.00  0.00    +0.039 A 
ATOM     19  C   UNL     1      -2.273   3.119  25.091  0.00  0.00    +0.022 A 
ATOM     20  C   UNL     1      -2.410   3.863  24.762  0.00  0.00    +0.085 A 
ATOM     21  C   UNL     1      -3.081   3.993  24.298  0.00  0.00    +0.022 A 
ATOM     22  C   UNL     1      -3.614   3.377  24.164  0.00  0.00    +0.039 A 
BRANCH  20  23
ATOM     23  N   UNL     1      -1.878   4.479  24.895  0.00  0.00    -0.208 N 
ATOM     24  C   UNL     1      -2.057   5.208  25.237  0.00  0.00    +0.202 A 
ATOM     25  N   UNL     1      -1.363   5.654  25.264  0.00  0.00    -0.200 NA
ATOM     26  C   UNL     1      -0.756   5.200  24.940  0.00  0.00    +0.221 A 
ATOM     27  N   UNL     1      -1.074   4.474  24.712  0.00  0.00    -0.141 NA
ENDBRANCH  20  23
ENDBRANCH  16  17
ENDBRANCH  15  16
TORSDOF 7
ENDMDL
MODEL 8
REMARK VINA RESULT:      -7.2      2.391      5.585
REMARK  Name = 
REMARK  7 active torsions:
REMARK  status: ('A' for Active; 'I' for Inactive)
REMARK    1  A    between atoms: C_1  and  N_2
REMARK    2  A    between atoms: C_1  and  C_28
REMARK    3  A    between atoms: N_2  and  C_3
REMARK    4  A    between atoms: C_7  and  N_11
REMARK    5  A    between atoms: C_15  and  O_16
REMARK    6  A    between atoms: O_16  and  C_17
REMARK    7  A    between atoms: C_20  and  N_23
REMARK                            x       y       z     vdW  Elec       q    Type
REMARK                         _______ _______ _______ _____ _____    ______ ____
ROOT
ATOM     11  N   UNL     1      -0.493   2.066  25.112  0.00  0.00    -0.180 N 
ATOM     12  N   UNL     1       0.051   2.332  25.674  0.00  0.00    -0.040 NA
ATOM     13  N   UNL     1      -0.117   3.123  25.837  0.00  0.00    -0.020 NA
ATOM     14  N   UNL     1      -0.763   3.346  25.377  0.00  0.00    -0.071 NA
ATOM     15  C   UNL     1      -0.996   2.693  24.929  0.00  0.00    +0.343 A 
ENDROOT
BRANCH  11   7
ATOM      3  C   UNL     1      -0.972  -0.687  25.048  0.00  0.00    +0.132 C 
ATOM      4  C   UNL     1      -1.183  -0.477  25.817  0.00  0.00    +0.162 C 
ATOM      5  O   UNL     1      -1.062   0.335  25.900  0.00  0.00    -0.350 OA
ATOM      6  C   UNL     1      -0.778   0.626  25.184  0.00  0.00    +0.169 C 
ATOM      7  C   UNL     1      -0.527   1.307  24.791  0.00  0.00    +0.170 C 
ATOM      8  C   UNL     1      -0.316   1.096  24.022  0.00  0.00    +0.169 C 
ATOM      9  O   UNL     1      -0.437   0.285  23.939  0.00  0.00    -0.350 OA
ATOM     10  C   UNL     1      -0.722  -0.006  24.657  0.00  0.00    +0.163 C 
BRANCH   3   2
ATOM      2  N   UNL     1      -1.006  -1.447  24.727  0.00  0.00    -0.214 NA
BRANCH   2   1
ATOM      1  C   UNL     1      -1.527  -2.005  25.040  0.00  0.00    +0.089 C 
BRANCH   1  28
ATOM     28  C   UNL     1      -1.914  -2.535  24.540  0.00  0.00    +0.017 C 
ATOM     29  C   UNL     1      -2.601  -2.932  24.313  0.00  0.00    +0.001 C 
ATOM     30  C   UNL     1      -1.898  -3.056  23.901  0.00  0.00    +0.001 C 
ENDBRANCH   1  28
ENDBRANCH   2   1
ENDBRANCH   3   2
ENDBRANCH  11   7
BRANCH  15  16
ATOM     16  O   UNL     1      -1.621   2.672  24.391  0.00  0.00    -0.421 OA
BRANCH  16  17
ATOM     17  C   UNL     1      -2.380   2.893  24.631  0.00  0.00    +0.149 A 
ATOM     18  C   UNL     1      -2.480   3.531  25.144  0.00  0.00    +0.039 A 
ATOM     19  C   UNL     1      -3.238   3.751  25.384  0.00  0.00    +0.022 A 
ATOM     20  C   UNL     1      -3.895   3.334  25.111  0.00  0.00    +0.085 A 
ATOM     21  C   UNL     1      -3.794   2.695  24.598  0.00  0.00    +0.022 A 
ATOM     22  C   UNL     1      -3.036   2.475  24.358  0.00  0.00    +0.039 A 
BRANCH  20  23
ATOM     23  N   UNL     1      -4.653   3.554  25.351  0.00  0.00    -0.208 N 
ATOM     24  C   UNL     1      -5.205   3.064  25.721  0.00  0.00    +0.202 A 
ATOM     25  N   UNL     1      -5.886   3.509  25.862  0.00  0.00    -0.200 NA
ATOM     26  C   UNL     1      -5.754   4.272  25.578  0.00  0.00    +0.221 A 
ATOM     27  N   UNL     1      -4.993   4.300  25.262  0.00  0.00    -0.141 NA
ENDBRANCH  20  23
ENDBRANCH  16  17
ENDBRANCH  15  16
TORSDOF 7
ENDMDL
