MODEL 1
REMARK VINA RESULT:     -13.0      0.000      0.000
REMARK  Name = 
REMARK  5 active torsions:
REMARK  status: ('A' for Active; 'I' for Inactive)
REMARK    1  A    between atoms: C_4  and  C_8
REMARK    2  A    between atoms: C_11  and  C_13
REMARK    3  A    between atoms: N_18  and  C_19
REMARK    4  A    between atoms: C_19  and  C_20
REMARK    5  A    between atoms: C_23  and  C_26
REMARK                            x       y       z     vdW  Elec       q    Type
REMARK                         _______ _______ _______ _____ _____    ______ ____
ROOT
ATOM     13  C   UNL     1      -4.351   1.449  24.777  0.00  0.00    +0.144 C 
ATOM     14  C   UNL     1      -5.159   1.495  24.936  0.00  0.00    +0.073 C 
ATOM     15  C   UNL     1      -5.472   2.169  25.295  0.00  0.00    +0.077 A 
ATOM     16  C   UNL     1      -4.977   2.797  25.495  0.00  0.00    +0.090 A 
ATOM     17  C   UNL     1      -4.168   2.752  25.336  0.00  0.00    +0.121 C 
ATOM     18  N   UNL     1      -3.856   2.078  24.977  0.00  0.00    -0.257 NA
ATOM     29  N   UNL     1      -5.438   3.386  25.841  0.00  0.00    -0.226 NA
ATOM     30  C   UNL     1      -6.220   3.122  25.855  0.00  0.00    +0.198 A 
ATOM     31  N   UNL     1      -6.240   2.370  25.517  0.00  0.00    -0.227 NA
ENDROOT
BRANCH  13  11
ATOM      8  C   UNL     1      -3.590  -0.466  24.221  0.00  0.00    +0.203 A 
ATOM      9  N   UNL     1      -3.524  -0.056  23.509  0.00  0.00    -0.056 NA
ATOM     10  O   UNL     1      -3.801   0.713  23.630  0.00  0.00    -0.336 OA
ATOM     11  C   UNL     1      -4.039   0.776  24.418  0.00  0.00    +0.251 A 
ATOM     12  N   UNL     1      -3.908   0.048  24.782  0.00  0.00    -0.190 NA
BRANCH   8   4
ATOM      1  C   UNL     1      -1.601  -2.420  24.846  0.00  0.00    +0.031 C 
ATOM      2  C   UNL     1      -2.382  -2.230  24.662  0.00  0.00    -0.022 A 
ATOM      3  C   UNL     1      -2.595  -1.443  24.533  0.00  0.00    -0.001 A 
ATOM      4  C   UNL     1      -3.376  -1.252  24.350  0.00  0.00    +0.039 A 
ATOM      5  C   UNL     1      -3.945  -1.848  24.295  0.00  0.00    +0.003 A 
ATOM      6  C   UNL     1      -3.731  -2.635  24.424  0.00  0.00    -0.000 A 
ATOM      7  C   UNL     1      -2.950  -2.825  24.607  0.00  0.00    -0.004 A 
ENDBRANCH   8   4
ENDBRANCH  13  11
BRANCH  18  19
ATOM     19  C   UNL     1      -3.047   2.033  24.819  0.00  0.00    +0.100 C 
BRANCH  19  20
ATOM     20  C   UNL     1      -2.575   2.705  24.890  0.00  0.00    -0.006 A 
ATOM     21  C   UNL     1      -2.505   3.229  24.257  0.00  0.00    -0.003 A 
ATOM     22  C   UNL     1      -2.032   3.901  24.328  0.00  0.00    +0.006 A 
ATOM     23  C   UNL     1      -1.629   4.050  25.032  0.00  0.00    +0.080 A 
ATOM     24  C   UNL     1      -1.699   3.525  25.666  0.00  0.00    +0.006 A 
ATOM     25  C   UNL     1      -2.172   2.853  25.595  0.00  0.00    -0.003 A 
BRANCH  23  26
ATOM     26  C   UNL     1      -1.156   4.722  25.104  0.00  0.00    +0.388 C 
ATOM     27  O   UNL     1      -1.492   5.440  25.333  0.00  0.00    -0.241 OA
ATOM     28  O   UNL     1      -0.348   4.676  24.945  0.00  0.00    -0.241 OA
ENDBRANCH  23  26
ENDBRANCH  19  20
ENDBRANCH  18  19
TORSDOF 5
ENDMDL
MODEL 2
REMARK VINA RESULT:     -12.5      2.503      5.935
REMARK  Name = 
REMARK  5 active torsions:
REMARK  status: ('A' for Active; 'I' for Inactive)
REMARK    1  A    between atoms: C_4  and  C_8
REMARK    2  A    between atoms: C_11  and  C_13
REMARK    3  A    between atoms: N_18  and  C_19
REMARK    4  A    between atoms: C_19  and  C_20
REMARK    5  A    between atoms: C_23  and  C_26
REMARK                            x       y       z     vdW  Elec       q    Type
REMARK                         _______ _______ _______ _____ _____    ______ ____
ROOT
ATOM     13  C   UNL     1      -0.215   1.139  24.566  0.00  0.00    +0.144 C 
ATOM     14  C   UNL     1       0.429   1.182  24.054  0.00  0.00    +0.073 C 
ATOM     15  C   UNL     1       0.630   0.532  23.587  0.00  0.00    +0.077 A 
ATOM     16  C   UNL     1       0.185  -0.161  23.633  0.00  0.00    +0.090 A 
ATOM     17  C   UNL     1      -0.460  -0.205  24.146  0.00  0.00    +0.121 C 
ATOM     18  N   UNL     1      -0.659   0.446  24.613  0.00  0.00    -0.257 NA
ATOM     29  N   UNL     1       0.511  -0.708  23.110  0.00  0.00    -0.226 NA
ATOM     30  C   UNL     1       1.157  -0.354  22.740  0.00  0.00    +0.198 A 
ATOM     31  N   UNL     1       1.230   0.413  23.035  0.00  0.00    -0.227 NA
ENDROOT
BRANCH  13  11
ATOM      8  C   UNL     1      -0.933   2.952  25.436  0.00  0.00    +0.203 A 
ATOM      9  N   UNL     1      -0.515   2.627  26.067  0.00  0.00    -0.056 NA
ATOM     10  O   UNL     1      -0.194   1.908  25.819  0.00  0.00    -0.336 OA
ATOM     11  C   UNL     1      -0.415   1.789  25.033  0.00  0.00    +0.251 A 
ATOM     12  N   UNL     1      -0.871   2.434  24.797  0.00  0.00    -0.190 NA
BRANCH   8   4
ATOM      1  C   UNL     1      -3.264   4.469  26.091  0.00  0.00    +0.031 C 
ATOM      2  C   UNL     1      -2.507   4.428  25.768  0.00  0.00    -0.022 A 
ATOM      3  C   UNL     1      -2.099   3.710  25.764  0.00  0.00    -0.001 A 
ATOM      4  C   UNL     1      -1.341   3.669  25.441  0.00  0.00    +0.039 A 
ATOM      5  C   UNL     1      -0.990   4.345  25.123  0.00  0.00    +0.003 A 
ATOM      6  C   UNL     1      -1.398   5.062  25.128  0.00  0.00    -0.000 A 
ATOM      7  C   UNL     1      -2.156   5.103  25.451  0.00  0.00    -0.004 A 
ENDBRANCH   8   4
ENDBRANCH  13  11
BRANCH  18  19
ATOM     19  C   UNL     1      -1.304   0.402  25.126  0.00  0.00    +0.100 C 
BRANCH  19  20
ATOM     20  C   UNL     1      -1.860  -0.202  25.040  0.00  0.00    -0.006 A 
ATOM     21  C   UNL     1      -2.510  -0.096  24.545  0.00  0.00    -0.003 A 
ATOM     22  C   UNL     1      -3.066  -0.700  24.460  0.00  0.00    +0.006 A 
ATOM     23  C   UNL     1      -2.971  -1.410  24.869  0.00  0.00    +0.080 A 
ATOM     24  C   UNL     1      -2.319  -1.516  25.364  0.00  0.00    +0.006 A 
ATOM     25  C   UNL     1      -1.763  -0.912  25.450  0.00  0.00    -0.003 A 
BRANCH  23  26
ATOM     26  C   UNL     1      -3.526  -2.014  24.783  0.00  0.00    +0.388 C 
ATOM     27  O   UNL     1      -4.022  -2.027  24.125  0.00  0.00    -0.241 OA
ATOM     28  O   UNL     1      -3.584  -2.604  25.356  0.00  0.00    -0.241 OA
ENDBRANCH  23  26
ENDBRANCH  19  20
ENDBRANCH  18  19
TORSDOF 5
ENDMDL
MODEL 3
REMARK VINA RESULT:     -12.3      1.354      4.804
REMARK  Name = 
REMARK  5 active torsions:
REMARK  status: ('A' for Active; 'I' for Inactive)
REMARK    1  A    between atoms: C_4  and  C_8
REMARK    2  A    between atoms: C_11  and  C_13
REMARK    3  A    between atoms: N_18  and  C_19
REMARK    4  A    between atoms: C_19  and  C_20
REMARK    5  A    between atoms: C_23  and  C_26
REMARK                            x       y       z     vdW  Elec       q    Type
REMARK                         _______ _______ _______ _____ _____    ______ ____
ROOT
ATOM     13  C   UNL     1      -4.130   2.055  24.804  0.00  0.00    +0.144 C 
ATOM     14  C   UNL     1      -4.734   2.514  25.126  0.00  0.00    +0.073 C 
ATOM     15  C   UNL     1      -5.412   2.154  25.428  0.00  0.00    +0.077 A 
ATOM     16  C   UNL     1      -5.485   1.332  25.407  0.00  0.00    +0.090 A 
ATOM     17  C   UNL     1      -4.880   0.871  25.085  0.00  0.00    +0.121 C 
ATOM     18  N   UNL     1      -4.203   1.233  24.783  0.00  0.00    -0.257 NA
ATOM     29  N   UNL     1      -6.211   1.132  25.743  0.00  0.00    -0.226 NA
ATOM     30  C   UNL     1      -6.587   1.830  25.972  0.00  0.00    +0.198 A 
ATOM     31  N   UNL     1      -6.092   2.461  25.776  0.00  0.00    -0.227 NA
ENDROOT
BRANCH  13  11
ATOM      8  C   UNL     1      -2.293   3.073  24.420  0.00  0.00    +0.203 A 
ATOM      9  N   UNL     1      -2.526   2.871  23.655  0.00  0.00    -0.056 NA
ATOM     10  O   UNL     1      -3.243   2.464  23.705  0.00  0.00    -0.336 OA
ATOM     11  C   UNL     1      -3.453   2.416  24.502  0.00  0.00    +0.251 A 
ATOM     12  N   UNL     1      -2.866   2.791  24.943  0.00  0.00    -0.190 NA
BRANCH   8   4
ATOM      1  C   UNL     1      -0.965   5.534  25.007  0.00  0.00    +0.031 C 
ATOM      2  C   UNL     1      -0.944   4.714  24.920  0.00  0.00    -0.022 A 
ATOM      3  C   UNL     1      -1.630   4.304  24.713  0.00  0.00    -0.001 A 
ATOM      4  C   UNL     1      -1.608   3.484  24.626  0.00  0.00    +0.039 A 
ATOM      5  C   UNL     1      -0.902   3.074  24.745  0.00  0.00    +0.003 A 
ATOM      6  C   UNL     1      -0.217   3.485  24.951  0.00  0.00    -0.000 A 
ATOM      7  C   UNL     1      -0.238   4.304  25.038  0.00  0.00    -0.004 A 
ENDBRANCH   8   4
ENDBRANCH  13  11
BRANCH  18  19
ATOM     19  C   UNL     1      -3.599   0.773  24.461  0.00  0.00    +0.100 C 
BRANCH  19  20
ATOM     20  C   UNL     1      -3.621  -0.049  24.537  0.00  0.00    -0.006 A 
ATOM     21  C   UNL     1      -3.286  -0.410  25.198  0.00  0.00    -0.003 A 
ATOM     22  C   UNL     1      -3.307  -1.231  25.274  0.00  0.00    +0.006 A 
ATOM     23  C   UNL     1      -3.664  -1.691  24.690  0.00  0.00    +0.080 A 
ATOM     24  C   UNL     1      -4.000  -1.329  24.028  0.00  0.00    +0.006 A 
ATOM     25  C   UNL     1      -3.978  -0.507  23.952  0.00  0.00    -0.003 A 
BRANCH  23  26
ATOM     26  C   UNL     1      -3.685  -2.512  24.766  0.00  0.00    +0.388 C 
ATOM     27  O   UNL     1      -3.479  -2.865  25.482  0.00  0.00    -0.241 OA
ATOM     28  O   UNL     1      -3.913  -2.979  24.125  0.00  0.00    -0.241 OA
ENDBRANCH  23  26
ENDBRANCH  19  20
ENDBRANCH  18  19
TORSDOF 5
ENDMDL
MODEL 4
REMARK VINA RESULT:     -12.0      2.378      3.735
REMARK  Name = 
REMARK  5 active torsions:
REMARK  status: ('A' for Active; 'I' for Inactive)
REMARK    1  A    between atoms: C_4  and  C_8
REMARK    2  A    between atoms: C_11  and  C_13
REMARK    3  A    between atoms: N_18  and  C_19
REMARK    4  A    between atoms: C_19  and  C_20
REMARK    5  A    between atoms: C_23  and  C_26
REMARK                            x       y       z     vdW  Elec       q    Type
REMARK                         _______ _______ _______ _____ _____    ______ ____
ROOT
ATOM     13  C   UNL     1      -0.561   0.286  24.471  0.00  0.00    +0.144 C 
ATOM     14  C   UNL     1       0.017  -0.075  24.006  0.00  0.00    +0.073 C 
ATOM     15  C   UNL     1       0.664   0.361  23.738  0.00  0.00    +0.077 A 
ATOM     16  C   UNL     1       0.733   1.159  23.936  0.00  0.00    +0.090 A 
ATOM     17  C   UNL     1       0.155   1.521  24.402  0.00  0.00    +0.121 C 
ATOM     18  N   UNL     1      -0.492   1.084  24.669  0.00  0.00    -0.257 NA
ATOM     29  N   UNL     1       1.426   1.448  23.595  0.00  0.00    -0.226 NA
ATOM     30  C   UNL     1       1.786   0.828  23.187  0.00  0.00    +0.198 A 
ATOM     31  N   UNL     1       1.314   0.157  23.275  0.00  0.00    -0.227 NA
ENDROOT
BRANCH  13  11
ATOM      8  C   UNL     1      -2.353  -0.836  24.766  0.00  0.00    +0.203 A 
ATOM      9  N   UNL     1      -2.053  -0.810  25.534  0.00  0.00    -0.056 NA
ATOM     10  O   UNL     1      -1.344  -0.386  25.517  0.00  0.00    -0.336 OA
ATOM     11  C   UNL     1      -1.207  -0.150  24.738  0.00  0.00    +0.251 A 
ATOM     12  N   UNL     1      -1.830  -0.428  24.275  0.00  0.00    -0.190 NA
BRANCH   8   4
ATOM      1  C   UNL     1      -3.820  -3.215  24.172  0.00  0.00    +0.031 C 
ATOM      2  C   UNL     1      -3.787  -2.393  24.233  0.00  0.00    -0.022 A 
ATOM      3  C   UNL     1      -3.086  -2.026  24.469  0.00  0.00    -0.001 A 
ATOM      4  C   UNL     1      -3.053  -1.204  24.530  0.00  0.00    +0.039 A 
ATOM      5  C   UNL     1      -3.719  -0.749  24.356  0.00  0.00    +0.003 A 
ATOM      6  C   UNL     1      -4.419  -1.117  24.120  0.00  0.00    -0.000 A 
ATOM      7  C   UNL     1      -4.452  -1.939  24.059  0.00  0.00    -0.004 A 
ENDBRANCH   8   4
ENDBRANCH  13  11
BRANCH  18  19
ATOM     19  C   UNL     1      -1.069   1.445  25.134  0.00  0.00    +0.100 C 
BRANCH  19  20
ATOM     20  C   UNL     1      -1.133   2.268  25.148  0.00  0.00    -0.006 A 
ATOM     21  C   UNL     1      -0.758   2.700  25.742  0.00  0.00    -0.003 A 
ATOM     22  C   UNL     1      -0.822   3.522  25.756  0.00  0.00    +0.006 A 
ATOM     23  C   UNL     1      -1.260   3.913  25.176  0.00  0.00    +0.080 A 
ATOM     24  C   UNL     1      -1.635   3.479  24.582  0.00  0.00    +0.006 A 
ATOM     25  C   UNL     1      -1.571   2.657  24.568  0.00  0.00    -0.003 A 
BRANCH  23  26
ATOM     26  C   UNL     1      -1.324   4.735  25.190  0.00  0.00    +0.388 C 
ATOM     27  O   UNL     1      -0.731   5.200  24.855  0.00  0.00    -0.241 OA
ATOM     28  O   UNL     1      -1.981   5.091  25.539  0.00  0.00    -0.241 OA
ENDBRANCH  23  26
ENDBRANCH  19  20
ENDBRANCH  18  19
TORSDOF 5
ENDMDL
MODEL 5
REMARK VINA RESULT:     -11.6      1.962      5.415
REMARK  Name = 
REMARK  5 active torsions:
REMARK  status: ('A' for Active; 'I' for Inactive)
REMARK    1  A    between atoms: C_4  and  C_8
REMARK    2  A    between atoms: C_11  and  C_13
REMARK    3  A    between atoms: N_18  and  C_19
REMARK    4  A    between atoms: C_19  and  C_20
REMARK    5  A    between atoms: C_23  and  C_26
REMARK                            x       y       z     vdW  Elec       q    Type
REMARK                         _______ _______ _______ _____ _____    ______ ____
ROOT
ATOM     13  C   UNL     1      -2.120   1.302  24.011  0.00  0.00    +0.144 C 
ATOM     14  C   UNL     1      -1.356   1.558  23.834  0.00  0.00    +0.073 C 
ATOM     15  C   UNL     1      -0.724   1.029  23.870  0.00  0.00    +0.077 A 
ATOM     16  C   UNL     1      -0.856   0.243  24.083  0.00  0.00    +0.090 A 
ATOM     17  C   UNL     1      -1.621  -0.014  24.261  0.00  0.00    +0.121 C 
ATOM     18  N   UNL     1      -2.252   0.516  24.225  0.00  0.00    -0.257 NA
ATOM     29  N   UNL     1      -0.132  -0.150  24.071  0.00  0.00    -0.226 NA
ATOM     30  C   UNL     1       0.449   0.393  23.851  0.00  0.00    +0.198 A 
ATOM     31  N   UNL     1       0.082   1.121  23.726  0.00  0.00    -0.227 NA
ENDROOT
BRANCH  13  11
ATOM      8  C   UNL     1      -3.760   2.630  24.331  0.00  0.00    +0.203 A 
ATOM      9  N   UNL     1      -3.687   2.662  23.511  0.00  0.00    -0.056 NA
ATOM     10  O   UNL     1      -3.063   2.168  23.290  0.00  0.00    -0.336 OA
ATOM     11  C   UNL     1      -2.751   1.831  23.976  0.00  0.00    +0.251 A 
ATOM     12  N   UNL     1      -3.182   2.116  24.618  0.00  0.00    -0.190 NA
BRANCH   8   4
ATOM      1  C   UNL     1      -6.174   2.656  25.861  0.00  0.00    +0.031 C 
ATOM      2  C   UNL     1      -5.521   3.053  25.551  0.00  0.00    -0.022 A 
ATOM      3  C   UNL     1      -4.967   2.642  25.096  0.00  0.00    -0.001 A 
ATOM      4  C   UNL     1      -4.314   3.039  24.786  0.00  0.00    +0.039 A 
ATOM      5  C   UNL     1      -4.214   3.846  24.929  0.00  0.00    +0.003 A 
ATOM      6  C   UNL     1      -4.768   4.255  25.384  0.00  0.00    -0.000 A 
ATOM      7  C   UNL     1      -5.421   3.858  25.694  0.00  0.00    -0.004 A 
ENDBRANCH   8   4
ENDBRANCH  13  11
BRANCH  18  19
ATOM     19  C   UNL     1      -3.015   0.259  24.402  0.00  0.00    +0.100 C 
BRANCH  19  20
ATOM     20  C   UNL     1      -3.170  -0.547  24.489  0.00  0.00    -0.006 A 
ATOM     21  C   UNL     1      -3.424  -0.990  23.842  0.00  0.00    -0.003 A 
ATOM     22  C   UNL     1      -3.579  -1.795  23.929  0.00  0.00    +0.006 A 
ATOM     23  C   UNL     1      -3.480  -2.158  24.664  0.00  0.00    +0.080 A 
ATOM     24  C   UNL     1      -3.225  -1.714  25.312  0.00  0.00    +0.006 A 
ATOM     25  C   UNL     1      -3.071  -0.908  25.224  0.00  0.00    -0.003 A 
BRANCH  23  26
ATOM     26  C   UNL     1      -3.635  -2.963  24.751  0.00  0.00    +0.388 C 
ATOM     27  O   UNL     1      -3.425  -3.350  25.448  0.00  0.00    -0.241 OA
ATOM     28  O   UNL     1      -4.000  -3.381  24.140  0.00  0.00    -0.241 OA
ENDBRANCH  23  26
ENDBRANCH  19  20
ENDBRANCH  18  19
TORSDOF 5
ENDMDL
MODEL 6
REMARK VINA RESULT:     -11.3      1.881      3.157
REMARK  Name = 
REMARK  5 active torsions:
REMARK  status: ('A' for Active; 'I' for Inactive)
REMARK    1  A    between atoms: C_4  and  C_8
REMARK    2  A    between atoms: C_11  and  C_13
REMARK    3  A    between atoms: N_18  and  C_19
REMARK    4  A    between atoms: C_19  and  C_20
REMARK    5  A    between atoms: C_23  and  C_26
REMARK                            x       y       z     vdW  Elec       q    Type
REMARK                         _______ _______ _______ _____ _____    ______ ____
ROOT
ATOM     13  C   UNL     1      -1.559   1.152  24.951  0.00  0.00    +0.144 C 
ATOM     14  C   UNL     1      -0.833   1.215  25.338  0.00  0.00    +0.073 C 
ATOM     15  C   UNL     1      -0.620   1.923  25.703  0.00  0.00    +0.077 A 
ATOM     16  C   UNL     1      -1.132   2.569  25.680  0.00  0.00    +0.090 A 
ATOM     17  C   UNL     1      -1.858   2.507  25.293  0.00  0.00    +0.121 C 
ATOM     18  N   UNL     1      -2.071   1.798  24.928  0.00  0.00    -0.257 NA
ATOM     29  N   UNL     1      -0.775   3.192  26.086  0.00  0.00    -0.226 NA
ATOM     30  C   UNL     1      -0.042   2.932  26.359  0.00  0.00    +0.198 A 
ATOM     31  N   UNL     1       0.053   2.148  26.123  0.00  0.00    -0.227 NA
ENDROOT
BRANCH  13  11
ATOM      8  C   UNL     1      -2.317  -0.754  24.360  0.00  0.00    +0.203 A 
ATOM      9  N   UNL     1      -1.884  -0.540  23.692  0.00  0.00    -0.056 NA
ATOM     10  O   UNL     1      -1.547   0.200  23.831  0.00  0.00    -0.336 OA
ATOM     11  C   UNL     1      -1.772   0.444  24.587  0.00  0.00    +0.251 A 
ATOM     12  N   UNL     1      -2.247  -0.146  24.913  0.00  0.00    -0.190 NA
BRANCH   8   4
ATOM      1  C   UNL     1      -4.620  -2.348  23.795  0.00  0.00    +0.031 C 
ATOM      2  C   UNL     1      -3.896  -2.250  24.177  0.00  0.00    -0.022 A 
ATOM      3  C   UNL     1      -3.469  -1.551  24.077  0.00  0.00    -0.001 A 
ATOM      4  C   UNL     1      -2.744  -1.453  24.459  0.00  0.00    +0.039 A 
ATOM      5  C   UNL     1      -2.446  -2.053  24.940  0.00  0.00    +0.003 A 
ATOM      6  C   UNL     1      -2.874  -2.752  25.039  0.00  0.00    -0.000 A 
ATOM      7  C   UNL     1      -3.598  -2.850  24.657  0.00  0.00    -0.004 A 
ENDBRANCH   8   4
ENDBRANCH  13  11
BRANCH  18  19
ATOM     19  C   UNL     1      -2.797   1.736  24.541  0.00  0.00    +0.100 C 
BRANCH  19  20
ATOM     20  C   UNL     1      -3.424   2.226  24.759  0.00  0.00    -0.006 A 
ATOM     21  C   UNL     1      -3.535   2.947  24.375  0.00  0.00    -0.003 A 
ATOM     22  C   UNL     1      -4.163   3.437  24.593  0.00  0.00    +0.006 A 
ATOM     23  C   UNL     1      -4.678   3.206  25.193  0.00  0.00    +0.080 A 
ATOM     24  C   UNL     1      -4.567   2.483  25.577  0.00  0.00    +0.006 A 
ATOM     25  C   UNL     1      -3.940   1.993  25.359  0.00  0.00    -0.003 A 
BRANCH  23  26
ATOM     26  C   UNL     1      -5.306   3.696  25.410  0.00  0.00    +0.388 C 
ATOM     27  O   UNL     1      -5.264   4.506  25.267  0.00  0.00    -0.241 OA
ATOM     28  O   UNL     1      -5.974   3.373  25.771  0.00  0.00    -0.241 OA
ENDBRANCH  23  26
ENDBRANCH  19  20
ENDBRANCH  18  19
TORSDOF 5
ENDMDL
