MODEL 1
REMARK VINA RESULT:     -12.7      0.000      0.000
REMARK  Name = 
REMARK  7 active torsions:
REMARK  status: ('A' for Active; 'I' for Inactive)
REMARK    1  A    between atoms: O_2  and  C_3
REMARK    2  A    between atoms: C_3  and  C_5
REMARK    3  A    between atoms: C_18  and  N_29
REMARK    4  A    between atoms: C_20  and  C_22
REMARK    5  A    between atoms: N_29  and  C_30
REMARK    6  A    between atoms: C_30  and  C_31
REMARK    7  A    between atoms: C_31  and  N_32
REMARK                            x       y       z     vdW  Elec       q    Type
REMARK                         _______ _______ _______ _____ _____    ______ ____
ROOT
ATOM      5  C   UNL     1      -2.940   1.523  24.862  0.00  0.00    +0.162 C 
ATOM      6  C   UNL     1      -2.941   2.332  25.019  0.00  0.00    +0.055 C 
ATOM      7  C   UNL     1      -2.242   2.766  24.952  0.00  0.00    -0.004 A 
ATOM      8  C   UNL     1      -1.542   2.391  24.728  0.00  0.00    +0.070 A 
ATOM      9  N   UNL     1      -0.944   2.957  24.709  0.00  0.00    -0.249 NA
ATOM     10  C   UNL     1      -1.272   3.684  24.920  0.00  0.00    +0.081 A 
ATOM     11  C   UNL     1      -2.075   3.565  25.071  0.00  0.00    +0.015 A 
ATOM     12  C   UNL     1      -2.550   4.201  25.296  0.00  0.00    +0.001 A 
ATOM     13  C   UNL     1      -2.223   4.955  25.372  0.00  0.00    +0.000 A 
ATOM     14  C   UNL     1      -1.419   5.073  25.221  0.00  0.00    +0.002 A 
ATOM     15  C   UNL     1      -0.944   4.437  24.996  0.00  0.00    +0.019 A 
ATOM     16  C   UNL     1      -1.542   1.580  24.571  0.00  0.00    +0.100 C 
ATOM     17  C   UNL     1      -0.843   1.204  24.348  0.00  0.00    +0.040 C 
ATOM     18  C   UNL     1      -0.842   0.394  24.191  0.00  0.00    +0.076 C 
ATOM     19  C   UNL     1      -1.541  -0.039  24.258  0.00  0.00    +0.038 C 
ATOM     20  C   UNL     1      -2.239   0.337  24.481  0.00  0.00    +0.084 C 
ATOM     21  N   UNL     1      -2.240   1.147  24.638  0.00  0.00    -0.258 NA
ENDROOT
BRANCH  20  22
ATOM     22  C   UNL     1      -2.938  -0.097  24.548  0.00  0.00    +0.020 A 
ATOM     23  C   UNL     1      -3.195  -0.355  25.288  0.00  0.00    -0.001 A 
ATOM     24  C   UNL     1      -3.894  -0.789  25.353  0.00  0.00    -0.000 A 
ATOM     25  C   UNL     1      -4.335  -0.966  24.678  0.00  0.00    +0.002 A 
ATOM     26  C   UNL     1      -4.077  -0.709  23.939  0.00  0.00    +0.029 A 
ATOM     27  C   UNL     1      -3.379  -0.274  23.873  0.00  0.00    +0.137 A 
ATOM     28  F   UNL     1      -3.602  -0.287  22.967  0.00  0.00    -0.204 F 
ENDBRANCH  20  22
BRANCH   5   3
ATOM      3  C   UNL     1      -3.780   1.247  24.990  0.00  0.00    +0.332 C 
ATOM      4  O   UNL     1      -4.424   0.667  25.470  0.00  0.00    -0.249 OA
BRANCH   3   2
ATOM      1  C   UNL     1      -5.321   1.951  24.864  0.00  0.00    +0.256 C 
ATOM      2  O   UNL     1      -4.647   1.419  24.646  0.00  0.00    -0.443 OA
ENDBRANCH   3   2
ENDBRANCH   5   3
BRANCH  18  29
ATOM     29  N   UNL     1      -0.136  -0.036  23.955  0.00  0.00    -0.217 NA
BRANCH  29  30
ATOM     30  C   UNL     1       0.421   0.310  23.400  0.00  0.00    +0.112 C 
BRANCH  30  31
ATOM     31  C   UNL     1       1.052  -0.076  22.994  0.00  0.00    +0.134 C 
BRANCH  31  32
ATOM     32  N   UNL     1       1.866   0.174  23.074  0.00  0.00    -0.204 NA
ATOM     33  C   UNL     1       2.351   0.091  22.373  0.00  0.00    +0.242 C 
ATOM     34  C   UNL     1       3.155   0.336  22.447  0.00  0.00    +0.096 C 
ATOM     35  O   UNL     1       2.089  -0.212  21.625  0.00  0.00    -0.273 OA
ENDBRANCH  31  32
ENDBRANCH  30  31
ENDBRANCH  29  30
ENDBRANCH  18  29
TORSDOF 7
ENDMDL
MODEL 2
REMARK VINA RESULT:     -12.3      1.378      3.610
REMARK  Name = 
REMARK  7 active torsions:
REMARK  status: ('A' for Active; 'I' for Inactive)
REMARK    1  A    between atoms: O_2  and  C_3
REMARK    2  A    between atoms: C_3  and  C_5
REMARK    3  A    between atoms: C_18  and  N_29
REMARK    4  A    between atoms: C_20  and  C_22
REMARK    5  A    between atoms: N_29  and  C_30
REMARK    6  A    between atoms: C_30  and  C_31
REMARK    7  A    between atoms: C_31  and  N_32
REMARK                            x       y       z     vdW  Elec       q    Type
REMARK                         _______ _______ _______ _____ _____    ______ ____
ROOT
ATOM      5  C   UNL     1      -3.309   1.008  24.519  0.00  0.00    +0.162 C 
ATOM      6  C   UNL     1      -3.651   0.258  24.547  0.00  0.00    +0.055 C 
ATOM      7  C   UNL     1      -3.174  -0.414  24.514  0.00  0.00    -0.004 A 
ATOM      8  C   UNL     1      -2.355  -0.337  24.454  0.00  0.00    +0.070 A 
ATOM      9  N   UNL     1      -2.028  -1.094  24.433  0.00  0.00    -0.249 NA
ATOM     10  C   UNL     1      -2.645  -1.640  24.479  0.00  0.00    +0.081 A 
ATOM     11  C   UNL     1      -3.353  -1.220  24.530  0.00  0.00    +0.015 A 
ATOM     12  C   UNL     1      -4.070  -1.625  24.583  0.00  0.00    +0.001 A 
ATOM     13  C   UNL     1      -4.079  -2.450  24.587  0.00  0.00    +0.000 A 
ATOM     14  C   UNL     1      -3.369  -2.870  24.536  0.00  0.00    +0.002 A 
ATOM     15  C   UNL     1      -2.653  -2.465  24.483  0.00  0.00    +0.019 A 
ATOM     16  C   UNL     1      -2.012   0.413  24.427  0.00  0.00    +0.100 C 
ATOM     17  C   UNL     1      -1.194   0.492  24.367  0.00  0.00    +0.040 C 
ATOM     18  C   UNL     1      -0.852   1.241  24.339  0.00  0.00    +0.076 C 
ATOM     19  C   UNL     1      -1.329   1.914  24.372  0.00  0.00    +0.038 C 
ATOM     20  C   UNL     1      -2.148   1.835  24.432  0.00  0.00    +0.084 C 
ATOM     21  N   UNL     1      -2.490   1.086  24.459  0.00  0.00    -0.258 NA
ENDROOT
BRANCH  20  22
ATOM     22  C   UNL     1      -2.624   2.508  24.465  0.00  0.00    +0.020 A 
ATOM     23  C   UNL     1      -3.053   2.743  23.801  0.00  0.00    -0.001 A 
ATOM     24  C   UNL     1      -3.529   3.417  23.834  0.00  0.00    -0.000 A 
ATOM     25  C   UNL     1      -3.576   3.854  24.533  0.00  0.00    +0.002 A 
ATOM     26  C   UNL     1      -3.147   3.619  25.196  0.00  0.00    +0.029 A 
ATOM     27  C   UNL     1      -2.671   2.946  25.163  0.00  0.00    +0.137 A 
ATOM     28  F   UNL     1      -2.495   3.178  26.050  0.00  0.00    -0.204 F 
ENDBRANCH  20  22
BRANCH   5   3
ATOM      3  C   UNL     1      -3.986   1.589  24.567  0.00  0.00    +0.332 C 
ATOM      4  O   UNL     1      -4.517   2.316  24.154  0.00  0.00    -0.249 OA
BRANCH   3   2
ATOM      1  C   UNL     1      -5.524   1.639  25.286  0.00  0.00    +0.256 C 
ATOM      2  O   UNL     1      -4.669   1.839  25.176  0.00  0.00    -0.443 OA
ENDBRANCH   3   2
ENDBRANCH   5   3
BRANCH  18  29
ATOM     29  N   UNL     1      -0.003   1.366  24.277  0.00  0.00    -0.217 NA
BRANCH  29  30
ATOM     30  C   UNL     1       0.454   0.961  23.673  0.00  0.00    +0.112 C 
BRANCH  30  31
ATOM     31  C   UNL     1       1.285   1.012  23.534  0.00  0.00    +0.134 C 
BRANCH  31  32
ATOM     32  N   UNL     1       1.695   0.470  23.015  0.00  0.00    -0.204 NA
ATOM     33  C   UNL     1       2.523   0.639  22.879  0.00  0.00    +0.242 C 
ATOM     34  C   UNL     1       2.932   0.107  22.369  0.00  0.00    +0.096 C 
ATOM     35  O   UNL     1       2.954   1.289  23.214  0.00  0.00    -0.273 OA
ENDBRANCH  31  32
ENDBRANCH  30  31
ENDBRANCH  29  30
ENDBRANCH  18  29
TORSDOF 7
ENDMDL
MODEL 3
REMARK VINA RESULT:     -11.2      2.441      3.151
REMARK  Name = 
REMARK  7 active torsions:
REMARK  status: ('A' for Active; 'I' for Inactive)
REMARK    1  A    between atoms: O_2  and  C_3
REMARK    2  A    between atoms: C_3  and  C_5
REMARK    3  A    between atoms: C_18  and  N_29
REMARK    4  A    between atoms: C_20  and  C_22
REMARK    5  A    between atoms: N_29  and  C_30
REMARK    6  A    between atoms: C_30  and  C_31
REMARK    7  A    between atoms: C_31  and  N_32
REMARK                            x       y       z     vdW  Elec       q    Type
REMARK                         _______ _______ _______ _____ _____    ______ ____
ROOT
ATOM      5  C   UNL     1      -4.011   3.061  25.299  0.00  0.00    +0.162 C 
ATOM      6  C   UNL     1      -3.501   3.708  25.335  0.00  0.00    +0.055 C 
ATOM      7  C   UNL     1      -2.717   3.629  25.092  0.00  0.00    -0.004 A 
ATOM      8  C   UNL     1      -2.442   2.904  24.812  0.00  0.00    +0.070 A 
ATOM      9  N   UNL     1      -1.647   2.992  24.612  0.00  0.00    -0.249 NA
ATOM     10  C   UNL     1      -1.429   3.772  24.768  0.00  0.00    +0.081 A 
ATOM     11  C   UNL     1      -2.091   4.167  25.064  0.00  0.00    +0.015 A 
ATOM     12  C   UNL     1      -2.038   4.963  25.271  0.00  0.00    +0.001 A 
ATOM     13  C   UNL     1      -1.323   5.367  25.181  0.00  0.00    +0.000 A 
ATOM     14  C   UNL     1      -0.661   4.972  24.884  0.00  0.00    +0.002 A 
ATOM     15  C   UNL     1      -0.715   4.175  24.678  0.00  0.00    +0.019 A 
ATOM     16  C   UNL     1      -2.952   2.256  24.776  0.00  0.00    +0.100 C 
ATOM     17  C   UNL     1      -2.678   1.530  24.497  0.00  0.00    +0.040 C 
ATOM     18  C   UNL     1      -3.188   0.883  24.461  0.00  0.00    +0.076 C 
ATOM     19  C   UNL     1      -3.972   0.961  24.705  0.00  0.00    +0.038 C 
ATOM     20  C   UNL     1      -4.246   1.687  24.984  0.00  0.00    +0.084 C 
ATOM     21  N   UNL     1      -3.736   2.334  25.020  0.00  0.00    -0.258 NA
ENDROOT
BRANCH  20  22
ATOM     22  C   UNL     1      -5.031   1.765  25.227  0.00  0.00    +0.020 A 
ATOM     23  C   UNL     1      -5.216   1.758  26.031  0.00  0.00    -0.001 A 
ATOM     24  C   UNL     1      -6.001   1.836  26.273  0.00  0.00    -0.000 A 
ATOM     25  C   UNL     1      -6.600   1.921  25.711  0.00  0.00    +0.002 A 
ATOM     26  C   UNL     1      -6.414   1.927  24.908  0.00  0.00    +0.029 A 
ATOM     27  C   UNL     1      -5.630   1.849  24.666  0.00  0.00    +0.137 A 
ATOM     28  F   UNL     1      -6.014   1.920  23.818  0.00  0.00    -0.204 F 
ENDBRANCH  20  22
BRANCH   5   3
ATOM      3  C   UNL     1      -4.800   3.351  25.603  0.00  0.00    +0.332 C 
ATOM      4  O   UNL     1      -5.517   3.315  26.285  0.00  0.00    -0.249 OA
BRANCH   3   2
ATOM      1  C   UNL     1      -5.671   4.809  25.568  0.00  0.00    +0.256 C 
ATOM      2  O   UNL     1      -5.473   3.972  25.357  0.00  0.00    -0.443 OA
ENDBRANCH   3   2
ENDBRANCH   5   3
BRANCH  18  29
ATOM     29  N   UNL     1      -2.942   0.109  24.177  0.00  0.00    -0.217 NA
BRANCH  29  30
ATOM     30  C   UNL     1      -2.692  -0.500  24.729  0.00  0.00    +0.112 C 
BRANCH  30  31
ATOM     31  C   UNL     1      -2.493  -1.302  24.557  0.00  0.00    +0.134 C 
BRANCH  31  32
ATOM     32  N   UNL     1      -3.046  -1.944  24.670  0.00  0.00    -0.204 NA
ATOM     33  C   UNL     1      -2.744  -2.729  24.509  0.00  0.00    +0.242 C 
ATOM     34  C   UNL     1      -3.285  -3.365  24.620  0.00  0.00    +0.096 C 
ATOM     35  O   UNL     1      -1.955  -2.909  24.252  0.00  0.00    -0.273 OA
ENDBRANCH  31  32
ENDBRANCH  30  31
ENDBRANCH  29  30
ENDBRANCH  18  29
TORSDOF 7
ENDMDL
MODEL 4
REMARK VINA RESULT:     -11.0      2.137      4.544
REMARK  Name = 
REMARK  7 active torsions:
REMARK  status: ('A' for Active; 'I' for Inactive)
REMARK    1  A    between atoms: O_2  and  C_3
REMARK    2  A    between atoms: C_3  and  C_5
REMARK    3  A    between atoms: C_18  and  N_29
REMARK    4  A    between atoms: C_20  and  C_22
REMARK    5  A    between atoms: N_29  and  C_30
REMARK    6  A    between atoms: C_30  and  C_31
REMARK    7  A    between atoms: C_31  and  N_32
REMARK                            x       y       z     vdW  Elec       q    Type
REMARK                         _______ _______ _______ _____ _____    ______ ____
ROOT
ATOM      5  C   UNL     1      -2.031  -0.485  24.616  0.00  0.00    +0.162 C 
ATOM      6  C   UNL     1      -1.339  -0.042  24.545  0.00  0.00    +0.055 C 
ATOM      7  C   UNL     1      -1.378   0.781  24.506  0.00  0.00    -0.004 A 
ATOM      8  C   UNL     1      -2.109   1.162  24.538  0.00  0.00    +0.070 A 
ATOM      9  N   UNL     1      -1.976   1.974  24.487  0.00  0.00    -0.249 NA
ATOM     10  C   UNL     1      -1.162   2.097  24.424  0.00  0.00    +0.081 A 
ATOM     11  C   UNL     1      -0.793   1.358  24.436  0.00  0.00    +0.015 A 
ATOM     12  C   UNL     1       0.029   1.308  24.381  0.00  0.00    +0.001 A 
ATOM     13  C   UNL     1       0.482   1.995  24.315  0.00  0.00    +0.000 A 
ATOM     14  C   UNL     1       0.111   2.733  24.303  0.00  0.00    +0.002 A 
ATOM     15  C   UNL     1      -0.711   2.784  24.358  0.00  0.00    +0.019 A 
ATOM     16  C   UNL     1      -2.802   0.719  24.609  0.00  0.00    +0.100 C 
ATOM     17  C   UNL     1      -3.533   1.099  24.640  0.00  0.00    +0.040 C 
ATOM     18  C   UNL     1      -4.225   0.657  24.711  0.00  0.00    +0.076 C 
ATOM     19  C   UNL     1      -4.186  -0.167  24.750  0.00  0.00    +0.038 C 
ATOM     20  C   UNL     1      -3.455  -0.546  24.719  0.00  0.00    +0.084 C 
ATOM     21  N   UNL     1      -2.763  -0.104  24.648  0.00  0.00    -0.258 NA
ENDROOT
BRANCH  20  22
ATOM     22  C   UNL     1      -3.417  -1.370  24.758  0.00  0.00    +0.020 A 
ATOM     23  C   UNL     1      -3.334  -1.813  24.068  0.00  0.00    -0.001 A 
ATOM     24  C   UNL     1      -3.297  -2.636  24.108  0.00  0.00    -0.000 A 
ATOM     25  C   UNL     1      -3.341  -3.016  24.839  0.00  0.00    +0.002 A 
ATOM     26  C   UNL     1      -3.424  -2.573  25.530  0.00  0.00    +0.029 A 
ATOM     27  C   UNL     1      -3.462  -1.750  25.489  0.00  0.00    +0.137 A 
ATOM     28  F   UNL     1      -3.539  -1.832  26.416  0.00  0.00    -0.204 F 
ENDBRANCH  20  22
BRANCH   5   3
ATOM      3  C   UNL     1      -1.775  -1.341  24.642  0.00  0.00    +0.332 C 
ATOM      4  O   UNL     1      -1.795  -2.249  24.248  0.00  0.00    -0.249 OA
BRANCH   3   2
ATOM      1  C   UNL     1      -0.384  -2.123  25.223  0.00  0.00    +0.256 C 
ATOM      2  O   UNL     1      -1.242  -1.909  25.183  0.00  0.00    -0.443 OA
ENDBRANCH   3   2
ENDBRANCH   5   3
BRANCH  18  29
ATOM     29  N   UNL     1      -5.007   1.014  24.747  0.00  0.00    -0.217 NA
BRANCH  29  30
ATOM     30  C   UNL     1      -5.099   1.867  24.714  0.00  0.00    +0.112 C 
BRANCH  30  31
ATOM     31  C   UNL     1      -5.608   2.350  25.182  0.00  0.00    +0.134 C 
BRANCH  31  32
ATOM     32  N   UNL     1      -5.698   3.189  25.041  0.00  0.00    -0.204 NA
ATOM     33  C   UNL     1      -5.720   3.684  25.739  0.00  0.00    +0.242 C 
ATOM     34  C   UNL     1      -5.809   4.512  25.605  0.00  0.00    +0.096 C 
ATOM     35  O   UNL     1      -5.660   3.409  26.540  0.00  0.00    -0.273 OA
ENDBRANCH  31  32
ENDBRANCH  30  31
ENDBRANCH  29  30
ENDBRANCH  18  29
TORSDOF 7
ENDMDL
MODEL 5
REMARK VINA RESULT:     -10.7      2.433      4.301
REMARK  Name = 
REMARK  7 active torsions:
REMARK  status: ('A' for Active; 'I' for Inactive)
REMARK    1  A    between atoms: O_2  and  C_3
REMARK    2  A    between atoms: C_3  and  C_5
REMARK    3  A    between atoms: C_18  and  N_29
REMARK    4  A    between atoms: C_20  and  C_22
REMARK    5  A    between atoms: N_29  and  C_30
REMARK    6  A    between atoms: C_30  and  C_31
REMARK    7  A    between atoms: C_31  and  N_32
REMARK                            x       y       z     vdW  Elec       q    Type
REMARK                         _______ _______ _______ _____ _____    ______ ____
ROOT
ATOM      5  C   UNL     1      -3.523   1.370  24.697  0.00  0.00    +0.162 C 
ATOM      6  C   UNL     1      -3.757   0.590  24.571  0.00  0.00    +0.055 C 
ATOM      7  C   UNL     1      -3.224  -0.027  24.697  0.00  0.00    -0.004 A 
ATOM      8  C   UNL     1      -2.455   0.137  24.949  0.00  0.00    +0.070 A 
ATOM      9  N   UNL     1      -2.054  -0.579  25.027  0.00  0.00    -0.249 NA
ATOM     10  C   UNL     1      -2.574  -1.187  24.824  0.00  0.00    +0.081 A 
ATOM     11  C   UNL     1      -3.297  -0.845  24.620  0.00  0.00    +0.015 A 
ATOM     12  C   UNL     1      -3.929  -1.323  24.390  0.00  0.00    +0.001 A 
ATOM     13  C   UNL     1      -3.838  -2.143  24.364  0.00  0.00    +0.000 A 
ATOM     14  C   UNL     1      -3.114  -2.485  24.568  0.00  0.00    +0.002 A 
ATOM     15  C   UNL     1      -2.483  -2.006  24.798  0.00  0.00    +0.019 A 
ATOM     16  C   UNL     1      -2.220   0.918  25.074  0.00  0.00    +0.100 C 
ATOM     17  C   UNL     1      -1.452   1.083  25.326  0.00  0.00    +0.040 C 
ATOM     18  C   UNL     1      -1.218   1.863  25.451  0.00  0.00    +0.076 C 
ATOM     19  C   UNL     1      -1.751   2.480  25.325  0.00  0.00    +0.038 C 
ATOM     20  C   UNL     1      -2.519   2.315  25.073  0.00  0.00    +0.084 C 
ATOM     21  N   UNL     1      -2.754   1.535  24.948  0.00  0.00    -0.258 NA
ENDROOT
BRANCH  20  22
ATOM     22  C   UNL     1      -3.052   2.932  24.948  0.00  0.00    +0.020 A 
ATOM     23  C   UNL     1      -3.222   3.181  24.180  0.00  0.00    -0.001 A 
ATOM     24  C   UNL     1      -3.755   3.798  24.055  0.00  0.00    -0.000 A 
ATOM     25  C   UNL     1      -4.118   4.166  24.699  0.00  0.00    +0.002 A 
ATOM     26  C   UNL     1      -3.949   3.918  25.466  0.00  0.00    +0.029 A 
ATOM     27  C   UNL     1      -3.415   3.301  25.591  0.00  0.00    +0.137 A 
ATOM     28  F   UNL     1      -3.620   3.470  26.486  0.00  0.00    -0.204 F 
ENDBRANCH  20  22
BRANCH   5   3
ATOM      3  C   UNL     1      -4.235   1.875  24.507  0.00  0.00    +0.332 C 
ATOM      4  O   UNL     1      -4.674   2.548  23.927  0.00  0.00    -0.249 OA
BRANCH   3   2
ATOM      1  C   UNL     1      -5.905   1.679  24.751  0.00  0.00    +0.256 C 
ATOM      2  O   UNL     1      -5.103   2.041  24.852  0.00  0.00    -0.443 OA
ENDBRANCH   3   2
ENDBRANCH   5   3
BRANCH  18  29
ATOM     29  N   UNL     1      -0.427   2.077  25.713  0.00  0.00    -0.217 NA
BRANCH  29  30
ATOM     30  C   UNL     1      -0.297   2.384  26.504  0.00  0.00    +0.112 C 
BRANCH  30  31
ATOM     31  C   UNL     1       0.432   2.432  26.926  0.00  0.00    +0.134 C 
BRANCH  31  32
ATOM     32  N   UNL     1       0.480   2.302  27.770  0.00  0.00    -0.204 NA
ATOM     33  C   UNL     1       1.206   2.557  28.146  0.00  0.00    +0.242 C 
ATOM     34  C   UNL     1       1.259   2.431  28.977  0.00  0.00    +0.096 C 
ATOM     35  O   UNL     1       1.864   2.920  27.750  0.00  0.00    -0.273 OA
ENDBRANCH  31  32
ENDBRANCH  30  31
ENDBRANCH  29  30
ENDBRANCH  18  29
TORSDOF 7
ENDMDL
MODEL 6
REMARK VINA RESULT:     -10.4      2.400      4.218
REMARK  Name = 
REMARK  7 active torsions:
REMARK  status: ('A' for Active; 'I' for Inactive)
REMARK    1  A    between atoms: O_2  and  C_3
REMARK    2  A    between atoms: C_3  and  C_5
REMARK    3  A    between atoms: C_18  and  N_29
REMARK    4  A    between atoms: C_20  and  C_22
REMARK    5  A    between atoms: N_29  and  C_30
REMARK    6  A    between atoms: C_30  and  C_31
REMARK    7  A    between atoms: C_31  and  N_32
REMARK                            x       y       z     vdW  Elec       q    Type
REMARK                         _______ _______ _______ _____ _____    ______ ____
ROOT
ATOM      5  C   UNL     1      -2.388   2.467  25.065  0.00  0.00    +0.162 C 
ATOM      6  C   UNL     1      -3.176   2.708  25.052  0.00  0.00    +0.055 C 
ATOM      7  C   UNL     1      -3.780   2.146  25.065  0.00  0.00    -0.004 A 
ATOM      8  C   UNL     1      -3.596   1.342  25.091  0.00  0.00    +0.070 A 
ATOM      9  N   UNL     1      -4.303   0.918  25.099  0.00  0.00    -0.249 NA
ATOM     10  C   UNL     1      -4.926   1.459  25.078  0.00  0.00    +0.081 A 
ATOM     11  C   UNL     1      -4.602   2.218  25.057  0.00  0.00    +0.015 A 
ATOM     12  C   UNL     1      -5.098   2.877  25.033  0.00  0.00    +0.001 A 
ATOM     13  C   UNL     1      -5.918   2.777  25.030  0.00  0.00    +0.000 A 
ATOM     14  C   UNL     1      -6.240   2.017  25.052  0.00  0.00    +0.002 A 
ATOM     15  C   UNL     1      -5.744   1.359  25.075  0.00  0.00    +0.019 A 
ATOM     16  C   UNL     1      -2.807   1.101  25.104  0.00  0.00    +0.100 C 
ATOM     17  C   UNL     1      -2.621   0.298  25.130  0.00  0.00    +0.040 C 
ATOM     18  C   UNL     1      -1.833   0.056  25.143  0.00  0.00    +0.076 C 
ATOM     19  C   UNL     1      -1.229   0.619  25.130  0.00  0.00    +0.038 C 
ATOM     20  C   UNL     1      -1.415   1.422  25.104  0.00  0.00    +0.084 C 
ATOM     21  N   UNL     1      -2.203   1.663  25.091  0.00  0.00    -0.258 NA
ENDROOT
BRANCH  20  22
ATOM     22  C   UNL     1      -0.810   1.984  25.091  0.00  0.00    +0.020 A 
ATOM     23  C   UNL     1      -0.593   2.340  24.380  0.00  0.00    -0.001 A 
ATOM     24  C   UNL     1       0.012   2.901  24.368  0.00  0.00    -0.000 A 
ATOM     25  C   UNL     1       0.399   3.106  25.068  0.00  0.00    +0.002 A 
ATOM     26  C   UNL     1       0.181   2.750  25.779  0.00  0.00    +0.029 A 
ATOM     27  C   UNL     1      -0.423   2.189  25.791  0.00  0.00    +0.137 A 
ATOM     28  F   UNL     1      -0.224   2.174  26.703  0.00  0.00    -0.204 F 
ENDBRANCH  20  22
BRANCH   5   3
ATOM      3  C   UNL     1      -1.901   3.216  25.046  0.00  0.00    +0.332 C 
ATOM      4  O   UNL     1      -1.223   3.781  24.596  0.00  0.00    -0.249 OA
BRANCH   3   2
ATOM      1  C   UNL     1      -2.086   4.829  25.546  0.00  0.00    +0.256 C 
ATOM      2  O   UNL     1      -1.777   3.999  25.566  0.00  0.00    -0.443 OA
ENDBRANCH   3   2
ENDBRANCH   5   3
BRANCH  18  29
ATOM     29  N   UNL     1      -1.597  -0.770  25.171  0.00  0.00    -0.217 NA
BRANCH  29  30
ATOM     30  C   UNL     1      -1.902  -1.330  24.595  0.00  0.00    +0.112 C 
BRANCH  30  31
ATOM     31  C   UNL     1      -2.239  -2.090  24.743  0.00  0.00    +0.134 C 
BRANCH  31  32
ATOM     32  N   UNL     1      -2.748  -2.481  24.177  0.00  0.00    -0.204 NA
ATOM     33  C   UNL     1      -3.400  -2.926  24.508  0.00  0.00    +0.242 C 
ATOM     34  C   UNL     1      -3.904  -3.314  23.955  0.00  0.00    +0.096 C 
ATOM     35  O   UNL     1      -3.572  -3.005  25.336  0.00  0.00    -0.273 OA
ENDBRANCH  31  32
ENDBRANCH  30  31
ENDBRANCH  29  30
ENDBRANCH  18  29
TORSDOF 7
ENDMDL
MODEL 7
REMARK VINA RESULT:     -10.4      2.249      3.788
REMARK  Name = 
REMARK  7 active torsions:
REMARK  status: ('A' for Active; 'I' for Inactive)
REMARK    1  A    between atoms: O_2  and  C_3
REMARK    2  A    between atoms: C_3  and  C_5
REMARK    3  A    between atoms: C_18  and  N_29
REMARK    4  A    between atoms: C_20  and  C_22
REMARK    5  A    between atoms: N_29  and  C_30
REMARK    6  A    between atoms: C_30  and  C_31
REMARK    7  A    between atoms: C_31  and  N_32
REMARK                            x       y       z     vdW  Elec       q    Type
REMARK                         _______ _______ _______ _____ _____    ______ ____
ROOT
ATOM      5  C   UNL     1      -3.121  -0.173  24.896  0.00  0.00    +0.162 C 
ATOM      6  C   UNL     1      -3.920   0.029  24.917  0.00  0.00    +0.055 C 
ATOM      7  C   UNL     1      -4.144   0.823  24.942  0.00  0.00    -0.004 A 
ATOM      8  C   UNL     1      -3.569   1.414  24.946  0.00  0.00    +0.070 A 
ATOM      9  N   UNL     1      -3.953   2.143  24.972  0.00  0.00    -0.249 NA
ATOM     10  C   UNL     1      -4.766   2.004  24.985  0.00  0.00    +0.081 A 
ATOM     11  C   UNL     1      -4.884   1.187  24.966  0.00  0.00    +0.015 A 
ATOM     12  C   UNL     1      -5.650   0.880  24.973  0.00  0.00    +0.001 A 
ATOM     13  C   UNL     1      -6.298   1.390  25.000  0.00  0.00    +0.000 A 
ATOM     14  C   UNL     1      -6.180   2.208  25.018  0.00  0.00    +0.002 A 
ATOM     15  C   UNL     1      -5.414   2.514  25.011  0.00  0.00    +0.019 A 
ATOM     16  C   UNL     1      -2.769   1.212  24.925  0.00  0.00    +0.100 C 
ATOM     17  C   UNL     1      -2.194   1.803  24.929  0.00  0.00    +0.040 C 
ATOM     18  C   UNL     1      -1.395   1.601  24.908  0.00  0.00    +0.076 C 
ATOM     19  C   UNL     1      -1.170   0.807  24.883  0.00  0.00    +0.038 C 
ATOM     20  C   UNL     1      -1.746   0.217  24.879  0.00  0.00    +0.084 C 
ATOM     21  N   UNL     1      -2.545   0.419  24.900  0.00  0.00    -0.258 NA
ENDROOT
BRANCH  20  22
ATOM     22  C   UNL     1      -1.521  -0.577  24.854  0.00  0.00    +0.020 A 
ATOM     23  C   UNL     1      -1.546  -0.991  24.141  0.00  0.00    -0.001 A 
ATOM     24  C   UNL     1      -1.321  -1.785  24.117  0.00  0.00    -0.000 A 
ATOM     25  C   UNL     1      -1.070  -2.164  24.806  0.00  0.00    +0.002 A 
ATOM     26  C   UNL     1      -1.045  -1.750  25.518  0.00  0.00    +0.029 A 
ATOM     27  C   UNL     1      -1.270  -0.956  25.543  0.00  0.00    +0.137 A 
ATOM     28  F   UNL     1      -1.058  -1.052  26.446  0.00  0.00    -0.204 F 
ENDBRANCH  20  22
BRANCH   5   3
ATOM      3  C   UNL     1      -3.093  -1.066  24.872  0.00  0.00    +0.332 C 
ATOM      4  O   UNL     1      -2.849  -1.924  25.303  0.00  0.00    -0.249 OA
BRANCH   3   2
ATOM      1  C   UNL     1      -4.057  -2.282  24.181  0.00  0.00    +0.256 C 
ATOM      2  O   UNL     1      -3.342  -1.771  24.289  0.00  0.00    -0.443 OA
ENDBRANCH   3   2
ENDBRANCH   5   3
BRANCH  18  29
ATOM     29  N   UNL     1      -0.764   2.186  24.910  0.00  0.00    -0.217 NA
BRANCH  29  30
ATOM     30  C   UNL     1      -0.833   2.899  25.383  0.00  0.00    +0.112 C 
BRANCH  30  31
ATOM     31  C   UNL     1      -0.632   3.688  25.158  0.00  0.00    +0.134 C 
BRANCH  31  32
ATOM     32  N   UNL     1      -1.144   4.353  25.323  0.00  0.00    -0.204 NA
ATOM     33  C   UNL     1      -0.955   5.080  24.911  0.00  0.00    +0.242 C 
ATOM     34  C   UNL     1      -1.456   5.738  25.070  0.00  0.00    +0.096 C 
ATOM     35  O   UNL     1      -0.313   5.183  24.366  0.00  0.00    -0.273 OA
ENDBRANCH  31  32
ENDBRANCH  30  31
ENDBRANCH  29  30
ENDBRANCH  18  29
TORSDOF 7
ENDMDL
