MODEL 1
REMARK VINA RESULT:     -11.1      0.000      0.000
REMARK  Name = 
REMARK  7 active torsions:
REMARK  status: ('A' for Active; 'I' for Inactive)
REMARK    1  A    between atoms: O_2  and  C_3
REMARK    2  A    between atoms: C_4  and  C_5
REMARK    3  A    between atoms: C_5  and  N_6
REMARK    4  A    between atoms: C_7  and  C_9
REMARK    5  A    between atoms: C_16  and  C_17
REMARK    6  A    between atoms: C_17  and  N_18
REMARK    7  A    between atoms: C_20  and  C_23
REMARK                            x       y       z     vdW  Elec       q    Type
REMARK                         _______ _______ _______ _____ _____    ______ ____
ROOT
ATOM      9  C   UNL     1      -4.842   1.404  24.812  0.00  0.00    +0.094 C 
ATOM     10  C   UNL     1      -4.331   1.764  24.348  0.00  0.00    +0.081 C 
ATOM     11  N   UNL     1      -4.795   2.120  24.930  0.00  0.00    -0.272 NA
ATOM     12  C   UNL     1      -5.372   1.364  25.372  0.00  0.00    +0.072 C 
ATOM     13  C   UNL     1      -5.819   1.172  25.808  0.00  0.00    +0.018 C 
ATOM     14  C   UNL     1      -5.294   1.761  25.382  0.00  0.00    +0.013 C 
ATOM     15  C   UNL     1      -5.357   2.595  25.645  0.00  0.00    +0.019 C 
ATOM     16  C   UNL     1      -4.866   2.986  25.210  0.00  0.00    +0.082 C 
ENDROOT
BRANCH   9   7
ATOM      6  N   UNL     1      -4.270   0.096  24.750  0.00  0.00    -0.200 NA
ATOM      7  C   UNL     1      -4.930   0.588  24.717  0.00  0.00    +0.243 C 
ATOM      8  O   UNL     1      -5.679   0.267  24.587  0.00  0.00    -0.273 OA
BRANCH   6   5
ATOM      5  C   UNL     1      -4.359  -0.719  24.654  0.00  0.00    +0.144 C 
BRANCH   5   4
ATOM      3  C   UNL     1      -3.698  -1.942  24.322  0.00  0.00    +0.136 A 
ATOM      4  C   UNL     1      -3.703  -1.216  24.713  0.00  0.00    +0.033 A 
ATOM     29  C   UNL     1      -3.051  -0.986  25.165  0.00  0.00    +0.000 A 
ATOM     30  C   UNL     1      -2.394  -1.482  25.224  0.00  0.00    -0.000 A 
ATOM     31  C   UNL     1      -2.390  -2.208  24.832  0.00  0.00    +0.003 A 
ATOM     32  C   UNL     1      -3.041  -2.438  24.382  0.00  0.00    +0.037 A 
BRANCH   3   2
ATOM      1  C   UNL     1      -4.361  -2.915  23.512  0.00  0.00    +0.252 C 
ATOM      2  O   UNL     1      -4.349  -2.172  23.871  0.00  0.00    -0.472 OA
ENDBRANCH   3   2
ENDBRANCH   5   4
ENDBRANCH   6   5
ENDBRANCH   9   7
BRANCH  16  17
ATOM     17  C   UNL     1      -4.573   3.744  25.073  0.00  0.00    +0.145 C 
BRANCH  17  18
ATOM     18  N   UNL     1      -3.830   3.958  25.360  0.00  0.00    -0.229 N 
ATOM     19  C   UNL     1      -3.141   4.033  24.913  0.00  0.00    +0.119 A 
ATOM     20  C   UNL     1      -2.531   4.256  25.423  0.00  0.00    +0.141 A 
ATOM     21  N   UNL     1      -2.844   4.318  26.183  0.00  0.00    -0.127 NA
ATOM     22  N   UNL     1      -3.647   4.135  26.145  0.00  0.00    -0.064 NA
BRANCH  20  23
ATOM     23  C   UNL     1      -1.746   4.392  25.208  0.00  0.00    +0.102 A 
ATOM     24  N   UNL     1      -1.223   3.758  25.132  0.00  0.00    -0.242 NA
ATOM     25  C   UNL     1      -0.438   3.894  24.917  0.00  0.00    +0.099 A 
ATOM     26  C   UNL     1      -0.177   4.664  24.780  0.00  0.00    +0.021 A 
ATOM     27  C   UNL     1      -0.699   5.298  24.856  0.00  0.00    +0.003 A 
ATOM     28  C   UNL     1      -1.484   5.161  25.071  0.00  0.00    +0.021 A 
ENDBRANCH  20  23
ENDBRANCH  17  18
ENDBRANCH  16  17
TORSDOF 7
ENDMDL
MODEL 2
REMARK VINA RESULT:     -11.0      4.454      5.852
REMARK  Name = 
REMARK  7 active torsions:
REMARK  status: ('A' for Active; 'I' for Inactive)
REMARK    1  A    between atoms: O_2  and  C_3
REMARK    2  A    between atoms: C_4  and  C_5
REMARK    3  A    between atoms: C_5  and  N_6
REMARK    4  A    between atoms: C_7  and  C_9
REMARK    5  A    between atoms: C_16  and  C_17
REMARK    6  A    between atoms: C_17  and  N_18
REMARK    7  A    between atoms: C_20  and  C_23
REMARK                            x       y       z     vdW  Elec       q    Type
REMARK                         _______ _______ _______ _____ _____    ______ ____
ROOT
ATOM      9  C   UNL     1      -0.311  -0.156  24.044  0.00  0.00    +0.094 C 
ATOM     10  C   UNL     1      -0.078  -0.853  23.786  0.00  0.00    +0.081 C 
ATOM     11  N   UNL     1       0.269  -0.126  23.608  0.00  0.00    -0.272 NA
ATOM     12  C   UNL     1      -0.280   0.612  24.111  0.00  0.00    +0.072 C 
ATOM     13  C   UNL     1      -0.384   1.239  24.262  0.00  0.00    +0.018 C 
ATOM     14  C   UNL     1       0.035   0.553  23.865  0.00  0.00    +0.013 C 
ATOM     15  C   UNL     1       0.726   0.760  23.365  0.00  0.00    +0.019 C 
ATOM     16  C   UNL     1       0.987   0.097  23.090  0.00  0.00    +0.082 C 
ENDROOT
BRANCH   9   7
ATOM      6  N   UNL     1      -1.672  -0.500  24.313  0.00  0.00    -0.200 NA
ATOM      7  C   UNL     1      -0.969  -0.139  24.544  0.00  0.00    +0.243 C 
ATOM      8  O   UNL     1      -0.920   0.240  25.276  0.00  0.00    -0.273 OA
BRANCH   6   5
ATOM      5  C   UNL     1      -2.328  -0.483  24.812  0.00  0.00    +0.144 C 
BRANCH   5   4
ATOM      3  C   UNL     1      -3.739  -0.466  24.586  0.00  0.00    +0.136 A 
ATOM      4  C   UNL     1      -3.022  -0.873  24.597  0.00  0.00    +0.033 A 
ATOM     29  C   UNL     1      -2.998  -1.672  24.391  0.00  0.00    +0.000 A 
ATOM     30  C   UNL     1      -3.692  -2.064  24.175  0.00  0.00    -0.000 A 
ATOM     31  C   UNL     1      -4.410  -1.656  24.165  0.00  0.00    +0.003 A 
ATOM     32  C   UNL     1      -4.433  -0.858  24.371  0.00  0.00    +0.037 A 
BRANCH   3   2
ATOM      1  C   UNL     1      -4.490   0.717  24.867  0.00  0.00    +0.252 C 
ATOM      2  O   UNL     1      -3.764   0.332  24.792  0.00  0.00    -0.472 OA
ENDBRANCH   3   2
ENDBRANCH   5   4
ENDBRANCH   6   5
ENDBRANCH   9   7
BRANCH  16  17
ATOM     17  C   UNL     1       1.572  -0.227  22.608  0.00  0.00    +0.145 C 
BRANCH  17  18
ATOM     18  N   UNL     1       2.351   0.040  22.668  0.00  0.00    -0.229 N 
ATOM     19  C   UNL     1       2.956  -0.322  23.096  0.00  0.00    +0.119 A 
ATOM     20  C   UNL     1       3.640   0.131  23.002  0.00  0.00    +0.141 A 
ATOM     21  N   UNL     1       3.456   0.772  22.517  0.00  0.00    -0.127 NA
ATOM     22  N   UNL     1       2.660   0.716  22.311  0.00  0.00    -0.064 NA
BRANCH  20  23
ATOM     23  C   UNL     1       4.377  -0.031  23.336  0.00  0.00    +0.102 A 
ATOM     24  N   UNL     1       4.527  -0.772  23.667  0.00  0.00    -0.242 NA
ATOM     25  C   UNL     1       5.264  -0.933  24.000  0.00  0.00    +0.099 A 
ATOM     26  C   UNL     1       5.851  -0.353  24.002  0.00  0.00    +0.021 A 
ATOM     27  C   UNL     1       5.701   0.387  23.672  0.00  0.00    +0.003 A 
ATOM     28  C   UNL     1       4.964   0.548  23.338  0.00  0.00    +0.021 A 
ENDBRANCH  20  23
ENDBRANCH  17  18
ENDBRANCH  16  17
TORSDOF 7
ENDMDL
MODEL 3
REMARK VINA RESULT:     -10.9      2.711      6.448
REMARK  Name = 
REMARK  7 active torsions:
REMARK  status: ('A' for Active; 'I' for Inactive)
REMARK    1  A    between atoms: O_2  and  C_3
REMARK    2  A    between atoms: C_4  and  C_5
REMARK    3  A    between atoms: C_5  and  N_6
REMARK    4  A    between atoms: C_7  and  C_9
REMARK    5  A    between atoms: C_16  and  C_17
REMARK    6  A    between atoms: C_17  and  N_18
REMARK    7  A    between atoms: C_20  and  C_23
REMARK                            x       y       z     vdW  Elec       q    Type
REMARK                         _______ _______ _______ _____ _____    ______ ____
ROOT
ATOM      9  C   UNL     1      -0.408   1.212  25.218  0.00  0.00    +0.094 C 
ATOM     10  C   UNL     1      -0.690   0.918  25.881  0.00  0.00    +0.081 C 
ATOM     11  N   UNL     1      -0.486   0.489  25.206  0.00  0.00    -0.272 NA
ATOM     12  C   UNL     1      -0.140   1.177  24.495  0.00  0.00    +0.072 C 
ATOM     13  C   UNL     1       0.099   1.310  23.901  0.00  0.00    +0.018 C 
ATOM     14  C   UNL     1      -0.209   0.784  24.560  0.00  0.00    +0.013 C 
ATOM     15  C   UNL     1      -0.242  -0.075  24.384  0.00  0.00    +0.019 C 
ATOM     16  C   UNL     1      -0.517  -0.403  25.016  0.00  0.00    +0.082 C 
ENDROOT
BRANCH   9   7
ATOM      6  N   UNL     1      -0.930   2.535  25.348  0.00  0.00    -0.200 NA
ATOM      7  C   UNL     1      -0.300   2.030  25.183  0.00  0.00    +0.243 C 
ATOM      8  O   UNL     1       0.438   2.341  24.983  0.00  0.00    -0.273 OA
BRANCH   6   5
ATOM      5  C   UNL     1      -0.823   3.352  25.313  0.00  0.00    +0.144 C 
BRANCH   5   4
ATOM      3  C   UNL     1      -1.419   4.647  25.210  0.00  0.00    +0.136 A 
ATOM      4  C   UNL     1      -1.459   3.859  25.450  0.00  0.00    +0.033 A 
ATOM     29  C   UNL     1      -2.137   3.577  25.828  0.00  0.00    +0.000 A 
ATOM     30  C   UNL     1      -2.774   4.083  25.965  0.00  0.00    -0.000 A 
ATOM     31  C   UNL     1      -2.733   4.871  25.725  0.00  0.00    +0.003 A 
ATOM     32  C   UNL     1      -2.057   5.153  25.348  0.00  0.00    +0.037 A 
BRANCH   3   2
ATOM      1  C   UNL     1      -0.700   5.719  24.599  0.00  0.00    +0.252 C 
ATOM      2  O   UNL     1      -0.743   4.930  24.833  0.00  0.00    -0.472 OA
ENDBRANCH   3   2
ENDBRANCH   5   4
ENDBRANCH   6   5
ENDBRANCH   9   7
BRANCH  16  17
ATOM     17  C   UNL     1      -0.722  -1.134  25.338  0.00  0.00    +0.145 C 
BRANCH  17  18
ATOM     18  N   UNL     1      -1.256  -1.624  24.944  0.00  0.00    -0.229 N 
ATOM     19  C   UNL     1      -2.068  -1.494  24.868  0.00  0.00    +0.119 A 
ATOM     20  C   UNL     1      -2.385  -2.120  24.433  0.00  0.00    +0.141 A 
ATOM     21  N   UNL     1      -1.770  -2.635  24.241  0.00  0.00    -0.127 NA
ATOM     22  N   UNL     1      -1.073  -2.328  24.556  0.00  0.00    -0.064 NA
BRANCH  20  23
ATOM     23  C   UNL     1      -3.179  -2.213  24.227  0.00  0.00    +0.102 A 
ATOM     24  N   UNL     1      -3.516  -2.967  24.215  0.00  0.00    -0.242 NA
ATOM     25  C   UNL     1      -4.309  -3.060  24.009  0.00  0.00    +0.099 A 
ATOM     26  C   UNL     1      -4.765  -2.400  23.816  0.00  0.00    +0.021 A 
ATOM     27  C   UNL     1      -4.428  -1.648  23.828  0.00  0.00    +0.003 A 
ATOM     28  C   UNL     1      -3.635  -1.554  24.034  0.00  0.00    +0.021 A 
ENDBRANCH  20  23
ENDBRANCH  17  18
ENDBRANCH  16  17
TORSDOF 7
ENDMDL
MODEL 4
REMARK VINA RESULT:     -10.7      3.902      5.570
REMARK  Name = 
REMARK  7 active torsions:
REMARK  status: ('A' for Active; 'I' for Inactive)
REMARK    1  A    between atoms: O_2  and  C_3
REMARK    2  A    between atoms: C_4  and  C_5
REMARK    3  A    between atoms: C_5  and  N_6
REMARK    4  A    between atoms: C_7  and  C_9
REMARK    5  A    between atoms: C_16  and  C_17
REMARK    6  A    between atoms: C_17  and  N_18
REMARK    7  A    between atoms: C_20  and  C_23
REMARK                            x       y       z     vdW  Elec       q    Type
REMARK                         _______ _______ _______ _____ _____    ______ ____
ROOT
ATOM      9  C   UNL     1      -1.357   1.456  23.878  0.00  0.00    +0.094 C 
ATOM     10  C   UNL     1      -1.542   0.808  23.488  0.00  0.00    +0.081 C 
ATOM     11  N   UNL     1      -0.791   1.014  23.763  0.00  0.00    -0.272 NA
ATOM     12  C   UNL     1      -0.881   1.942  24.243  0.00  0.00    +0.072 C 
ATOM     13  C   UNL     1      -0.614   2.440  24.570  0.00  0.00    +0.018 C 
ATOM     14  C   UNL     1      -0.617   1.651  24.144  0.00  0.00    +0.013 C 
ATOM     15  C   UNL     1       0.155   1.237  24.091  0.00  0.00    +0.019 C 
ATOM     16  C   UNL     1       0.015   0.590  23.711  0.00  0.00    +0.082 C 
ENDROOT
BRANCH   9   7
ATOM      6  N   UNL     1      -2.687   1.721  24.329  0.00  0.00    -0.200 NA
ATOM      7  C   UNL     1      -1.967   1.991  24.032  0.00  0.00    +0.243 C 
ATOM      8  O   UNL     1      -1.855   2.796  23.890  0.00  0.00    -0.273 OA
BRANCH   6   5
ATOM      5  C   UNL     1      -3.295   2.255  24.483  0.00  0.00    +0.144 C 
BRANCH   5   4
ATOM      3  C   UNL     1      -4.571   2.509  25.075  0.00  0.00    +0.136 A 
ATOM      4  C   UNL     1      -4.028   1.982  24.748  0.00  0.00    +0.033 A 
ATOM     29  C   UNL     1      -4.216   1.181  24.685  0.00  0.00    +0.000 A 
ATOM     30  C   UNL     1      -4.949   0.907  24.949  0.00  0.00    -0.000 A 
ATOM     31  C   UNL     1      -5.492   1.435  25.276  0.00  0.00    +0.003 A 
ATOM     32  C   UNL     1      -5.304   2.235  25.339  0.00  0.00    +0.037 A 
BRANCH   3   2
ATOM      1  C   UNL     1      -4.917   3.833  25.489  0.00  0.00    +0.252 C 
ATOM      2  O   UNL     1      -4.384   3.310  25.138  0.00  0.00    -0.472 OA
ENDBRANCH   3   2
ENDBRANCH   5   4
ENDBRANCH   6   5
ENDBRANCH   9   7
BRANCH  16  17
ATOM     17  C   UNL     1       0.379  -0.092  23.424  0.00  0.00    +0.145 C 
BRANCH  17  18
ATOM     18  N   UNL     1       1.102  -0.039  23.029  0.00  0.00    -0.229 N 
ATOM     19  C   UNL     1       1.841   0.056  23.382  0.00  0.00    +0.119 A 
ATOM     20  C   UNL     1       2.408   0.082  22.781  0.00  0.00    +0.141 A 
ATOM     21  N   UNL     1       2.017   0.003  22.059  0.00  0.00    -0.127 NA
ATOM     22  N   UNL     1       1.210  -0.071  22.212  0.00  0.00    -0.064 NA
BRANCH  20  23
ATOM     23  C   UNL     1       3.221   0.170  22.886  0.00  0.00    +0.102 A 
ATOM     24  N   UNL     1       3.665  -0.444  23.214  0.00  0.00    -0.242 NA
ATOM     25  C   UNL     1       4.478  -0.355  23.319  0.00  0.00    +0.099 A 
ATOM     26  C   UNL     1       4.847   0.348  23.096  0.00  0.00    +0.021 A 
ATOM     27  C   UNL     1       4.405   0.962  22.769  0.00  0.00    +0.003 A 
ATOM     28  C   UNL     1       3.591   0.873  22.664  0.00  0.00    +0.021 A 
ENDBRANCH  20  23
ENDBRANCH  17  18
ENDBRANCH  16  17
TORSDOF 7
ENDMDL
MODEL 5
REMARK VINA RESULT:     -10.2      2.448      5.918
REMARK  Name = 
REMARK  7 active torsions:
REMARK  status: ('A' for Active; 'I' for Inactive)
REMARK    1  A    between atoms: O_2  and  C_3
REMARK    2  A    between atoms: C_4  and  C_5
REMARK    3  A    between atoms: C_5  and  N_6
REMARK    4  A    between atoms: C_7  and  C_9
REMARK    5  A    between atoms: C_16  and  C_17
REMARK    6  A    between atoms: C_17  and  N_18
REMARK    7  A    between atoms: C_20  and  C_23
REMARK                            x       y       z     vdW  Elec       q    Type
REMARK                         _______ _______ _______ _____ _____    ______ ____
ROOT
ATOM      9  C   UNL     1      -1.120   2.035  24.335  0.00  0.00    +0.094 C 
ATOM     10  C   UNL     1      -1.443   1.562  23.808  0.00  0.00    +0.081 C 
ATOM     11  N   UNL     1      -0.775   1.399  24.265  0.00  0.00    -0.272 NA
ATOM     12  C   UNL     1      -0.603   2.237  24.871  0.00  0.00    +0.072 C 
ATOM     13  C   UNL     1      -0.253   2.545  25.328  0.00  0.00    +0.018 C 
ATOM     14  C   UNL     1      -0.464   1.868  24.779  0.00  0.00    +0.013 C 
ATOM     15  C   UNL     1       0.058   1.164  24.816  0.00  0.00    +0.019 C 
ATOM     16  C   UNL     1      -0.227   0.670  24.308  0.00  0.00    +0.082 C 
ENDROOT
BRANCH   9   7
ATOM      6  N   UNL     1      -2.274   2.814  24.657  0.00  0.00    -0.200 NA
ATOM      7  C   UNL     1      -1.477   2.771  24.450  0.00  0.00    +0.243 C 
ATOM      8  O   UNL     1      -1.036   3.462  24.359  0.00  0.00    -0.273 OA
BRANCH   6   5
ATOM      5  C   UNL     1      -2.631   3.549  24.773  0.00  0.00    +0.144 C 
BRANCH   5   4
ATOM      3  C   UNL     1      -3.696   3.925  25.647  0.00  0.00    +0.136 A 
ATOM      4  C   UNL     1      -3.438   3.595  24.937  0.00  0.00    +0.033 A 
ATOM     29  C   UNL     1      -3.987   3.311  24.391  0.00  0.00    +0.000 A 
ATOM     30  C   UNL     1      -4.794   3.356  24.554  0.00  0.00    -0.000 A 
ATOM     31  C   UNL     1      -5.052   3.687  25.265  0.00  0.00    +0.003 A 
ATOM     32  C   UNL     1      -4.504   3.971  25.811  0.00  0.00    +0.037 A 
BRANCH   3   2
ATOM      1  C   UNL     1      -3.397   4.441  26.946  0.00  0.00    +0.252 C 
ATOM      2  O   UNL     1      -3.148   4.209  26.194  0.00  0.00    -0.472 OA
ENDBRANCH   3   2
ENDBRANCH   5   4
ENDBRANCH   6   5
ENDBRANCH   9   7
BRANCH  16  17
ATOM     17  C   UNL     1      -0.110  -0.080  23.988  0.00  0.00    +0.145 C 
BRANCH  17  18
ATOM     18  N   UNL     1      -0.486  -0.735  24.321  0.00  0.00    -0.229 N 
ATOM     19  C   UNL     1      -1.266  -0.966  24.185  0.00  0.00    +0.119 A 
ATOM     20  C   UNL     1      -1.410  -1.648  24.628  0.00  0.00    +0.141 A 
ATOM     21  N   UNL     1      -0.718  -1.836  25.037  0.00  0.00    -0.127 NA
ATOM     22  N   UNL     1      -0.148  -1.273  24.847  0.00  0.00    -0.064 NA
BRANCH  20  23
ATOM     23  C   UNL     1      -2.120  -2.066  24.657  0.00  0.00    +0.102 A 
ATOM     24  N   UNL     1      -2.202  -2.769  24.232  0.00  0.00    -0.242 NA
ATOM     25  C   UNL     1      -2.912  -3.188  24.261  0.00  0.00    +0.099 A 
ATOM     26  C   UNL     1      -3.540  -2.903  24.714  0.00  0.00    +0.021 A 
ATOM     27  C   UNL     1      -3.458  -2.201  25.138  0.00  0.00    +0.003 A 
ATOM     28  C   UNL     1      -2.748  -1.783  25.110  0.00  0.00    +0.021 A 
ENDBRANCH  20  23
ENDBRANCH  17  18
ENDBRANCH  16  17
TORSDOF 7
ENDMDL
MODEL 6
REMARK VINA RESULT:     -10.1      1.885      3.503
REMARK  Name = 
REMARK  7 active torsions:
REMARK  status: ('A' for Active; 'I' for Inactive)
REMARK    1  A    between atoms: O_2  and  C_3
REMARK    2  A    between atoms: C_4  and  C_5
REMARK    3  A    between atoms: C_5  and  N_6
REMARK    4  A    between atoms: C_7  and  C_9
REMARK    5  A    between atoms: C_16  and  C_17
REMARK    6  A    between atoms: C_17  and  N_18
REMARK    7  A    between atoms: C_20  and  C_23
REMARK                            x       y       z     vdW  Elec       q    Type
REMARK                         _______ _______ _______ _____ _____    ______ ____
ROOT
ATOM      9  C   UNL     1      -0.615   0.627  25.054  0.00  0.00    +0.094 C 
ATOM     10  C   UNL     1      -0.885   0.883  25.738  0.00  0.00    +0.081 C 
ATOM     11  N   UNL     1      -0.531   1.343  25.150  0.00  0.00    -0.272 NA
ATOM     12  C   UNL     1      -0.282   0.699  24.361  0.00  0.00    +0.072 C 
ATOM     13  C   UNL     1      -0.026   0.599  23.769  0.00  0.00    +0.018 C 
ATOM     14  C   UNL     1      -0.269   1.084  24.483  0.00  0.00    +0.013 C 
ATOM     15  C   UNL     1      -0.096   1.944  24.442  0.00  0.00    +0.019 C 
ATOM     16  C   UNL     1      -0.348   2.235  25.101  0.00  0.00    +0.082 C 
ENDROOT
BRANCH   9   7
ATOM      6  N   UNL     1      -1.415  -0.556  24.996  0.00  0.00    -0.200 NA
ATOM      7  C   UNL     1      -0.688  -0.181  24.898  0.00  0.00    +0.243 C 
ATOM      8  O   UNL     1      -0.032  -0.612  24.643  0.00  0.00    -0.273 OA
BRANCH   6   5
ATOM      5  C   UNL     1      -1.488  -1.362  24.840  0.00  0.00    +0.144 C 
BRANCH   5   4
ATOM      3  C   UNL     1      -2.371  -2.428  24.485  0.00  0.00    +0.136 A 
ATOM      4  C   UNL     1      -2.224  -1.730  24.899  0.00  0.00    +0.033 A 
ATOM     29  C   UNL     1      -2.813  -1.399  25.373  0.00  0.00    +0.000 A 
ATOM     30  C   UNL     1      -3.550  -1.767  25.433  0.00  0.00    -0.000 A 
ATOM     31  C   UNL     1      -3.697  -2.465  25.018  0.00  0.00    +0.003 A 
ATOM     32  C   UNL     1      -3.108  -2.795  24.545  0.00  0.00    +0.037 A 
BRANCH   3   2
ATOM      1  C   UNL     1      -1.940  -3.441  23.574  0.00  0.00    +0.252 C 
ATOM      2  O   UNL     1      -1.783  -2.759  24.011  0.00  0.00    -0.472 OA
ENDBRANCH   3   2
ENDBRANCH   5   4
ENDBRANCH   6   5
ENDBRANCH   9   7
BRANCH  16  17
ATOM     17  C   UNL     1      -0.416   2.942  25.521  0.00  0.00    +0.145 C 
BRANCH  17  18
ATOM     18  N   UNL     1      -1.070   3.430  25.405  0.00  0.00    -0.229 N 
ATOM     19  C   UNL     1      -1.861   3.209  25.492  0.00  0.00    +0.119 A 
ATOM     20  C   UNL     1      -2.329   3.868  25.323  0.00  0.00    +0.141 A 
ATOM     21  N   UNL     1      -1.826   4.495  25.132  0.00  0.00    -0.127 NA
ATOM     22  N   UNL     1      -1.050   4.224  25.183  0.00  0.00    -0.064 NA
BRANCH  20  23
ATOM     23  C   UNL     1      -3.153   3.895  25.342  0.00  0.00    +0.102 A 
ATOM     24  N   UNL     1      -3.548   3.950  26.065  0.00  0.00    -0.242 NA
ATOM     25  C   UNL     1      -4.372   3.977  26.083  0.00  0.00    +0.099 A 
ATOM     26  C   UNL     1      -4.801   3.949  25.379  0.00  0.00    +0.021 A 
ATOM     27  C   UNL     1      -4.407   3.894  24.657  0.00  0.00    +0.003 A 
ATOM     28  C   UNL     1      -3.582   3.867  24.639  0.00  0.00    +0.021 A 
ENDBRANCH  20  23
ENDBRANCH  17  18
ENDBRANCH  16  17
TORSDOF 7
ENDMDL
MODEL 7
REMARK VINA RESULT:      -9.9      2.317      4.305
REMARK  Name = 
REMARK  7 active torsions:
REMARK  status: ('A' for Active; 'I' for Inactive)
REMARK    1  A    between atoms: O_2  and  C_3
REMARK    2  A    between atoms: C_4  and  C_5
REMARK    3  A    between atoms: C_5  and  N_6
REMARK    4  A    between atoms: C_7  and  C_9
REMARK    5  A    between atoms: C_16  and  C_17
REMARK    6  A    between atoms: C_17  and  N_18
REMARK    7  A    between atoms: C_20  and  C_23
REMARK                            x       y       z     vdW  Elec       q    Type
REMARK                         _______ _______ _______ _____ _____    ______ ____
ROOT
ATOM      9  C   UNL     1      -0.966   2.766  25.374  0.00  0.00    +0.094 C 
ATOM     10  C   UNL     1      -1.433   2.517  25.944  0.00  0.00    +0.081 C 
ATOM     11  N   UNL     1      -1.485   3.242  25.554  0.00  0.00    -0.272 NA
ATOM     12  C   UNL     1      -0.713   3.268  24.845  0.00  0.00    +0.072 C 
ATOM     13  C   UNL     1      -0.390   3.576  24.369  0.00  0.00    +0.018 C 
ATOM     14  C   UNL     1      -1.023   3.479  24.996  0.00  0.00    +0.013 C 
ATOM     15  C   UNL     1      -1.579   4.152  25.090  0.00  0.00    +0.019 C 
ATOM     16  C   UNL     1      -2.059   3.945  25.646  0.00  0.00    +0.082 C 
ENDROOT
BRANCH   9   7
ATOM      6  N   UNL     1      -0.537   1.496  24.879  0.00  0.00    -0.200 NA
ATOM      7  C   UNL     1      -0.359   2.259  25.135  0.00  0.00    +0.243 C 
ATOM      8  O   UNL     1       0.424   2.518  25.151  0.00  0.00    -0.273 OA
BRANCH   6   5
ATOM      5  C   UNL     1       0.069   0.991  24.639  0.00  0.00    +0.144 C 
BRANCH   5   4
ATOM      3  C   UNL     1       0.237  -0.161  23.809  0.00  0.00    +0.136 A 
ATOM      4  C   UNL     1      -0.094   0.199  24.473  0.00  0.00    +0.033 A 
ATOM     29  C   UNL     1      -0.590  -0.233  24.972  0.00  0.00    +0.000 A 
ATOM     30  C   UNL     1      -0.754  -1.024  24.807  0.00  0.00    -0.000 A 
ATOM     31  C   UNL     1      -0.422  -1.384  24.142  0.00  0.00    +0.003 A 
ATOM     32  C   UNL     1       0.072  -0.952  23.644  0.00  0.00    +0.037 A 
BRANCH   3   2
ATOM      1  C   UNL     1       1.183  -0.118  22.739  0.00  0.00    +0.252 C 
ATOM      2  O   UNL     1       0.732   0.270  23.310  0.00  0.00    -0.472 OA
ENDBRANCH   3   2
ENDBRANCH   5   4
ENDBRANCH   6   5
ENDBRANCH   9   7
BRANCH  16  17
ATOM     17  C   UNL     1      -2.713   4.205  26.076  0.00  0.00    +0.145 C 
BRANCH  17  18
ATOM     18  N   UNL     1      -3.476   4.043  25.808  0.00  0.00    -0.229 N 
ATOM     19  C   UNL     1      -3.895   3.343  25.934  0.00  0.00    +0.119 A 
ATOM     20  C   UNL     1      -4.632   3.420  25.570  0.00  0.00    +0.141 A 
ATOM     21  N   UNL     1      -4.666   4.166  25.219  0.00  0.00    -0.127 NA
ATOM     22  N   UNL     1      -3.952   4.550  25.366  0.00  0.00    -0.064 NA
BRANCH  20  23
ATOM     23  C   UNL     1      -5.228   2.850  25.559  0.00  0.00    +0.102 A 
ATOM     24  N   UNL     1      -5.732   2.766  26.208  0.00  0.00    -0.242 NA
ATOM     25  C   UNL     1      -6.328   2.197  26.197  0.00  0.00    +0.099 A 
ATOM     26  C   UNL     1      -6.421   1.711  25.536  0.00  0.00    +0.021 A 
ATOM     27  C   UNL     1      -5.919   1.794  24.888  0.00  0.00    +0.003 A 
ATOM     28  C   UNL     1      -5.322   2.364  24.899  0.00  0.00    +0.021 A 
ENDBRANCH  20  23
ENDBRANCH  17  18
ENDBRANCH  16  17
TORSDOF 7
ENDMDL
MODEL 8
REMARK VINA RESULT:      -9.7      1.582      5.433
REMARK  Name = 
REMARK  7 active torsions:
REMARK  status: ('A' for Active; 'I' for Inactive)
REMARK    1  A    between atoms: O_2  and  C_3
REMARK    2  A    between atoms: C_4  and  C_5
REMARK    3  A    between atoms: C_5  and  N_6
REMARK    4  A    between atoms: C_7  and  C_9
REMARK    5  A    between atoms: C_16  and  C_17
REMARK    6  A    between atoms: C_17  and  N_18
REMARK    7  A    between atoms: C_20  and  C_23
REMARK                            x       y       z     vdW  Elec       q    Type
REMARK                         _______ _______ _______ _____ _____    ______ ____
ROOT
ATOM      9  C   UNL     1      -4.087   2.493  24.737  0.00  0.00    +0.094 C 
ATOM     10  C   UNL     1      -3.764   2.001  24.227  0.00  0.00    +0.081 C 
ATOM     11  N   UNL     1      -4.401   1.838  24.726  0.00  0.00    -0.272 NA
ATOM     12  C   UNL     1      -4.589   2.705  25.284  0.00  0.00    +0.072 C 
ATOM     13  C   UNL     1      -4.933   3.026  25.737  0.00  0.00    +0.018 C 
ATOM     14  C   UNL     1      -4.712   2.325  25.223  0.00  0.00    +0.013 C 
ATOM     15  C   UNL     1      -5.194   1.599  25.332  0.00  0.00    +0.019 C 
ATOM     16  C   UNL     1      -4.906   1.087  24.844  0.00  0.00    +0.082 C 
ENDROOT
BRANCH   9   7
ATOM      6  N   UNL     1      -2.955   3.348  24.912  0.00  0.00    -0.200 NA
ATOM      7  C   UNL     1      -3.764   3.252  24.787  0.00  0.00    +0.243 C 
ATOM      8  O   UNL     1      -4.252   3.913  24.710  0.00  0.00    -0.273 OA
BRANCH   6   5
ATOM      5  C   UNL     1      -2.633   4.105  24.962  0.00  0.00    +0.144 C 
BRANCH   5   4
ATOM      3  C   UNL     1      -1.490   4.964  24.991  0.00  0.00    +0.136 A 
ATOM      4  C   UNL     1      -1.814   4.205  24.992  0.00  0.00    +0.033 A 
ATOM     29  C   UNL     1      -1.320   3.545  25.023  0.00  0.00    +0.000 A 
ATOM     30  C   UNL     1      -0.501   3.644  25.053  0.00  0.00    -0.000 A 
ATOM     31  C   UNL     1      -0.177   4.404  25.052  0.00  0.00    +0.003 A 
ATOM     32  C   UNL     1      -0.672   5.062  25.021  0.00  0.00    +0.037 A 
BRANCH   3   2
ATOM      1  C   UNL     1      -1.660   6.381  24.929  0.00  0.00    +0.252 C 
ATOM      2  O   UNL     1      -1.984   5.623  24.960  0.00  0.00    -0.472 OA
ENDBRANCH   3   2
ENDBRANCH   5   4
ENDBRANCH   6   5
ENDBRANCH   9   7
BRANCH  16  17
ATOM     17  C   UNL     1      -4.999   0.312  24.580  0.00  0.00    +0.145 C 
BRANCH  17  18
ATOM     18  N   UNL     1      -4.509  -0.285  24.871  0.00  0.00    -0.229 N 
ATOM     19  C   UNL     1      -4.003  -0.758  24.422  0.00  0.00    +0.119 A 
ATOM     20  C   UNL     1      -3.620  -1.279  24.936  0.00  0.00    +0.141 A 
ATOM     21  N   UNL     1      -3.891  -1.127  25.700  0.00  0.00    -0.127 NA
ATOM     22  N   UNL     1      -4.440  -0.514  25.660  0.00  0.00    -0.064 NA
BRANCH  20  23
ATOM     23  C   UNL     1      -3.065  -1.850  24.722  0.00  0.00    +0.102 A 
ATOM     24  N   UNL     1      -2.260  -1.673  24.745  0.00  0.00    -0.242 NA
ATOM     25  C   UNL     1      -1.705  -2.244  24.531  0.00  0.00    +0.099 A 
ATOM     26  C   UNL     1      -1.956  -2.993  24.293  0.00  0.00    +0.021 A 
ATOM     27  C   UNL     1      -2.760  -3.171  24.269  0.00  0.00    +0.003 A 
ATOM     28  C   UNL     1      -3.315  -2.599  24.483  0.00  0.00    +0.021 A 
ENDBRANCH  20  23
ENDBRANCH  17  18
ENDBRANCH  16  17
TORSDOF 7
ENDMDL
MODEL 9
REMARK VINA RESULT:      -9.7      4.030      5.802
REMARK  Name = 
REMARK  7 active torsions:
REMARK  status: ('A' for Active; 'I' for Inactive)
REMARK    1  A    between atoms: O_2  and  C_3
REMARK    2  A    between atoms: C_4  and  C_5
REMARK    3  A    between atoms: C_5  and  N_6
REMARK    4  A    between atoms: C_7  and  C_9
REMARK    5  A    between atoms: C_16  and  C_17
REMARK    6  A    between atoms: C_17  and  N_18
REMARK    7  A    between atoms: C_20  and  C_23
REMARK                            x       y       z     vdW  Elec       q    Type
REMARK                         _______ _______ _______ _____ _____    ______ ____
ROOT
ATOM      9  C   UNL     1       0.411   0.651  23.582  0.00  0.00    +0.094 C 
ATOM     10  C   UNL     1       0.508   1.421  23.521  0.00  0.00    +0.081 C 
ATOM     11  N   UNL     1      -0.131   1.037  23.874  0.00  0.00    -0.272 NA
ATOM     12  C   UNL     1       0.041   0.006  23.790  0.00  0.00    +0.072 C 
ATOM     13  C   UNL     1      -0.143  -0.611  23.896  0.00  0.00    +0.018 C 
ATOM     14  C   UNL     1      -0.220   0.282  23.929  0.00  0.00    +0.013 C 
ATOM     15  C   UNL     1      -0.941   0.593  24.320  0.00  0.00    +0.019 C 
ATOM     16  C   UNL     1      -0.884   1.353  24.281  0.00  0.00    +0.082 C 
ENDROOT
BRANCH   9   7
ATOM      6  N   UNL     1       1.786   0.423  23.266  0.00  0.00    -0.200 NA
ATOM      7  C   UNL     1       1.002   0.169  23.264  0.00  0.00    +0.243 C 
ATOM      8  O   UNL     1       0.807  -0.566  22.944  0.00  0.00    -0.273 OA
BRANCH   6   5
ATOM      5  C   UNL     1       2.376  -0.058  22.949  0.00  0.00    +0.144 C 
BRANCH   5   4
ATOM      3  C   UNL     1       3.762  -0.304  23.197  0.00  0.00    +0.136 A 
ATOM      4  C   UNL     1       3.160   0.200  22.942  0.00  0.00    +0.033 A 
ATOM     29  C   UNL     1       3.342   0.961  22.681  0.00  0.00    +0.000 A 
ATOM     30  C   UNL     1       4.126   1.219  22.674  0.00  0.00    -0.000 A 
ATOM     31  C   UNL     1       4.728   0.715  22.929  0.00  0.00    +0.003 A 
ATOM     32  C   UNL     1       4.546  -0.045  23.190  0.00  0.00    +0.037 A 
BRANCH   3   2
ATOM      1  C   UNL     1       4.164  -1.530  23.810  0.00  0.00    +0.252 C 
ATOM      2  O   UNL     1       3.581  -1.065  23.458  0.00  0.00    -0.472 OA
ENDBRANCH   3   2
ENDBRANCH   5   4
ENDBRANCH   6   5
ENDBRANCH   9   7
BRANCH  16  17
ATOM     17  C   UNL     1      -1.274   2.050  24.487  0.00  0.00    +0.145 C 
BRANCH  17  18
ATOM     18  N   UNL     1      -2.077   2.138  24.323  0.00  0.00    -0.229 N 
ATOM     19  C   UNL     1      -2.693   2.077  24.869  0.00  0.00    +0.119 A 
ATOM     20  C   UNL     1      -3.403   2.204  24.466  0.00  0.00    +0.141 A 
ATOM     21  N   UNL     1      -3.224   2.342  23.673  0.00  0.00    -0.127 NA
ATOM     22  N   UNL     1      -2.406   2.301  23.584  0.00  0.00    -0.064 NA
BRANCH  20  23
ATOM     23  C   UNL     1      -4.157   2.194  24.800  0.00  0.00    +0.102 A 
ATOM     24  N   UNL     1      -4.435   2.852  25.213  0.00  0.00    -0.242 NA
ATOM     25  C   UNL     1      -5.189   2.842  25.547  0.00  0.00    +0.099 A 
ATOM     26  C   UNL     1      -5.666   2.173  25.467  0.00  0.00    +0.021 A 
ATOM     27  C   UNL     1      -5.389   1.515  25.054  0.00  0.00    +0.003 A 
ATOM     28  C   UNL     1      -4.634   1.526  24.720  0.00  0.00    +0.021 A 
ENDBRANCH  20  23
ENDBRANCH  17  18
ENDBRANCH  16  17
TORSDOF 7
ENDMDL
