MODEL 1
REMARK VINA RESULT:      -9.0      0.000      0.000
REMARK  Name = 
REMARK  8 active torsions:
REMARK  status: ('A' for Active; 'I' for Inactive)
REMARK    1  A    between atoms: O_2  and  C_3
REMARK    2  A    between atoms: C_3  and  C_4
REMARK    3  A    between atoms: C_4  and  N_5
REMARK    4  A    between atoms: N_5  and  C_6
REMARK    5  A    between atoms: C_9  and  C_12
REMARK    6  A    between atoms: C_15  and  C_17
REMARK    7  A    between atoms: N_21  and  C_22
REMARK    8  A    between atoms: C_22  and  C_23
REMARK                            x       y       z     vdW  Elec       q    Type
REMARK                         _______ _______ _______ _____ _____    ______ ____
ROOT
ATOM     12  C   UNL     1      -1.067   0.054  24.485  0.00  0.00    +0.205 A 
ATOM     13  N   UNL     1      -1.110  -0.042  25.303  0.00  0.00    -0.056 NA
ATOM     14  O   UNL     1      -1.906  -0.023  25.521  0.00  0.00    -0.336 OA
ATOM     15  C   UNL     1      -2.355   0.084  24.836  0.00  0.00    +0.251 A 
ATOM     16  N   UNL     1      -1.836   0.132  24.196  0.00  0.00    -0.190 NA
ENDROOT
BRANCH  12   9
ATOM      6  C   UNL     1       1.006   0.098  23.133  0.00  0.00    +0.148 A 
ATOM      7  C   UNL     1       0.631   0.805  23.338  0.00  0.00    +0.036 A 
ATOM      8  C   UNL     1      -0.060   0.790  23.789  0.00  0.00    +0.008 A 
ATOM      9  C   UNL     1      -0.376   0.068  24.034  0.00  0.00    +0.058 A 
ATOM     10  C   UNL     1      -0.002  -0.637  23.830  0.00  0.00    +0.103 A 
ATOM     11  N   UNL     1       0.689  -0.623  23.379  0.00  0.00    -0.228 NA
BRANCH   6   5
ATOM      5  N   UNL     1       1.697   0.113  22.683  0.00  0.00    -0.218 NA
BRANCH   5   4
ATOM      4  C   UNL     1       2.383   0.449  22.992  0.00  0.00    +0.146 C 
BRANCH   4   3
ATOM      3  C   UNL     1       3.099   0.367  22.591  0.00  0.00    +0.166 C 
BRANCH   3   2
ATOM      1  C   UNL     1       4.492   0.484  22.894  0.00  0.00    +0.174 C 
ATOM      2  O   UNL     1       3.748   0.830  22.805  0.00  0.00    -0.349 OA
ENDBRANCH   3   2
ENDBRANCH   4   3
ENDBRANCH   5   4
ENDBRANCH   6   5
ENDBRANCH  12   9
BRANCH  15  17
ATOM     17  C   UNL     1      -3.177   0.136  24.798  0.00  0.00    +0.138 C 
ATOM     18  C   UNL     1      -3.697  -0.494  24.677  0.00  0.00    +0.027 C 
ATOM     19  C   UNL     1      -4.466  -0.193  24.679  0.00  0.00    +0.019 C 
ATOM     20  C   UNL     1      -4.421   0.621  24.801  0.00  0.00    +0.073 C 
ATOM     21  N   UNL     1      -3.624   0.824  24.875  0.00  0.00    -0.266 NA
BRANCH  21  22
ATOM     22  C   UNL     1      -3.328   1.583  25.003  0.00  0.00    +0.072 C 
BRANCH  22  23
ATOM     23  C   UNL     1      -3.816   2.240  24.901  0.00  0.00    +0.016 C 
ATOM     24  C   UNL     1      -3.843   2.624  24.170  0.00  0.00    +0.001 C 
ATOM     25  C   UNL     1      -4.332   3.280  24.068  0.00  0.00    +0.000 C 
ATOM     26  C   UNL     1      -4.793   3.554  24.694  0.00  0.00    +0.000 C 
ATOM     27  C   UNL     1      -4.767   3.170  25.424  0.00  0.00    +0.000 C 
ATOM     28  C   UNL     1      -4.278   2.513  25.527  0.00  0.00    +0.001 C 
ENDBRANCH  22  23
ENDBRANCH  21  22
ENDBRANCH  15  17
TORSDOF 8
ENDMDL
MODEL 2
REMARK VINA RESULT:      -8.3      2.428      3.855
REMARK  Name = 
REMARK  8 active torsions:
REMARK  status: ('A' for Active; 'I' for Inactive)
REMARK    1  A    between atoms: O_2  and  C_3
REMARK    2  A    between atoms: C_3  and  C_4
REMARK    3  A    between atoms: C_4  and  N_5
REMARK    4  A    between atoms: N_5  and  C_6
REMARK    5  A    between atoms: C_9  and  C_12
REMARK    6  A    between atoms: C_15  and  C_17
REMARK    7  A    between atoms: N_21  and  C_22
REMARK    8  A    between atoms: C_22  and  C_23
REMARK                            x       y       z     vdW  Elec       q    Type
REMARK                         _______ _______ _______ _____ _____    ______ ____
ROOT
ATOM     12  C   UNL     1      -0.590   1.681  25.350  0.00  0.00    +0.205 A 
ATOM     13  N   UNL     1       0.046   2.015  25.756  0.00  0.00    -0.056 NA
ATOM     14  O   UNL     1      -0.067   2.832  25.779  0.00  0.00    -0.336 OA
ATOM     15  C   UNL     1      -0.773   3.003  25.387  0.00  0.00    +0.251 A 
ATOM     16  N   UNL     1      -1.096   2.291  25.123  0.00  0.00    -0.190 NA
ENDROOT
BRANCH  12   9
ATOM      6  C   UNL     1      -0.921  -0.730  24.897  0.00  0.00    +0.148 A 
ATOM      7  C   UNL     1      -1.150  -0.411  25.624  0.00  0.00    +0.036 A 
ATOM      8  C   UNL     1      -1.040   0.393  25.775  0.00  0.00    +0.008 A 
ATOM      9  C   UNL     1      -0.700   0.877  25.199  0.00  0.00    +0.058 A 
ATOM     10  C   UNL     1      -0.471   0.559  24.474  0.00  0.00    +0.103 A 
ATOM     11  N   UNL     1      -0.582  -0.244  24.323  0.00  0.00    -0.228 NA
BRANCH   6   5
ATOM      5  N   UNL     1      -1.031  -1.533  24.746  0.00  0.00    -0.218 NA
BRANCH   5   4
ATOM      4  C   UNL     1      -1.735  -1.796  24.408  0.00  0.00    +0.146 C 
BRANCH   4   3
ATOM      3  C   UNL     1      -1.975  -2.579  24.510  0.00  0.00    +0.166 C 
BRANCH   3   2
ATOM      1  C   UNL     1      -3.322  -3.058  24.521  0.00  0.00    +0.174 C 
ATOM      2  O   UNL     1      -2.636  -2.865  24.106  0.00  0.00    -0.349 OA
ENDBRANCH   3   2
ENDBRANCH   4   3
ENDBRANCH   5   4
ENDBRANCH   6   5
ENDBRANCH  12   9
BRANCH  15  17
ATOM     17  C   UNL     1      -1.099   3.753  25.279  0.00  0.00    +0.138 C 
ATOM     18  C   UNL     1      -0.703   4.416  24.987  0.00  0.00    +0.027 C 
ATOM     19  C   UNL     1      -1.238   5.045  24.972  0.00  0.00    +0.019 C 
ATOM     20  C   UNL     1      -1.962   4.771  25.254  0.00  0.00    +0.073 C 
ATOM     21  N   UNL     1      -1.877   3.972  25.444  0.00  0.00    -0.266 NA
BRANCH  21  22
ATOM     22  C   UNL     1      -2.466   3.480  25.746  0.00  0.00    +0.072 C 
BRANCH  22  23
ATOM     23  C   UNL     1      -3.259   3.639  25.586  0.00  0.00    +0.016 C 
ATOM     24  C   UNL     1      -3.581   3.435  24.853  0.00  0.00    +0.001 C 
ATOM     25  C   UNL     1      -4.374   3.594  24.693  0.00  0.00    +0.000 C 
ATOM     26  C   UNL     1      -4.845   3.957  25.264  0.00  0.00    +0.000 C 
ATOM     27  C   UNL     1      -4.524   4.162  25.996  0.00  0.00    +0.000 C 
ATOM     28  C   UNL     1      -3.730   4.002  26.156  0.00  0.00    +0.001 C 
ENDBRANCH  22  23
ENDBRANCH  21  22
ENDBRANCH  15  17
TORSDOF 8
ENDMDL
MODEL 3
REMARK VINA RESULT:      -8.3      1.519      2.772
REMARK  Name = 
REMARK  8 active torsions:
REMARK  status: ('A' for Active; 'I' for Inactive)
REMARK    1  A    between atoms: O_2  and  C_3
REMARK    2  A    between atoms: C_3  and  C_4
REMARK    3  A    between atoms: C_4  and  N_5
REMARK    4  A    between atoms: N_5  and  C_6
REMARK    5  A    between atoms: C_9  and  C_12
REMARK    6  A    between atoms: C_15  and  C_17
REMARK    7  A    between atoms: N_21  and  C_22
REMARK    8  A    between atoms: C_22  and  C_23
REMARK                            x       y       z     vdW  Elec       q    Type
REMARK                         _______ _______ _______ _____ _____    ______ ____
ROOT
ATOM     12  C   UNL     1      -0.089   0.932  23.971  0.00  0.00    +0.205 A 
ATOM     13  N   UNL     1      -0.234   1.336  24.676  0.00  0.00    -0.056 NA
ATOM     14  O   UNL     1      -1.049   1.330  24.810  0.00  0.00    -0.336 OA
ATOM     15  C   UNL     1      -1.406   0.922  24.189  0.00  0.00    +0.251 A 
ATOM     16  N   UNL     1      -0.813   0.676  23.670  0.00  0.00    -0.190 NA
ENDROOT
BRANCH  12   9
ATOM      6  C   UNL     1       2.130   0.555  22.942  0.00  0.00    +0.148 A 
ATOM      7  C   UNL     1       1.525   0.005  22.831  0.00  0.00    +0.036 A 
ATOM      8  C   UNL     1       0.785   0.130  23.174  0.00  0.00    +0.008 A 
ATOM      9  C   UNL     1       0.651   0.806  23.628  0.00  0.00    +0.058 A 
ATOM     10  C   UNL     1       1.255   1.356  23.739  0.00  0.00    +0.103 A 
ATOM     11  N   UNL     1       1.995   1.230  23.396  0.00  0.00    -0.228 NA
BRANCH   6   5
ATOM      5  N   UNL     1       2.870   0.429  22.599  0.00  0.00    -0.218 NA
BRANCH   5   4
ATOM      4  C   UNL     1       3.555   0.570  23.035  0.00  0.00    +0.146 C 
BRANCH   4   3
ATOM      3  C   UNL     1       4.292   0.367  22.723  0.00  0.00    +0.166 C 
BRANCH   3   2
ATOM      1  C   UNL     1       5.454   0.001  23.470  0.00  0.00    +0.174 C 
ATOM      2  O   UNL     1       4.982   0.581  23.121  0.00  0.00    -0.349 OA
ENDBRANCH   3   2
ENDBRANCH   4   3
ENDBRANCH   5   4
ENDBRANCH   6   5
ENDBRANCH  12   9
BRANCH  15  17
ATOM     17  C   UNL     1      -2.214   0.783  24.101  0.00  0.00    +0.138 C 
ATOM     18  C   UNL     1      -2.749   1.271  23.704  0.00  0.00    +0.027 C 
ATOM     19  C   UNL     1      -3.496   0.922  23.752  0.00  0.00    +0.019 C 
ATOM     20  C   UNL     1      -3.422   0.220  24.178  0.00  0.00    +0.073 C 
ATOM     21  N   UNL     1      -2.630   0.134  24.393  0.00  0.00    -0.266 NA
BRANCH  21  22
ATOM     22  C   UNL     1      -2.311  -0.492  24.825  0.00  0.00    +0.072 C 
BRANCH  22  23
ATOM     23  C   UNL     1      -2.728  -1.200  24.896  0.00  0.00    +0.016 C 
ATOM     24  C   UNL     1      -3.231  -1.320  25.539  0.00  0.00    +0.001 C 
ATOM     25  C   UNL     1      -3.648  -2.027  25.610  0.00  0.00    +0.000 C 
ATOM     26  C   UNL     1      -3.562  -2.616  25.039  0.00  0.00    +0.000 C 
ATOM     27  C   UNL     1      -3.059  -2.497  24.396  0.00  0.00    +0.000 C 
ATOM     28  C   UNL     1      -2.642  -1.788  24.325  0.00  0.00    +0.001 C 
ENDBRANCH  22  23
ENDBRANCH  21  22
ENDBRANCH  15  17
TORSDOF 8
ENDMDL
MODEL 4
REMARK VINA RESULT:      -8.2      2.803      3.966
REMARK  Name = 
REMARK  8 active torsions:
REMARK  status: ('A' for Active; 'I' for Inactive)
REMARK    1  A    between atoms: O_2  and  C_3
REMARK    2  A    between atoms: C_3  and  C_4
REMARK    3  A    between atoms: C_4  and  N_5
REMARK    4  A    between atoms: N_5  and  C_6
REMARK    5  A    between atoms: C_9  and  C_12
REMARK    6  A    between atoms: C_15  and  C_17
REMARK    7  A    between atoms: N_21  and  C_22
REMARK    8  A    between atoms: C_22  and  C_23
REMARK                            x       y       z     vdW  Elec       q    Type
REMARK                         _______ _______ _______ _____ _____    ______ ____
ROOT
ATOM     12  C   UNL     1      -1.978   1.949  24.954  0.00  0.00    +0.205 A 
ATOM     13  N   UNL     1      -2.120   2.146  24.165  0.00  0.00    -0.056 NA
ATOM     14  O   UNL     1      -2.858   1.842  23.956  0.00  0.00    -0.336 OA
ATOM     15  C   UNL     1      -3.172   1.458  24.616  0.00  0.00    +0.251 A 
ATOM     16  N   UNL     1      -2.628   1.525  25.232  0.00  0.00    -0.190 NA
ENDROOT
BRANCH  12   9
ATOM      6  C   UNL     1       0.045   2.533  26.256  0.00  0.00    +0.148 A 
ATOM      7  C   UNL     1      -0.589   3.061  26.219  0.00  0.00    +0.036 A 
ATOM      8  C   UNL     1      -1.263   2.866  25.785  0.00  0.00    +0.008 A 
ATOM      9  C   UNL     1      -1.304   2.144  25.388  0.00  0.00    +0.058 A 
ATOM     10  C   UNL     1      -0.671   1.617  25.425  0.00  0.00    +0.103 A 
ATOM     11  N   UNL     1       0.003   1.811  25.859  0.00  0.00    -0.228 NA
BRANCH   6   5
ATOM      5  N   UNL     1       0.719   2.728  26.690  0.00  0.00    -0.218 NA
BRANCH   5   4
ATOM      4  C   UNL     1       0.755   2.554  27.495  0.00  0.00    +0.146 C 
BRANCH   4   3
ATOM      3  C   UNL     1       1.447   2.704  27.919  0.00  0.00    +0.166 C 
BRANCH   3   2
ATOM      1  C   UNL     1       2.176   2.645  29.147  0.00  0.00    +0.174 C 
ATOM      2  O   UNL     1       1.462   2.595  28.737  0.00  0.00    -0.349 OA
ENDBRANCH   3   2
ENDBRANCH   4   3
ENDBRANCH   5   4
ENDBRANCH   6   5
ENDBRANCH  12   9
BRANCH  15  17
ATOM     17  C   UNL     1      -3.902   1.075  24.653  0.00  0.00    +0.138 C 
ATOM     18  C   UNL     1      -4.619   1.419  24.873  0.00  0.00    +0.027 C 
ATOM     19  C   UNL     1      -5.203   0.837  24.832  0.00  0.00    +0.019 C 
ATOM     20  C   UNL     1      -4.847   0.135  24.586  0.00  0.00    +0.073 C 
ATOM     21  N   UNL     1      -4.043   0.282  24.475  0.00  0.00    -0.266 NA
BRANCH  21  22
ATOM     22  C   UNL     1      -3.479  -0.268  24.230  0.00  0.00    +0.072 C 
BRANCH  22  23
ATOM     23  C   UNL     1      -3.630  -1.075  24.304  0.00  0.00    +0.016 C 
ATOM     24  C   UNL     1      -3.360  -1.486  24.967  0.00  0.00    +0.001 C 
ATOM     25  C   UNL     1      -3.511  -2.293  25.042  0.00  0.00    +0.000 C 
ATOM     26  C   UNL     1      -3.932  -2.690  24.454  0.00  0.00    +0.000 C 
ATOM     27  C   UNL     1      -4.202  -2.280  23.791  0.00  0.00    +0.000 C 
ATOM     28  C   UNL     1      -4.051  -1.472  23.717  0.00  0.00    +0.001 C 
ENDBRANCH  22  23
ENDBRANCH  21  22
ENDBRANCH  15  17
TORSDOF 8
ENDMDL
MODEL 5
REMARK VINA RESULT:      -8.1      3.380      4.720
REMARK  Name = 
REMARK  8 active torsions:
REMARK  status: ('A' for Active; 'I' for Inactive)
REMARK    1  A    between atoms: O_2  and  C_3
REMARK    2  A    between atoms: C_3  and  C_4
REMARK    3  A    between atoms: C_4  and  N_5
REMARK    4  A    between atoms: N_5  and  C_6
REMARK    5  A    between atoms: C_9  and  C_12
REMARK    6  A    between atoms: C_15  and  C_17
REMARK    7  A    between atoms: N_21  and  C_22
REMARK    8  A    between atoms: C_22  and  C_23
REMARK                            x       y       z     vdW  Elec       q    Type
REMARK                         _______ _______ _______ _____ _____    ______ ____
ROOT
ATOM     12  C   UNL     1      -4.276   1.675  24.668  0.00  0.00    +0.205 A 
ATOM     13  N   UNL     1      -4.772   2.201  24.270  0.00  0.00    -0.056 NA
ATOM     14  O   UNL     1      -4.661   2.952  24.594  0.00  0.00    -0.336 OA
ATOM     15  C   UNL     1      -4.097   2.890  25.193  0.00  0.00    +0.251 A 
ATOM     16  N   UNL     1      -3.859   2.100  25.238  0.00  0.00    -0.190 NA
ENDROOT
BRANCH  12   9
ATOM      6  C   UNL     1      -4.078  -0.753  24.229  0.00  0.00    +0.148 A 
ATOM      7  C   UNL     1      -4.478  -0.486  24.901  0.00  0.00    +0.036 A 
ATOM      8  C   UNL     1      -4.544   0.323  25.047  0.00  0.00    +0.008 A 
ATOM      9  C   UNL     1      -4.210   0.866  24.522  0.00  0.00    +0.058 A 
ATOM     10  C   UNL     1      -3.811   0.600  23.852  0.00  0.00    +0.103 A 
ATOM     11  N   UNL     1      -3.745  -0.210  23.705  0.00  0.00    -0.228 NA
BRANCH   6   5
ATOM      5  N   UNL     1      -4.011  -1.562  24.083  0.00  0.00    -0.218 NA
BRANCH   5   4
ATOM      4  C   UNL     1      -3.492  -2.020  24.529  0.00  0.00    +0.146 C 
BRANCH   4   3
ATOM      3  C   UNL     1      -3.158  -2.701  24.204  0.00  0.00    +0.166 C 
BRANCH   3   2
ATOM      1  C   UNL     1      -1.757  -2.919  24.387  0.00  0.00    +0.174 C 
ATOM      2  O   UNL     1      -2.539  -3.084  24.593  0.00  0.00    -0.349 OA
ENDBRANCH   3   2
ENDBRANCH   4   3
ENDBRANCH   5   4
ENDBRANCH   6   5
ENDBRANCH  12   9
BRANCH  15  17
ATOM     17  C   UNL     1      -3.818   3.507  25.663  0.00  0.00    +0.138 C 
ATOM     18  C   UNL     1      -4.170   3.786  26.356  0.00  0.00    +0.027 C 
ATOM     19  C   UNL     1      -3.709   4.406  26.645  0.00  0.00    +0.019 C 
ATOM     20  C   UNL     1      -3.072   4.511  26.131  0.00  0.00    +0.073 C 
ATOM     21  N   UNL     1      -3.140   3.956  25.524  0.00  0.00    -0.266 NA
BRANCH  21  22
ATOM     22  C   UNL     1      -2.620   3.865  24.890  0.00  0.00    +0.072 C 
BRANCH  22  23
ATOM     23  C   UNL     1      -1.866   4.195  24.924  0.00  0.00    +0.016 C 
ATOM     24  C   UNL     1      -1.761   5.001  24.780  0.00  0.00    +0.001 C 
ATOM     25  C   UNL     1      -1.006   5.332  24.814  0.00  0.00    +0.000 C 
ATOM     26  C   UNL     1      -0.356   4.857  24.993  0.00  0.00    +0.000 C 
ATOM     27  C   UNL     1      -0.460   4.052  25.138  0.00  0.00    +0.000 C 
ATOM     28  C   UNL     1      -1.215   3.721  25.103  0.00  0.00    +0.001 C 
ENDBRANCH  22  23
ENDBRANCH  21  22
ENDBRANCH  15  17
TORSDOF 8
ENDMDL
MODEL 6
REMARK VINA RESULT:      -7.9      1.454      2.236
REMARK  Name = 
REMARK  8 active torsions:
REMARK  status: ('A' for Active; 'I' for Inactive)
REMARK    1  A    between atoms: O_2  and  C_3
REMARK    2  A    between atoms: C_3  and  C_4
REMARK    3  A    between atoms: C_4  and  N_5
REMARK    4  A    between atoms: N_5  and  C_6
REMARK    5  A    between atoms: C_9  and  C_12
REMARK    6  A    between atoms: C_15  and  C_17
REMARK    7  A    between atoms: N_21  and  C_22
REMARK    8  A    between atoms: C_22  and  C_23
REMARK                            x       y       z     vdW  Elec       q    Type
REMARK                         _______ _______ _______ _____ _____    ______ ____
ROOT
ATOM     12  C   UNL     1      -1.092   2.006  24.783  0.00  0.00    +0.205 A 
ATOM     13  N   UNL     1      -1.140   2.110  25.600  0.00  0.00    -0.056 NA
ATOM     14  O   UNL     1      -1.781   2.607  25.757  0.00  0.00    -0.336 OA
ATOM     15  C   UNL     1      -2.129   2.809  25.037  0.00  0.00    +0.251 A 
ATOM     16  N   UNL     1      -1.703   2.438  24.435  0.00  0.00    -0.190 NA
ENDROOT
BRANCH  12   9
ATOM      6  C   UNL     1       0.589   0.639  23.587  0.00  0.00    +0.148 A 
ATOM      7  C   UNL     1      -0.164   0.333  23.734  0.00  0.00    +0.036 A 
ATOM      8  C   UNL     1      -0.724   0.789  24.132  0.00  0.00    +0.008 A 
ATOM      9  C   UNL     1      -0.532   1.550  24.384  0.00  0.00    +0.058 A 
ATOM     10  C   UNL     1       0.220   1.856  24.238  0.00  0.00    +0.103 A 
ATOM     11  N   UNL     1       0.780   1.401  23.840  0.00  0.00    -0.228 NA
BRANCH   6   5
ATOM      5  N   UNL     1       1.149   0.183  23.189  0.00  0.00    -0.218 NA
BRANCH   5   4
ATOM      4  C   UNL     1       1.892   0.499  23.018  0.00  0.00    +0.146 C 
BRANCH   4   3
ATOM      3  C   UNL     1       2.462   0.033  22.646  0.00  0.00    +0.166 C 
BRANCH   3   2
ATOM      1  C   UNL     1       3.835   0.420  22.544  0.00  0.00    +0.174 C 
ATOM      2  O   UNL     1       3.075   0.390  22.223  0.00  0.00    -0.349 OA
ENDBRANCH   3   2
ENDBRANCH   4   3
ENDBRANCH   5   4
ENDBRANCH   6   5
ENDBRANCH  12   9
BRANCH  15  17
ATOM     17  C   UNL     1      -2.786   3.296  24.935  0.00  0.00    +0.138 C 
ATOM     18  C   UNL     1      -2.771   4.092  24.717  0.00  0.00    +0.027 C 
ATOM     19  C   UNL     1      -3.550   4.362  24.681  0.00  0.00    +0.019 C 
ATOM     20  C   UNL     1      -4.046   3.733  24.877  0.00  0.00    +0.073 C 
ATOM     21  N   UNL     1      -3.574   3.074  25.035  0.00  0.00    -0.266 NA
BRANCH  21  22
ATOM     22  C   UNL     1      -3.844   2.326  25.252  0.00  0.00    +0.072 C 
BRANCH  22  23
ATOM     23  C   UNL     1      -4.651   2.159  25.242  0.00  0.00    +0.016 C 
ATOM     24  C   UNL     1      -5.136   2.427  25.854  0.00  0.00    +0.001 C 
ATOM     25  C   UNL     1      -5.943   2.260  25.843  0.00  0.00    +0.000 C 
ATOM     26  C   UNL     1      -6.267   1.825  25.222  0.00  0.00    +0.000 C 
ATOM     27  C   UNL     1      -5.783   1.557  24.609  0.00  0.00    +0.000 C 
ATOM     28  C   UNL     1      -4.975   1.724  24.620  0.00  0.00    +0.001 C 
ENDBRANCH  22  23
ENDBRANCH  21  22
ENDBRANCH  15  17
TORSDOF 8
ENDMDL
MODEL 7
REMARK VINA RESULT:      -5.3     17.339     18.683
REMARK  Name = 
REMARK  8 active torsions:
REMARK  status: ('A' for Active; 'I' for Inactive)
REMARK    1  A    between atoms: O_2  and  C_3
REMARK    2  A    between atoms: C_3  and  C_4
REMARK    3  A    between atoms: C_4  and  N_5
REMARK    4  A    between atoms: N_5  and  C_6
REMARK    5  A    between atoms: C_9  and  C_12
REMARK    6  A    between atoms: C_15  and  C_17
REMARK    7  A    between atoms: N_21  and  C_22
REMARK    8  A    between atoms: C_22  and  C_23
REMARK                            x       y       z     vdW  Elec       q    Type
REMARK                         _______ _______ _______ _____ _____    ______ ____
ROOT
ATOM     12  C   UNL     1      -7.532  -8.915   9.695  0.00  0.00    +0.205 A 
ATOM     13  N   UNL     1      -7.424  -9.679   9.401  0.00  0.00    -0.056 NA
ATOM     14  O   UNL     1      -6.913 -10.079   9.912  0.00  0.00    -0.336 OA
ATOM     15  C   UNL     1      -6.707  -9.563  10.521  0.00  0.00    +0.251 A 
ATOM     16  N   UNL     1      -7.089  -8.844  10.387  0.00  0.00    -0.190 NA
ENDROOT
BRANCH  12   9
ATOM      6  C   UNL     1      -8.939  -7.151   8.678  0.00  0.00    +0.148 A 
ATOM      7  C   UNL     1      -8.134  -7.190   8.501  0.00  0.00    +0.036 A 
ATOM      8  C   UNL     1      -7.665  -7.778   8.840  0.00  0.00    +0.008 A 
ATOM      9  C   UNL     1      -8.001  -8.327   9.356  0.00  0.00    +0.058 A 
ATOM     10  C   UNL     1      -8.805  -8.289   9.533  0.00  0.00    +0.103 A 
ATOM     11  N   UNL     1      -9.274  -7.701   9.194  0.00  0.00    -0.228 NA
BRANCH   6   5
ATOM      5  N   UNL     1      -9.408  -6.563   8.339  0.00  0.00    -0.218 NA
BRANCH   5   4
ATOM      4  C   UNL     1      -9.773  -6.000   8.818  0.00  0.00    +0.146 C 
BRANCH   4   3
ATOM      3  C   UNL     1     -10.114  -5.329   8.480  0.00  0.00    +0.166 C 
BRANCH   3   2
ATOM      1  C   UNL     1     -10.598  -4.045   8.880  0.00  0.00    +0.174 C 
ATOM      2  O   UNL     1     -10.641  -4.868   8.917  0.00  0.00    -0.349 OA
ENDBRANCH   3   2
ENDBRANCH   4   3
ENDBRANCH   5   4
ENDBRANCH   6   5
ENDBRANCH  12   9
BRANCH  15  17
ATOM     17  C   UNL     1      -6.206  -9.734  11.154  0.00  0.00    +0.138 C 
ATOM     18  C   UNL     1      -6.436  -9.842  11.939  0.00  0.00    +0.027 C 
ATOM     19  C   UNL     1      -5.759 -10.003  12.383  0.00  0.00    +0.019 C 
ATOM     20  C   UNL     1      -5.112  -9.995  11.872  0.00  0.00    +0.073 C 
ATOM     21  N   UNL     1      -5.388  -9.829  11.113  0.00  0.00    -0.266 NA
BRANCH  21  22
ATOM     22  C   UNL     1      -4.926  -9.769  10.432  0.00  0.00    +0.072 C 
BRANCH  22  23
ATOM     23  C   UNL     1      -4.106  -9.702  10.494  0.00  0.00    +0.016 C 
ATOM     24  C   UNL     1      -3.741  -8.974  10.362  0.00  0.00    +0.001 C 
ATOM     25  C   UNL     1      -2.921  -8.907  10.424  0.00  0.00    +0.000 C 
ATOM     26  C   UNL     1      -2.466  -9.567  10.617  0.00  0.00    +0.000 C 
ATOM     27  C   UNL     1      -2.831 -10.295  10.749  0.00  0.00    +0.000 C 
ATOM     28  C   UNL     1      -3.652 -10.362  10.687  0.00  0.00    +0.001 C 
ENDBRANCH  22  23
ENDBRANCH  21  22
ENDBRANCH  15  17
TORSDOF 8
ENDMDL
MODEL 8
REMARK VINA RESULT:      -5.1     14.539     15.519
REMARK  Name = 
REMARK  8 active torsions:
REMARK  status: ('A' for Active; 'I' for Inactive)
REMARK    1  A    between atoms: O_2  and  C_3
REMARK    2  A    between atoms: C_3  and  C_4
REMARK    3  A    between atoms: C_4  and  N_5
REMARK    4  A    between atoms: N_5  and  C_6
REMARK    5  A    between atoms: C_9  and  C_12
REMARK    6  A    between atoms: C_15  and  C_17
REMARK    7  A    between atoms: N_21  and  C_22
REMARK    8  A    between atoms: C_22  and  C_23
REMARK                            x       y       z     vdW  Elec       q    Type
REMARK                         _______ _______ _______ _____ _____    ______ ____
ROOT
ATOM     12  C   UNL     1      -6.736 -10.108  14.331  0.00  0.00    +0.205 A 
ATOM     13  N   UNL     1      -7.196 -10.781  14.459  0.00  0.00    -0.056 NA
ATOM     14  O   UNL     1      -7.440 -10.778  15.247  0.00  0.00    -0.336 OA
ATOM     15  C   UNL     1      -7.131 -10.103  15.607  0.00  0.00    +0.251 A 
ATOM     16  N   UNL     1      -6.695  -9.689  15.041  0.00  0.00    -0.190 NA
ENDROOT
BRANCH  12   9
ATOM      6  C   UNL     1      -5.665  -9.461  12.196  0.00  0.00    +0.148 A 
ATOM      7  C   UNL     1      -6.452  -9.260  12.341  0.00  0.00    +0.036 A 
ATOM      8  C   UNL     1      -6.809  -9.475  13.053  0.00  0.00    +0.008 A 
ATOM      9  C   UNL     1      -6.379  -9.892  13.620  0.00  0.00    +0.058 A 
ATOM     10  C   UNL     1      -5.592 -10.094  13.475  0.00  0.00    +0.103 A 
ATOM     11  N   UNL     1      -5.235  -9.878  12.764  0.00  0.00    -0.228 NA
BRANCH   6   5
ATOM      5  N   UNL     1      -5.308  -9.246  11.484  0.00  0.00    -0.218 NA
BRANCH   5   4
ATOM      4  C   UNL     1      -5.331  -9.759  10.840  0.00  0.00    +0.146 C 
BRANCH   4   3
ATOM      3  C   UNL     1      -4.897  -9.587  10.159  0.00  0.00    +0.166 C 
BRANCH   3   2
ATOM      1  C   UNL     1      -4.683  -9.957   8.795  0.00  0.00    +0.174 C 
ATOM      2  O   UNL     1      -4.778 -10.169   9.587  0.00  0.00    -0.349 OA
ENDBRANCH   3   2
ENDBRANCH   4   3
ENDBRANCH   5   4
ENDBRANCH   6   5
ENDBRANCH  12   9
BRANCH  15  17
ATOM     17  C   UNL     1      -7.237  -9.880  16.394  0.00  0.00    +0.138 C 
ATOM     18  C   UNL     1      -6.689  -9.976  17.003  0.00  0.00    +0.027 C 
ATOM     19  C   UNL     1      -7.024  -9.678  17.696  0.00  0.00    +0.019 C 
ATOM     20  C   UNL     1      -7.778  -9.398  17.515  0.00  0.00    +0.073 C 
ATOM     21  N   UNL     1      -7.910  -9.523  16.710  0.00  0.00    -0.266 NA
BRANCH  21  22
ATOM     22  C   UNL     1      -8.595  -9.325  16.295  0.00  0.00    +0.072 C 
BRANCH  22  23
ATOM     23  C   UNL     1      -9.231  -8.980  16.689  0.00  0.00    +0.016 C 
ATOM     24  C   UNL     1      -9.790  -9.456  17.067  0.00  0.00    +0.001 C 
ATOM     25  C   UNL     1     -10.427  -9.111  17.461  0.00  0.00    +0.000 C 
ATOM     26  C   UNL     1     -10.506  -8.290  17.478  0.00  0.00    +0.000 C 
ATOM     27  C   UNL     1      -9.948  -7.814  17.101  0.00  0.00    +0.000 C 
ATOM     28  C   UNL     1      -9.310  -8.159  16.707  0.00  0.00    +0.001 C 
ENDBRANCH  22  23
ENDBRANCH  21  22
ENDBRANCH  15  17
TORSDOF 8
ENDMDL
MODEL 9
REMARK VINA RESULT:      -5.0     16.588     17.549
REMARK  Name = 
REMARK  8 active torsions:
REMARK  status: ('A' for Active; 'I' for Inactive)
REMARK    1  A    between atoms: O_2  and  C_3
REMARK    2  A    between atoms: C_3  and  C_4
REMARK    3  A    between atoms: C_4  and  N_5
REMARK    4  A    between atoms: N_5  and  C_6
REMARK    5  A    between atoms: C_9  and  C_12
REMARK    6  A    between atoms: C_15  and  C_17
REMARK    7  A    between atoms: N_21  and  C_22
REMARK    8  A    between atoms: C_22  and  C_23
REMARK                            x       y       z     vdW  Elec       q    Type
REMARK                         _______ _______ _______ _____ _____    ______ ____
ROOT
ATOM     12  C   UNL     1      -5.516  -9.387  11.422  0.00  0.00    +0.205 A 
ATOM     13  N   UNL     1      -5.115  -8.709  11.175  0.00  0.00    -0.056 NA
ATOM     14  O   UNL     1      -5.285  -8.589  10.377  0.00  0.00    -0.336 OA
ATOM     15  C   UNL     1      -5.791  -9.192  10.130  0.00  0.00    +0.251 A 
ATOM     16  N   UNL     1      -5.934  -9.685  10.777  0.00  0.00    -0.190 NA
ENDROOT
BRANCH  12   9
ATOM      6  C   UNL     1      -5.473 -10.354  13.700  0.00  0.00    +0.148 A 
ATOM      7  C   UNL     1      -6.097  -9.865  13.471  0.00  0.00    +0.036 A 
ATOM      8  C   UNL     1      -6.112  -9.543  12.711  0.00  0.00    +0.008 A 
ATOM      9  C   UNL     1      -5.502  -9.709  12.182  0.00  0.00    +0.058 A 
ATOM     10  C   UNL     1      -4.878 -10.197  12.410  0.00  0.00    +0.103 A 
ATOM     11  N   UNL     1      -4.863 -10.519  13.169  0.00  0.00    -0.228 NA
BRANCH   6   5
ATOM      5  N   UNL     1      -5.458 -10.676  14.459  0.00  0.00    -0.218 NA
BRANCH   5   4
ATOM      4  C   UNL     1      -5.193 -10.223  15.095  0.00  0.00    +0.146 C 
BRANCH   4   3
ATOM      3  C   UNL     1      -5.141 -10.557  15.847  0.00  0.00    +0.166 C 
BRANCH   3   2
ATOM      1  C   UNL     1      -4.899 -10.296  17.231  0.00  0.00    +0.174 C 
ATOM      2  O   UNL     1      -4.706 -10.179  16.438  0.00  0.00    -0.349 OA
ENDBRANCH   3   2
ENDBRANCH   4   3
ENDBRANCH   5   4
ENDBRANCH   6   5
ENDBRANCH  12   9
BRANCH  15  17
ATOM     17  C   UNL     1      -6.100  -9.286   9.372  0.00  0.00    +0.138 C 
ATOM     18  C   UNL     1      -5.826  -9.813   8.798  0.00  0.00    +0.027 C 
ATOM     19  C   UNL     1      -6.295  -9.722   8.124  0.00  0.00    +0.019 C 
ATOM     20  C   UNL     1      -6.857  -9.140   8.282  0.00  0.00    +0.073 C 
ATOM     21  N   UNL     1      -6.737  -8.870   9.052  0.00  0.00    -0.266 NA
BRANCH  21  22
ATOM     22  C   UNL     1      -7.177  -8.287   9.436  0.00  0.00    +0.072 C 
BRANCH  22  23
ATOM     23  C   UNL     1      -7.831  -7.951   9.062  0.00  0.00    +0.016 C 
ATOM     24  C   UNL     1      -7.731  -7.302   8.561  0.00  0.00    +0.001 C 
ATOM     25  C   UNL     1      -8.384  -6.966   8.187  0.00  0.00    +0.000 C 
ATOM     26  C   UNL     1      -9.138  -7.277   8.314  0.00  0.00    +0.000 C 
ATOM     27  C   UNL     1      -9.238  -7.925   8.814  0.00  0.00    +0.000 C 
ATOM     28  C   UNL     1      -8.584  -8.262   9.189  0.00  0.00    +0.001 C 
ENDBRANCH  22  23
ENDBRANCH  21  22
ENDBRANCH  15  17
TORSDOF 8
ENDMDL
