REMARK  Name = 
REMARK  5 active torsions:
REMARK  status: ('A' for Active; 'I' for Inactive)
REMARK    1  A    between atoms: C_3  and  C_8
REMARK    2  A    between atoms: C_11  and  C_13
REMARK    3  A    between atoms: N_17  and  C_18
REMARK    4  A    between atoms: C_18  and  C_19
REMARK    5  A    between atoms: C_22  and  C_25
REMARK                            x       y       z     vdW  Elec       q    Type
REMARK                         _______ _______ _______ _____ _____    ______ ____
ROOT
ATOM     13  C   UNL     1       1.278  -4.727   0.000  0.00  0.00    +0.138 C 
ATOM     14  C   UNL     1       1.023  -5.512   0.000  0.00  0.00    +0.027 C 
ATOM     15  C   UNL     1       1.690  -5.997   0.000  0.00  0.00    +0.019 C 
ATOM     16  C   UNL     1       2.358  -5.512   0.000  0.00  0.00    +0.073 C 
ATOM     17  N   UNL     1       2.103  -4.727   0.000  0.00  0.00    -0.263 NA
ENDROOT
BRANCH  13  11
ATOM      8  C   UNL     1       0.381  -2.790   0.000  0.00  0.00    +0.208 A 
ATOM      9  N   UNL     1      -0.287  -3.275   0.000  0.00  0.00    -0.056 NA
ATOM     10  O   UNL     1      -0.032  -4.060   0.000  0.00  0.00    -0.336 OA
ATOM     11  C   UNL     1       0.793  -4.060   0.000  0.00  0.00    +0.251 A 
ATOM     12  N   UNL     1       1.048  -3.275   0.000  0.00  0.00    -0.189 NA
BRANCH   8   3
ATOM      1  N   UNL     1       1.810  -1.965   0.000  0.00  0.00    -0.107 NA
ATOM      2  C   UNL     1       1.095  -1.553   0.000  0.00  0.00    +0.176 A 
ATOM      3  C   UNL     1       0.381  -1.965   0.000  0.00  0.00    +0.093 A 
ATOM      4  C   UNL     1      -0.334  -1.553   0.000  0.00  0.00    +0.107 A 
ATOM      5  N   UNL     1      -0.334  -0.728   0.000  0.00  0.00    -0.222 NA
ATOM      6  C   UNL     1       0.381  -0.315   0.000  0.00  0.00    +0.200 A 
ATOM      7  N   UNL     1       1.095  -0.728   0.000  0.00  0.00    -0.206 NA
ENDBRANCH   8   3
ENDBRANCH  13  11
BRANCH  17  18
ATOM     18  C   UNL     1       2.588  -4.060   0.000  0.00  0.00    +0.099 C 
BRANCH  18  19
ATOM     19  C   UNL     1       3.408  -4.146   0.000  0.00  0.00    -0.006 A 
ATOM     20  C   UNL     1       3.893  -3.479   0.000  0.00  0.00    -0.003 A 
ATOM     21  C   UNL     1       4.714  -3.565   0.000  0.00  0.00    +0.006 A 
ATOM     22  C   UNL     1       5.049  -4.319   0.000  0.00  0.00    +0.080 A 
ATOM     23  C   UNL     1       4.564  -4.986   0.000  0.00  0.00    +0.006 A 
ATOM     24  C   UNL     1       3.744  -4.900   0.000  0.00  0.00    -0.003 A 
BRANCH  22  25
ATOM     25  C   UNL     1       5.870  -4.405   0.000  0.00  0.00    +0.388 C 
ATOM     26  O   UNL     1       6.355  -3.737   0.000  0.00  0.00    -0.241 OA
ATOM     27  O   UNL     1       6.205  -5.159   0.000  0.00  0.00    -0.241 OA
ENDBRANCH  22  25
ENDBRANCH  18  19
ENDBRANCH  17  18
TORSDOF 5
