MODEL 1
REMARK VINA RESULT:      -8.4      0.000      0.000
REMARK  Name = 
REMARK  5 active torsions:
REMARK  status: ('A' for Active; 'I' for Inactive)
REMARK    1  A    between atoms: C_2  and  N_3
REMARK    2  A    between atoms: N_6  and  C_7
REMARK    3  A    between atoms: C_11  and  N_15
REMARK    4  A    between atoms: C_18  and  C_22
REMARK    5  A    between atoms: C_25  and  N_28
REMARK                            x       y       z     vdW  Elec       q    Type
REMARK                         _______ _______ _______ _____ _____    ______ ____
ROOT
ATOM     15  N   UNL     1      -0.812   0.742  23.520  0.00  0.00    -0.200 NA
ATOM     16  C   UNL     1      -1.352   0.486  24.089  0.00  0.00    +0.237 A 
ATOM     17  N   UNL     1      -2.063   0.890  24.195  0.00  0.00    -0.212 NA
ATOM     18  C   UNL     1      -2.603   0.634  24.764  0.00  0.00    +0.086 A 
ATOM     19  C   UNL     1      -2.430  -0.027  25.228  0.00  0.00    +0.040 A 
ATOM     20  C   UNL     1      -1.718  -0.431  25.122  0.00  0.00    +0.103 A 
ATOM     21  N   UNL     1      -1.180  -0.174  24.553  0.00  0.00    -0.211 NA
ENDROOT
BRANCH  15  11
ATOM      7  C   UNL     1       1.946   0.419  23.196  0.00  0.00    +0.156 C 
ATOM      8  C   UNL     1       1.858   1.236  23.261  0.00  0.00    +0.166 C 
ATOM      9  O   UNL     1       1.055   1.398  23.360  0.00  0.00    -0.350 OA
ATOM     10  C   UNL     1       0.648   0.682  23.356  0.00  0.00    +0.166 C 
ATOM     11  C   UNL     1      -0.100   0.338  23.414  0.00  0.00    +0.154 C 
ATOM     12  C   UNL     1      -0.012  -0.479  23.349  0.00  0.00    +0.166 C 
ATOM     13  O   UNL     1       0.790  -0.641  23.250  0.00  0.00    -0.350 OA
ATOM     14  C   UNL     1       1.198   0.076  23.254  0.00  0.00    +0.166 C 
BRANCH   7   6
ATOM      3  N   UNL     1       4.083   0.024  22.990  0.00  0.00    -0.187 NA
ATOM      4  C   UNL     1       3.372   0.428  23.096  0.00  0.00    +0.339 C 
ATOM      5  O   UNL     1       3.374   1.246  23.207  0.00  0.00    -0.249 OA
ATOM      6  N   UNL     1       2.658   0.014  23.090  0.00  0.00    -0.184 NA
BRANCH   3   2
ATOM      1  C   UNL     1       5.488   0.066  23.251  0.00  0.00    +0.025 C 
ATOM      2  C   UNL     1       4.797   0.438  22.995  0.00  0.00    +0.117 C 
ENDBRANCH   3   2
ENDBRANCH   7   6
ENDBRANCH  15  11
BRANCH  18  22
ATOM     22  C   UNL     1      -3.314   1.037  24.870  0.00  0.00    +0.018 A 
ATOM     23  C   UNL     1      -3.310   1.853  25.001  0.00  0.00    +0.003 A 
ATOM     24  C   UNL     1      -4.021   2.256  25.106  0.00  0.00    +0.015 A 
ATOM     25  C   UNL     1      -4.737   1.846  25.081  0.00  0.00    +0.048 A 
ATOM     26  C   UNL     1      -4.740   1.031  24.951  0.00  0.00    +0.015 A 
ATOM     27  C   UNL     1      -4.029   0.627  24.845  0.00  0.00    +0.003 A 
BRANCH  25  28
ATOM     28  N   UNL     1      -5.448   2.249  25.187  0.00  0.00    -0.304 N 
ATOM     29  C   UNL     1      -6.161   1.890  24.980  0.00  0.00    +0.112 C 
ATOM     30  C   UNL     1      -5.447   3.013  25.500  0.00  0.00    +0.112 C 
ENDBRANCH  25  28
ENDBRANCH  18  22
TORSDOF 5
ENDMDL
MODEL 2
REMARK VINA RESULT:      -6.5     14.452     15.197
REMARK  Name = 
REMARK  5 active torsions:
REMARK  status: ('A' for Active; 'I' for Inactive)
REMARK    1  A    between atoms: C_2  and  N_3
REMARK    2  A    between atoms: N_6  and  C_7
REMARK    3  A    between atoms: C_11  and  N_15
REMARK    4  A    between atoms: C_18  and  C_22
REMARK    5  A    between atoms: C_25  and  N_28
REMARK                            x       y       z     vdW  Elec       q    Type
REMARK                         _______ _______ _______ _____ _____    ______ ____
ROOT
ATOM     15  N   UNL     1      -5.712 -10.669  14.727  0.00  0.00    -0.200 NA
ATOM     16  C   UNL     1      -5.932 -10.264  15.412  0.00  0.00    +0.237 A 
ATOM     17  N   UNL     1      -6.720 -10.262  15.655  0.00  0.00    -0.212 NA
ATOM     18  C   UNL     1      -6.940  -9.857  16.339  0.00  0.00    +0.086 A 
ATOM     19  C   UNL     1      -6.371  -9.454  16.780  0.00  0.00    +0.040 A 
ATOM     20  C   UNL     1      -5.583  -9.456  16.537  0.00  0.00    +0.103 A 
ATOM     21  N   UNL     1      -5.364  -9.861  15.853  0.00  0.00    -0.211 NA
ENDROOT
BRANCH  15  11
ATOM      7  C   UNL     1      -3.563 -10.537  12.943  0.00  0.00    +0.156 C 
ATOM      8  C   UNL     1      -4.221 -10.450  12.454  0.00  0.00    +0.166 C 
ATOM      9  O   UNL     1      -4.896 -10.481  12.927  0.00  0.00    -0.350 OA
ATOM     10  C   UNL     1      -4.656 -10.587  13.708  0.00  0.00    +0.166 C 
ATOM     11  C   UNL     1      -4.924 -10.671  14.484  0.00  0.00    +0.154 C 
ATOM     12  C   UNL     1      -4.266 -10.757  14.974  0.00  0.00    +0.166 C 
ATOM     13  O   UNL     1      -3.591 -10.727  14.501  0.00  0.00    -0.350 OA
ATOM     14  C   UNL     1      -3.832 -10.621  13.718  0.00  0.00    +0.166 C 
BRANCH   7   6
ATOM      3  N   UNL     1      -1.751 -10.073  11.819  0.00  0.00    -0.187 NA
ATOM      4  C   UNL     1      -2.538 -10.071  12.062  0.00  0.00    +0.339 C 
ATOM      5  O   UNL     1      -3.091  -9.602  11.668  0.00  0.00    -0.249 OA
ATOM      6  N   UNL     1      -2.775 -10.539  12.700  0.00  0.00    -0.184 NA
BRANCH   3   2
ATOM      1  C   UNL     1      -0.762  -9.268  11.173  0.00  0.00    +0.025 C 
ATOM      2  C   UNL     1      -1.514  -9.606  11.181  0.00  0.00    +0.117 C 
ENDBRANCH   3   2
ENDBRANCH   7   6
ENDBRANCH  15  11
BRANCH  18  22
ATOM     22  C   UNL     1      -7.728  -9.855  16.583  0.00  0.00    +0.018 A 
ATOM     23  C   UNL     1      -8.238  -9.258  16.325  0.00  0.00    +0.003 A 
ATOM     24  C   UNL     1      -9.025  -9.256  16.569  0.00  0.00    +0.015 A 
ATOM     25  C   UNL     1      -9.305  -9.850  17.069  0.00  0.00    +0.048 A 
ATOM     26  C   UNL     1      -8.796 -10.446  17.325  0.00  0.00    +0.015 A 
ATOM     27  C   UNL     1      -8.007 -10.448  17.082  0.00  0.00    +0.003 A 
BRANCH  25  28
ATOM     28  N   UNL     1     -10.093  -9.848  17.312  0.00  0.00    -0.304 N 
ATOM     29  C   UNL     1     -10.674 -10.179  16.829  0.00  0.00    +0.112 C 
ATOM     30  C   UNL     1     -10.300  -9.515  18.038  0.00  0.00    +0.112 C 
ENDBRANCH  25  28
ENDBRANCH  18  22
TORSDOF 5
ENDMDL
MODEL 3
REMARK VINA RESULT:      -6.5     16.172     17.078
REMARK  Name = 
REMARK  5 active torsions:
REMARK  status: ('A' for Active; 'I' for Inactive)
REMARK    1  A    between atoms: C_2  and  N_3
REMARK    2  A    between atoms: N_6  and  C_7
REMARK    3  A    between atoms: C_11  and  N_15
REMARK    4  A    between atoms: C_18  and  C_22
REMARK    5  A    between atoms: C_25  and  N_28
REMARK                            x       y       z     vdW  Elec       q    Type
REMARK                         _______ _______ _______ _____ _____    ______ ____
ROOT
ATOM     15  N   UNL     1      -5.084 -10.158  11.472  0.00  0.00    -0.200 NA
ATOM     16  C   UNL     1      -5.199  -9.532  10.948  0.00  0.00    +0.237 A 
ATOM     17  N   UNL     1      -5.946  -9.393  10.628  0.00  0.00    -0.212 NA
ATOM     18  C   UNL     1      -6.061  -8.766  10.103  0.00  0.00    +0.086 A 
ATOM     19  C   UNL     1      -5.427  -8.279   9.898  0.00  0.00    +0.040 A 
ATOM     20  C   UNL     1      -4.680  -8.418  10.219  0.00  0.00    +0.103 A 
ATOM     21  N   UNL     1      -4.566  -9.044  10.743  0.00  0.00    -0.211 NA
ENDROOT
BRANCH  15  11
ATOM      7  C   UNL     1      -3.174 -10.601  13.465  0.00  0.00    +0.156 C 
ATOM      8  C   UNL     1      -3.877 -10.526  13.890  0.00  0.00    +0.166 C 
ATOM      9  O   UNL     1      -4.487 -10.392  13.352  0.00  0.00    -0.350 OA
ATOM     10  C   UNL     1      -4.162 -10.384  12.594  0.00  0.00    +0.166 C 
ATOM     11  C   UNL     1      -4.336 -10.297  11.793  0.00  0.00    +0.154 C 
ATOM     12  C   UNL     1      -3.634 -10.372  11.368  0.00  0.00    +0.166 C 
ATOM     13  O   UNL     1      -3.024 -10.506  11.906  0.00  0.00    -0.350 OA
ATOM     14  C   UNL     1      -3.350 -10.514  12.665  0.00  0.00    +0.166 C 
BRANCH   7   6
ATOM      3  N   UNL     1      -1.552 -10.781  14.915  0.00  0.00    -0.187 NA
ATOM      4  C   UNL     1      -2.299 -10.643  14.595  0.00  0.00    +0.339 C 
ATOM      5  O   UNL     1      -2.921 -10.406  15.084  0.00  0.00    -0.249 OA
ATOM      6  N   UNL     1      -2.426 -10.740  13.786  0.00  0.00    -0.184 NA
BRANCH   3   2
ATOM      1  C   UNL     1      -0.690 -10.431  16.000  0.00  0.00    +0.025 C 
ATOM      2  C   UNL     1      -1.425 -10.684  15.725  0.00  0.00    +0.117 C 
ENDBRANCH   3   2
ENDBRANCH   7   6
ENDBRANCH  15  11
BRANCH  18  22
ATOM     22  C   UNL     1      -6.808  -8.628   9.783  0.00  0.00    +0.018 A 
ATOM     23  C   UNL     1      -6.885  -8.170   9.099  0.00  0.00    +0.003 A 
ATOM     24  C   UNL     1      -7.632  -8.031   8.779  0.00  0.00    +0.015 A 
ATOM     25  C   UNL     1      -8.302  -8.349   9.141  0.00  0.00    +0.048 A 
ATOM     26  C   UNL     1      -8.225  -8.805   9.823  0.00  0.00    +0.015 A 
ATOM     27  C   UNL     1      -7.477  -8.945  10.144  0.00  0.00    +0.003 A 
BRANCH  25  28
ATOM     28  N   UNL     1      -9.049  -8.210   8.821  0.00  0.00    -0.304 N 
ATOM     29  C   UNL     1      -9.231  -7.470   8.505  0.00  0.00    +0.112 C 
ATOM     30  C   UNL     1      -9.615  -8.811   8.816  0.00  0.00    +0.112 C 
ENDBRANCH  25  28
ENDBRANCH  18  22
TORSDOF 5
ENDMDL
MODEL 4
REMARK VINA RESULT:      -6.4     15.118     16.582
REMARK  Name = 
REMARK  5 active torsions:
REMARK  status: ('A' for Active; 'I' for Inactive)
REMARK    1  A    between atoms: C_2  and  N_3
REMARK    2  A    between atoms: N_6  and  C_7
REMARK    3  A    between atoms: C_11  and  N_15
REMARK    4  A    between atoms: C_18  and  C_22
REMARK    5  A    between atoms: C_25  and  N_28
REMARK                            x       y       z     vdW  Elec       q    Type
REMARK                         _______ _______ _______ _____ _____    ______ ____
ROOT
ATOM     15  N   UNL     1      -5.754 -10.149  13.887  0.00  0.00    -0.200 NA
ATOM     16  C   UNL     1      -6.170  -9.857  13.237  0.00  0.00    +0.237 A 
ATOM     17  N   UNL     1      -5.796  -9.791  12.505  0.00  0.00    -0.212 NA
ATOM     18  C   UNL     1      -6.212  -9.499  11.854  0.00  0.00    +0.086 A 
ATOM     19  C   UNL     1      -7.001  -9.273  11.937  0.00  0.00    +0.040 A 
ATOM     20  C   UNL     1      -7.375  -9.340  12.670  0.00  0.00    +0.103 A 
ATOM     21  N   UNL     1      -6.959  -9.632  13.319  0.00  0.00    -0.211 NA
ENDROOT
BRANCH  15  11
ATOM      7  C   UNL     1      -5.976 -10.198  16.674  0.00  0.00    +0.156 C 
ATOM      8  C   UNL     1      -5.172 -10.061  16.551  0.00  0.00    +0.166 C 
ATOM      9  O   UNL     1      -5.041 -10.035  15.737  0.00  0.00    -0.350 OA
ATOM     10  C   UNL     1      -5.762 -10.156  15.357  0.00  0.00    +0.166 C 
ATOM     11  C   UNL     1      -6.128 -10.216  14.620  0.00  0.00    +0.154 C 
ATOM     12  C   UNL     1      -6.932 -10.353  14.744  0.00  0.00    +0.166 C 
ATOM     13  O   UNL     1      -7.063 -10.378  15.557  0.00  0.00    -0.350 OA
ATOM     14  C   UNL     1      -6.341 -10.257  15.937  0.00  0.00    +0.166 C 
BRANCH   7   6
ATOM      3  N   UNL     1      -6.277 -10.476  18.818  0.00  0.00    -0.187 NA
ATOM      4  C   UNL     1      -5.904 -10.409  18.086  0.00  0.00    +0.339 C 
ATOM      5  O   UNL     1      -5.084 -10.488  18.032  0.00  0.00    -0.249 OA
ATOM      6  N   UNL     1      -6.350 -10.264  17.407  0.00  0.00    -0.184 NA
BRANCH   3   2
ATOM      1  C   UNL     1      -6.209 -10.781  20.213  0.00  0.00    +0.025 C 
ATOM      2  C   UNL     1      -5.832 -10.621  19.497  0.00  0.00    +0.117 C 
ENDBRANCH   3   2
ENDBRANCH   7   6
ENDBRANCH  15  11
BRANCH  18  22
ATOM     22  C   UNL     1      -5.839  -9.432  11.122  0.00  0.00    +0.018 A 
ATOM     23  C   UNL     1      -5.416  -8.748  10.935  0.00  0.00    +0.003 A 
ATOM     24  C   UNL     1      -5.042  -8.681  10.203  0.00  0.00    +0.015 A 
ATOM     25  C   UNL     1      -5.091  -9.298   9.657  0.00  0.00    +0.048 A 
ATOM     26  C   UNL     1      -5.514  -9.981   9.844  0.00  0.00    +0.015 A 
ATOM     27  C   UNL     1      -5.887 -10.048  10.577  0.00  0.00    +0.003 A 
BRANCH  25  28
ATOM     28  N   UNL     1      -4.718  -9.231   8.925  0.00  0.00    -0.304 N 
ATOM     29  C   UNL     1      -5.100  -9.494   8.242  0.00  0.00    +0.112 C 
ATOM     30  C   UNL     1      -3.963  -8.902   8.874  0.00  0.00    +0.112 C 
ENDBRANCH  25  28
ENDBRANCH  18  22
TORSDOF 5
ENDMDL
MODEL 5
REMARK VINA RESULT:      -6.2     14.438     16.399
REMARK  Name = 
REMARK  5 active torsions:
REMARK  status: ('A' for Active; 'I' for Inactive)
REMARK    1  A    between atoms: C_2  and  N_3
REMARK    2  A    between atoms: N_6  and  C_7
REMARK    3  A    between atoms: C_11  and  N_15
REMARK    4  A    between atoms: C_18  and  C_22
REMARK    5  A    between atoms: C_25  and  N_28
REMARK                            x       y       z     vdW  Elec       q    Type
REMARK                         _______ _______ _______ _____ _____    ______ ____
ROOT
ATOM     15  N   UNL     1      -6.233  -9.927  15.462  0.00  0.00    -0.200 NA
ATOM     16  C   UNL     1      -5.470 -10.201  15.308  0.00  0.00    +0.237 A 
ATOM     17  N   UNL     1      -5.166 -10.170  14.542  0.00  0.00    -0.212 NA
ATOM     18  C   UNL     1      -4.403 -10.444  14.388  0.00  0.00    +0.086 A 
ATOM     19  C   UNL     1      -3.944 -10.749  15.001  0.00  0.00    +0.040 A 
ATOM     20  C   UNL     1      -4.247 -10.781  15.768  0.00  0.00    +0.103 A 
ATOM     21  N   UNL     1      -5.010 -10.507  15.921  0.00  0.00    -0.211 NA
ENDROOT
BRANCH  15  11
ATOM      7  C   UNL     1      -8.091 -10.467  17.480  0.00  0.00    +0.156 C 
ATOM      8  C   UNL     1      -8.475 -10.722  16.796  0.00  0.00    +0.166 C 
ATOM      9  O   UNL     1      -7.972 -10.587  16.157  0.00  0.00    -0.350 OA
ATOM     10  C   UNL     1      -7.277 -10.251  16.445  0.00  0.00    +0.166 C 
ATOM     11  C   UNL     1      -6.536  -9.959  16.229  0.00  0.00    +0.154 C 
ATOM     12  C   UNL     1      -6.152  -9.705  16.913  0.00  0.00    +0.166 C 
ATOM     13  O   UNL     1      -6.655  -9.839  17.552  0.00  0.00    -0.350 OA
ATOM     14  C   UNL     1      -7.350 -10.176  17.263  0.00  0.00    +0.166 C 
BRANCH   7   6
ATOM      3  N   UNL     1      -9.511 -10.476  19.138  0.00  0.00    -0.187 NA
ATOM      4  C   UNL     1      -9.208 -10.445  18.372  0.00  0.00    +0.339 C 
ATOM      5  O   UNL     1      -9.718 -10.359  17.729  0.00  0.00    -0.249 OA
ATOM      6  N   UNL     1      -8.394 -10.499  18.247  0.00  0.00    -0.184 NA
BRANCH   3   2
ATOM      1  C   UNL     1     -10.618 -10.286  20.021  0.00  0.00    +0.025 C 
ATOM      2  C   UNL     1     -10.325 -10.422  19.263  0.00  0.00    +0.117 C 
ENDBRANCH   3   2
ENDBRANCH   7   6
ENDBRANCH  15  11
BRANCH  18  22
ATOM     22  C   UNL     1      -4.100 -10.412  13.622  0.00  0.00    +0.018 A 
ATOM     23  C   UNL     1      -3.340 -10.696  13.467  0.00  0.00    +0.003 A 
ATOM     24  C   UNL     1      -3.037 -10.665  12.701  0.00  0.00    +0.015 A 
ATOM     25  C   UNL     1      -3.492 -10.350  12.089  0.00  0.00    +0.048 A 
ATOM     26  C   UNL     1      -4.251 -10.067  12.244  0.00  0.00    +0.015 A 
ATOM     27  C   UNL     1      -4.555 -10.098  13.011  0.00  0.00    +0.003 A 
BRANCH  25  28
ATOM     28  N   UNL     1      -3.189 -10.319  11.323  0.00  0.00    -0.304 N 
ATOM     29  C   UNL     1      -3.524 -10.781  10.728  0.00  0.00    +0.112 C 
ATOM     30  C   UNL     1      -2.550  -9.825  11.152  0.00  0.00    +0.112 C 
ENDBRANCH  25  28
ENDBRANCH  18  22
TORSDOF 5
ENDMDL
MODEL 6
REMARK VINA RESULT:      -5.8     16.257     18.102
REMARK  Name = 
REMARK  5 active torsions:
REMARK  status: ('A' for Active; 'I' for Inactive)
REMARK    1  A    between atoms: C_2  and  N_3
REMARK    2  A    between atoms: N_6  and  C_7
REMARK    3  A    between atoms: C_11  and  N_15
REMARK    4  A    between atoms: C_18  and  C_22
REMARK    5  A    between atoms: C_25  and  N_28
REMARK                            x       y       z     vdW  Elec       q    Type
REMARK                         _______ _______ _______ _____ _____    ______ ____
ROOT
ATOM     15  N   UNL     1      12.728  -5.486  31.444  0.00  0.00    -0.200 NA
ATOM     16  C   UNL     1      13.543  -5.461  31.317  0.00  0.00    +0.237 A 
ATOM     17  N   UNL     1      13.956  -4.756  31.425  0.00  0.00    -0.212 NA
ATOM     18  C   UNL     1      14.771  -4.731  31.299  0.00  0.00    +0.086 A 
ATOM     19  C   UNL     1      15.172  -5.412  31.063  0.00  0.00    +0.040 A 
ATOM     20  C   UNL     1      14.759  -6.118  30.955  0.00  0.00    +0.103 A 
ATOM     21  N   UNL     1      13.944  -6.142  31.082  0.00  0.00    -0.211 NA
ENDROOT
BRANCH  15  11
ATOM      7  C   UNL     1      11.017  -7.599  32.096  0.00  0.00    +0.156 C 
ATOM      8  C   UNL     1      11.002  -7.127  32.772  0.00  0.00    +0.166 C 
ATOM      9  O   UNL     1      11.494  -6.478  32.641  0.00  0.00    -0.350 OA
ATOM     10  C   UNL     1      11.813  -6.548  31.885  0.00  0.00    +0.166 C 
ATOM     11  C   UNL     1      12.314  -6.191  31.335  0.00  0.00    +0.154 C 
ATOM     12  C   UNL     1      12.330  -6.663  30.659  0.00  0.00    +0.166 C 
ATOM     13  O   UNL     1      11.838  -7.312  30.790  0.00  0.00    -0.350 OA
ATOM     14  C   UNL     1      11.518  -7.241  31.548  0.00  0.00    +0.166 C 
BRANCH   7   6
ATOM      3  N   UNL     1       9.412  -9.077  32.145  0.00  0.00    -0.187 NA
ATOM      4  C   UNL     1       9.825  -8.372  32.253  0.00  0.00    +0.339 C 
ATOM      5  O   UNL     1       9.461  -7.733  32.627  0.00  0.00    -0.249 OA
ATOM      6  N   UNL     1      10.604  -8.305  31.987  0.00  0.00    -0.184 NA
BRANCH   3   2
ATOM      1  C   UNL     1       8.186  -9.808  32.213  0.00  0.00    +0.025 C 
ATOM      2  C   UNL     1       8.633  -9.145  32.410  0.00  0.00    +0.117 C 
ENDBRANCH   3   2
ENDBRANCH   7   6
ENDBRANCH  15  11
BRANCH  18  22
ATOM     22  C   UNL     1      15.185  -4.026  31.407  0.00  0.00    +0.018 A 
ATOM     23  C   UNL     1      15.168  -3.647  32.141  0.00  0.00    +0.003 A 
ATOM     24  C   UNL     1      15.582  -2.942  32.249  0.00  0.00    +0.015 A 
ATOM     25  C   UNL     1      16.012  -2.615  31.625  0.00  0.00    +0.048 A 
ATOM     26  C   UNL     1      16.028  -2.994  30.893  0.00  0.00    +0.015 A 
ATOM     27  C   UNL     1      15.614  -3.700  30.784  0.00  0.00    +0.003 A 
BRANCH  25  28
ATOM     28  N   UNL     1      16.425  -1.910  31.734  0.00  0.00    -0.304 N 
ATOM     29  C   UNL     1      16.634  -1.450  31.081  0.00  0.00    +0.112 C 
ATOM     30  C   UNL     1      16.631  -1.664  32.494  0.00  0.00    +0.112 C 
ENDBRANCH  25  28
ENDBRANCH  18  22
TORSDOF 5
ENDMDL
MODEL 7
REMARK VINA RESULT:      -5.6     18.296     19.306
REMARK  Name = 
REMARK  5 active torsions:
REMARK  status: ('A' for Active; 'I' for Inactive)
REMARK    1  A    between atoms: C_2  and  N_3
REMARK    2  A    between atoms: N_6  and  C_7
REMARK    3  A    between atoms: C_11  and  N_15
REMARK    4  A    between atoms: C_18  and  C_22
REMARK    5  A    between atoms: C_25  and  N_28
REMARK                            x       y       z     vdW  Elec       q    Type
REMARK                         _______ _______ _______ _____ _____    ______ ____
ROOT
ATOM     15  N   UNL     1      16.567  -5.084  29.619  0.00  0.00    -0.200 NA
ATOM     16  C   UNL     1      15.974  -5.626  29.431  0.00  0.00    +0.237 A 
ATOM     17  N   UNL     1      16.075  -6.149  28.802  0.00  0.00    -0.212 NA
ATOM     18  C   UNL     1      15.482  -6.690  28.614  0.00  0.00    +0.086 A 
ATOM     19  C   UNL     1      14.786  -6.708  29.057  0.00  0.00    +0.040 A 
ATOM     20  C   UNL     1      14.684  -6.185  29.687  0.00  0.00    +0.103 A 
ATOM     21  N   UNL     1      15.278  -5.644  29.874  0.00  0.00    -0.211 NA
ENDROOT
BRANCH  15  11
ATOM      7  C   UNL     1      16.426  -2.616  30.924  0.00  0.00    +0.156 C 
ATOM      8  C   UNL     1      16.595  -2.408  30.144  0.00  0.00    +0.166 C 
ATOM      9  O   UNL     1      16.650  -3.102  29.702  0.00  0.00    -0.350 OA
ATOM     10  C   UNL     1      16.515  -3.739  30.208  0.00  0.00    +0.166 C 
ATOM     11  C   UNL     1      16.465  -4.561  30.249  0.00  0.00    +0.154 C 
ATOM     12  C   UNL     1      16.296  -4.769  31.029  0.00  0.00    +0.166 C 
ATOM     13  O   UNL     1      16.241  -4.075  31.471  0.00  0.00    -0.350 OA
ATOM     14  C   UNL     1      16.376  -3.438  30.964  0.00  0.00    +0.166 C 
BRANCH   7   6
ATOM      3  N   UNL     1      16.662  -0.873  32.217  0.00  0.00    -0.187 NA
ATOM      4  C   UNL     1      16.764  -1.396  31.587  0.00  0.00    +0.339 C 
ATOM      5  O   UNL     1      17.306  -1.222  30.990  0.00  0.00    -0.249 OA
ATOM      6  N   UNL     1      16.324  -2.093  31.554  0.00  0.00    -0.184 NA
BRANCH   3   2
ATOM      1  C   UNL     1      16.991   0.353  32.873  0.00  0.00    +0.025 C 
ATOM      2  C   UNL     1      17.102  -0.176  32.250  0.00  0.00    +0.117 C 
ENDBRANCH   3   2
ENDBRANCH   7   6
ENDBRANCH  15  11
BRANCH  18  22
ATOM     22  C   UNL     1      15.583  -7.213  27.985  0.00  0.00    +0.018 A 
ATOM     23  C   UNL     1      15.439  -6.960  27.211  0.00  0.00    +0.003 A 
ATOM     24  C   UNL     1      15.541  -7.483  26.582  0.00  0.00    +0.015 A 
ATOM     25  C   UNL     1      15.786  -8.258  26.724  0.00  0.00    +0.048 A 
ATOM     26  C   UNL     1      15.930  -8.510  27.496  0.00  0.00    +0.015 A 
ATOM     27  C   UNL     1      15.828  -7.987  28.127  0.00  0.00    +0.003 A 
BRANCH  25  28
ATOM     28  N   UNL     1      15.888  -8.781  26.095  0.00  0.00    -0.304 N 
ATOM     29  C   UNL     1      15.396  -9.439  26.022  0.00  0.00    +0.112 C 
ATOM     30  C   UNL     1      16.482  -8.646  25.538  0.00  0.00    +0.112 C 
ENDBRANCH  25  28
ENDBRANCH  18  22
TORSDOF 5
ENDMDL
MODEL 8
REMARK VINA RESULT:      -5.6     15.227     17.628
REMARK  Name = 
REMARK  5 active torsions:
REMARK  status: ('A' for Active; 'I' for Inactive)
REMARK    1  A    between atoms: C_2  and  N_3
REMARK    2  A    between atoms: N_6  and  C_7
REMARK    3  A    between atoms: C_11  and  N_15
REMARK    4  A    between atoms: C_18  and  C_22
REMARK    5  A    between atoms: C_25  and  N_28
REMARK                            x       y       z     vdW  Elec       q    Type
REMARK                         _______ _______ _______ _____ _____    ______ ____
ROOT
ATOM     15  N   UNL     1      11.840  -7.429  32.414  0.00  0.00    -0.200 NA
ATOM     16  C   UNL     1      12.250  -7.043  31.811  0.00  0.00    +0.237 A 
ATOM     17  N   UNL     1      12.774  -6.433  31.993  0.00  0.00    -0.212 NA
ATOM     18  C   UNL     1      13.185  -6.048  31.390  0.00  0.00    +0.086 A 
ATOM     19  C   UNL     1      13.070  -6.272  30.604  0.00  0.00    +0.040 A 
ATOM     20  C   UNL     1      12.545  -6.882  30.422  0.00  0.00    +0.103 A 
ATOM     21  N   UNL     1      12.135  -7.267  31.025  0.00  0.00    -0.211 NA
ENDROOT
BRANCH  15  11
ATOM      7  C   UNL     1       9.386  -8.760  32.261  0.00  0.00    +0.156 C 
ATOM      8  C   UNL     1       9.191  -8.046  32.626  0.00  0.00    +0.166 C 
ATOM      9  O   UNL     1       9.882  -7.602  32.701  0.00  0.00    -0.350 OA
ATOM     10  C   UNL     1      10.503  -8.041  32.383  0.00  0.00    +0.166 C 
ATOM     11  C   UNL     1      11.315  -8.039  32.232  0.00  0.00    +0.154 C 
ATOM     12  C   UNL     1      11.509  -8.752  31.867  0.00  0.00    +0.166 C 
ATOM     13  O   UNL     1      10.818  -9.196  31.792  0.00  0.00    -0.350 OA
ATOM     14  C   UNL     1      10.196  -8.757  32.111  0.00  0.00    +0.166 C 
BRANCH   7   6
ATOM      3  N   UNL     1       7.656  -9.821  31.457  0.00  0.00    -0.187 NA
ATOM      4  C   UNL     1       8.180  -9.212  31.639  0.00  0.00    +0.339 C 
ATOM      5  O   UNL     1       8.026  -8.443  31.382  0.00  0.00    -0.249 OA
ATOM      6  N   UNL     1       8.861  -9.370  32.079  0.00  0.00    -0.184 NA
BRANCH   3   2
ATOM      1  C   UNL     1       6.563 -10.280  30.659  0.00  0.00    +0.025 C 
ATOM      2  C   UNL     1       6.976  -9.663  31.018  0.00  0.00    +0.117 C 
ENDBRANCH   3   2
ENDBRANCH   7   6
ENDBRANCH  15  11
BRANCH  18  22
ATOM     22  C   UNL     1      13.709  -5.438  31.572  0.00  0.00    +0.018 A 
ATOM     23  C   UNL     1      14.508  -5.508  31.372  0.00  0.00    +0.003 A 
ATOM     24  C   UNL     1      15.033  -4.898  31.554  0.00  0.00    +0.015 A 
ATOM     25  C   UNL     1      14.760  -4.219  31.935  0.00  0.00    +0.048 A 
ATOM     26  C   UNL     1      13.963  -4.149  32.134  0.00  0.00    +0.015 A 
ATOM     27  C   UNL     1      13.438  -4.759  31.952  0.00  0.00    +0.003 A 
BRANCH  25  28
ATOM     28  N   UNL     1      15.285  -3.609  32.117  0.00  0.00    -0.304 N 
ATOM     29  C   UNL     1      15.611  -3.558  32.873  0.00  0.00    +0.112 C 
ATOM     30  C   UNL     1      15.484  -3.050  31.543  0.00  0.00    +0.112 C 
ENDBRANCH  25  28
ENDBRANCH  18  22
TORSDOF 5
ENDMDL
MODEL 9
REMARK VINA RESULT:      -4.6     15.275     16.782
REMARK  Name = 
REMARK  5 active torsions:
REMARK  status: ('A' for Active; 'I' for Inactive)
REMARK    1  A    between atoms: C_2  and  N_3
REMARK    2  A    between atoms: N_6  and  C_7
REMARK    3  A    between atoms: C_11  and  N_15
REMARK    4  A    between atoms: C_18  and  C_22
REMARK    5  A    between atoms: C_25  and  N_28
REMARK                            x       y       z     vdW  Elec       q    Type
REMARK                         _______ _______ _______ _____ _____    ______ ____
ROOT
ATOM     15  N   UNL     1      11.789  -6.380  31.315  0.00  0.00    -0.200 NA
ATOM     16  C   UNL     1      11.608  -7.142  31.576  0.00  0.00    +0.237 A 
ATOM     17  N   UNL     1      10.826  -7.349  31.733  0.00  0.00    -0.212 NA
ATOM     18  C   UNL     1      10.645  -8.111  31.995  0.00  0.00    +0.086 A 
ATOM     19  C   UNL     1      11.248  -8.664  32.099  0.00  0.00    +0.040 A 
ATOM     20  C   UNL     1      12.031  -8.457  31.942  0.00  0.00    +0.103 A 
ATOM     21  N   UNL     1      12.211  -7.695  31.681  0.00  0.00    -0.211 NA
ENDROOT
BRANCH  15  11
ATOM      7  C   UNL     1      14.171  -4.935  31.552  0.00  0.00    +0.156 C 
ATOM      8  C   UNL     1      13.671  -4.566  32.094  0.00  0.00    +0.166 C 
ATOM      9  O   UNL     1      12.942  -4.951  32.071  0.00  0.00    -0.350 OA
ATOM     10  C   UNL     1      12.991  -5.558  31.516  0.00  0.00    +0.166 C 
ATOM     11  C   UNL     1      12.572  -6.172  31.158  0.00  0.00    +0.154 C 
ATOM     12  C   UNL     1      13.072  -6.542  30.616  0.00  0.00    +0.166 C 
ATOM     13  O   UNL     1      13.801  -6.157  30.639  0.00  0.00    -0.350 OA
ATOM     14  C   UNL     1      13.751  -5.549  31.195  0.00  0.00    +0.166 C 
BRANCH   7   6
ATOM      3  N   UNL     1      15.994  -3.748  31.373  0.00  0.00    -0.187 NA
ATOM      4  C   UNL     1      15.212  -3.956  31.530  0.00  0.00    +0.339 C 
ATOM      5  O   UNL     1      14.685  -3.391  31.823  0.00  0.00    -0.249 OA
ATOM      6  N   UNL     1      14.954  -4.728  31.395  0.00  0.00    -0.184 NA
BRANCH   3   2
ATOM      1  C   UNL     1      17.055  -2.795  31.464  0.00  0.00    +0.025 C 
ATOM      2  C   UNL     1      16.252  -2.976  31.509  0.00  0.00    +0.117 C 
ENDBRANCH   3   2
ENDBRANCH   7   6
ENDBRANCH  15  11
BRANCH  18  22
ATOM     22  C   UNL     1       9.863  -8.318  32.152  0.00  0.00    +0.018 A 
ATOM     23  C   UNL     1       9.430  -7.899  32.716  0.00  0.00    +0.003 A 
ATOM     24  C   UNL     1       8.648  -8.107  32.873  0.00  0.00    +0.015 A 
ATOM     25  C   UNL     1       8.297  -8.733  32.467  0.00  0.00    +0.048 A 
ATOM     26  C   UNL     1       8.730  -9.152  31.903  0.00  0.00    +0.015 A 
ATOM     27  C   UNL     1       9.513  -8.944  31.746  0.00  0.00    +0.003 A 
BRANCH  25  28
ATOM     28  N   UNL     1       7.515  -8.941  32.624  0.00  0.00    -0.304 N 
ATOM     29  C   UNL     1       6.914  -8.384  32.531  0.00  0.00    +0.112 C 
ATOM     30  C   UNL     1       7.333  -9.706  32.874  0.00  0.00    +0.112 C 
ENDBRANCH  25  28
ENDBRANCH  18  22
TORSDOF 5
ENDMDL
