REMARK  Name = 
REMARK  5 active torsions:
REMARK  status: ('A' for Active; 'I' for Inactive)
REMARK    1  A    between atoms: C_4  and  C_19
REMARK    2  A    between atoms: C_5  and  N_6
REMARK    3  A    between atoms: C_7  and  C_9
REMARK    4  A    between atoms: C_11  and  C_15
REMARK    5  A    between atoms: C_22  and  N_25
REMARK                            x       y       z     vdW  Elec       q    Type
REMARK                         _______ _______ _______ _____ _____    ______ ____
ROOT
ATOM      1  O   UNL     1       0.715  -2.888   0.000  0.00  0.00    -0.220 OA
ATOM      2  C   UNL     1       0.715  -3.712   0.000  0.00  0.00    +0.184 C 
ATOM      3  C   UNL     1       1.382  -4.197   0.000  0.00  0.00    +0.042 C 
ATOM      4  C   UNL     1       1.127  -4.982   0.000  0.00  0.00    +0.049 C 
ATOM      5  C   UNL     1       0.302  -4.982   0.000  0.00  0.00    +0.133 C 
ATOM     17  C   UNL     1       0.047  -4.197   0.000  0.00  0.00    +0.202 C 
ATOM     18  O   UNL     1      -0.738  -3.942   0.000  0.00  0.00    -0.219 OA
ENDROOT
BRANCH   4  19
ATOM     19  C   UNL     1       1.612  -5.649   0.000  0.00  0.00    -0.001 A 
ATOM     20  C   UNL     1       2.432  -5.563   0.000  0.00  0.00    +0.000 A 
ATOM     21  C   UNL     1       2.917  -6.231   0.000  0.00  0.00    +0.034 A 
ATOM     22  C   UNL     1       2.582  -6.984   0.000  0.00  0.00    +0.132 A 
ATOM     23  N   UNL     1       1.761  -7.071   0.000  0.00  0.00    -0.229 NA
ATOM     24  C   UNL     1       1.276  -6.403   0.000  0.00  0.00    +0.096 A 
BRANCH  22  25
ATOM     25  N   UNL     1       3.067  -7.652   0.000  0.00  0.00    -0.288 N 
ATOM     26  C   UNL     1       3.887  -7.566   0.000  0.00  0.00    +0.124 C 
ATOM     27  C   UNL     1       4.372  -8.233   0.000  0.00  0.00    +0.164 C 
ATOM     28  O   UNL     1       4.037  -8.987   0.000  0.00  0.00    -0.350 OA
ATOM     29  C   UNL     1       3.216  -9.073   0.000  0.00  0.00    +0.164 C 
ATOM     30  C   UNL     1       2.731  -8.405   0.000  0.00  0.00    +0.124 C 
ENDBRANCH  22  25
ENDBRANCH   4  19
BRANCH   5   6
ATOM      6  N   UNL     1      -0.183  -5.649   0.000  0.00  0.00    -0.200 NA
ATOM      7  C   UNL     1      -1.003  -5.563   0.000  0.00  0.00    +0.265 C 
ATOM      8  O   UNL     1      -1.339  -4.810   0.000  0.00  0.00    -0.268 OA
BRANCH   7   9
ATOM      9  C   UNL     1      -1.488  -6.231   0.000  0.00  0.00    +0.056 A 
ATOM     10  C   UNL     1      -1.153  -6.984   0.000  0.00  0.00    +0.015 A 
ATOM     11  C   UNL     1      -1.638  -7.652   0.000  0.00  0.00    +0.069 A 
ATOM     12  C   UNL     1      -2.458  -7.566   0.000  0.00  0.00    +0.010 A 
ATOM     13  C   UNL     1      -2.794  -6.812   0.000  0.00  0.00    +0.001 A 
ATOM     14  C   UNL     1      -2.309  -6.144   0.000  0.00  0.00    +0.005 A 
BRANCH  11  15
ATOM     15  C   UNL     1      -1.302  -8.405   0.000  0.00  0.00    +0.100 C 
ATOM     16  N   UNL     1      -0.967  -9.159   0.000  0.00  0.00    -0.191 NA
ENDBRANCH  11  15
ENDBRANCH   7   9
ENDBRANCH   5   6
TORSDOF 5
