MODEL 1
REMARK VINA RESULT:     -16.6      0.000      0.000
REMARK  Name = 
REMARK  3 active torsions:
REMARK  status: ('A' for Active; 'I' for Inactive)
REMARK    1  A    between atoms: C_5  and  C_8
REMARK    2  A    between atoms: N_10  and  C_11
REMARK    3  A    between atoms: C_21  and  C_23
REMARK                            x       y       z     vdW  Elec       q    Type
REMARK                         _______ _______ _______ _____ _____    ______ ____
ROOT
ATOM     11  C   UNL     1      -2.564   1.554  23.895  0.00  0.00    +0.130 A 
ATOM     12  C   UNL     1      -2.755   2.357  23.882  0.00  0.00    +0.023 A 
ATOM     13  C   UNL     1      -3.489   2.611  24.159  0.00  0.00    +0.014 A 
ATOM     14  C   UNL     1      -4.033   2.063  24.449  0.00  0.00    +0.041 A 
ATOM     15  C   UNL     1      -4.878   2.018  24.806  0.00  0.00    +0.058 C 
ATOM     16  C   UNL     1      -5.422   2.423  24.987  0.00  0.00    +0.011 C 
ATOM     17  C   UNL     1      -5.231   1.631  24.998  0.00  0.00    +0.043 C 
ATOM     18  C   UNL     1      -5.188   0.648  25.093  0.00  0.00    +0.096 C 
ATOM     19  N   UNL     1      -4.422   0.512  24.789  0.00  0.00    -0.276 N 
ATOM     20  C   UNL     1      -4.851   1.068  24.904  0.00  0.00    +0.099 C 
ATOM     21  C   UNL     1      -3.749   0.094  24.556  0.00  0.00    +0.249 C 
ATOM     22  O   UNL     1      -3.101   0.497  24.240  0.00  0.00    -0.270 OA
ATOM     29  C   UNL     1      -4.347   1.669  24.625  0.00  0.00    +0.110 C 
ATOM     30  N   UNL     1      -3.843   1.261  24.461  0.00  0.00    -0.298 N 
ATOM     31  C   UNL     1      -3.108   1.006  24.185  0.00  0.00    +0.276 A 
ATOM     32  O   UNL     1      -2.700   0.295  24.096  0.00  0.00    -0.266 OA
ENDROOT
BRANCH  21  23
ATOM     23  C   UNL     1      -3.724  -0.726  24.640  0.00  0.00    +0.054 A 
ATOM     24  C   UNL     1      -4.002  -1.211  24.035  0.00  0.00    +0.005 A 
ATOM     25  C   UNL     1      -3.977  -2.032  24.118  0.00  0.00    +0.000 A 
ATOM     26  C   UNL     1      -3.673  -2.366  24.809  0.00  0.00    +0.000 A 
ATOM     27  C   UNL     1      -3.394  -1.882  25.414  0.00  0.00    +0.000 A 
ATOM     28  C   UNL     1      -3.419  -1.061  25.330  0.00  0.00    +0.005 A 
ENDBRANCH  21  23
BRANCH  11  10
ATOM      8  C   UNL     1      -1.139   1.648  23.902  0.00  0.00    +0.269 C 
ATOM      9  O   UNL     1      -0.404   1.394  23.624  0.00  0.00    -0.268 OA
ATOM     10  N   UNL     1      -1.830   1.300  23.618  0.00  0.00    -0.171 NA
BRANCH   8   5
ATOM      1  F   UNL     1      -1.308   4.059  26.148  0.00  0.00    -0.204 F 
ATOM      2  C   UNL     1      -1.266   3.456  25.586  0.00  0.00    +0.140 A 
ATOM      3  C   UNL     1      -1.312   3.638  24.782  0.00  0.00    +0.030 A 
ATOM      4  C   UNL     1      -1.270   3.034  24.220  0.00  0.00    +0.007 A 
ATOM      5  C   UNL     1      -1.181   2.251  24.463  0.00  0.00    +0.056 A 
ATOM      6  C   UNL     1      -1.135   2.070  25.267  0.00  0.00    +0.007 A 
ATOM      7  C   UNL     1      -1.177   2.673  25.829  0.00  0.00    +0.030 A 
ENDBRANCH   8   5
ENDBRANCH  11  10
TORSDOF 3
ENDMDL
MODEL 2
REMARK VINA RESULT:     -16.0      1.640      3.616
REMARK  Name = 
REMARK  3 active torsions:
REMARK  status: ('A' for Active; 'I' for Inactive)
REMARK    1  A    between atoms: C_5  and  C_8
REMARK    2  A    between atoms: N_10  and  C_11
REMARK    3  A    between atoms: C_21  and  C_23
REMARK                            x       y       z     vdW  Elec       q    Type
REMARK                         _______ _______ _______ _____ _____    ______ ____
ROOT
ATOM     11  C   UNL     1      -3.159   0.858  24.252  0.00  0.00    +0.130 A 
ATOM     12  C   UNL     1      -3.775   0.318  24.160  0.00  0.00    +0.023 A 
ATOM     13  C   UNL     1      -4.540   0.520  24.394  0.00  0.00    +0.014 A 
ATOM     14  C   UNL     1      -4.688   1.263  24.721  0.00  0.00    +0.041 A 
ATOM     15  C   UNL     1      -5.376   1.768  25.061  0.00  0.00    +0.058 C 
ATOM     16  C   UNL     1      -6.065   1.744  25.190  0.00  0.00    +0.011 C 
ATOM     17  C   UNL     1      -5.454   2.275  25.280  0.00  0.00    +0.043 C 
ATOM     18  C   UNL     1      -4.860   3.042  25.467  0.00  0.00    +0.096 C 
ATOM     19  N   UNL     1      -4.135   2.726  25.195  0.00  0.00    -0.276 N 
ATOM     20  C   UNL     1      -4.814   2.517  25.248  0.00  0.00    +0.099 C 
ATOM     21  C   UNL     1      -3.330   2.690  25.019  0.00  0.00    +0.249 C 
ATOM     22  O   UNL     1      -3.012   2.006  24.682  0.00  0.00    -0.270 OA
ATOM     29  C   UNL     1      -4.730   1.754  24.926  0.00  0.00    +0.110 C 
ATOM     30  N   UNL     1      -4.072   1.803  24.813  0.00  0.00    -0.298 N 
ATOM     31  C   UNL     1      -3.307   1.601  24.579  0.00  0.00    +0.276 A 
ATOM     32  O   UNL     1      -2.558   1.947  24.567  0.00  0.00    -0.266 OA
ENDROOT
BRANCH  21  23
ATOM     23  C   UNL     1      -2.843   3.335  25.179  0.00  0.00    +0.054 A 
ATOM     24  C   UNL     1      -2.758   3.937  24.622  0.00  0.00    +0.005 A 
ATOM     25  C   UNL     1      -2.270   4.584  24.783  0.00  0.00    +0.000 A 
ATOM     26  C   UNL     1      -1.868   4.627  25.502  0.00  0.00    +0.000 A 
ATOM     27  C   UNL     1      -1.952   4.026  26.059  0.00  0.00    +0.000 A 
ATOM     28  C   UNL     1      -2.440   3.380  25.899  0.00  0.00    +0.005 A 
ENDBRANCH  21  23
BRANCH  11  10
ATOM      8  C   UNL     1      -2.070  -0.066  24.249  0.00  0.00    +0.269 C 
ATOM      9  O   UNL     1      -1.304  -0.269  24.014  0.00  0.00    -0.268 OA
ATOM     10  N   UNL     1      -2.395   0.656  24.017  0.00  0.00    -0.171 NA
BRANCH   8   5
ATOM      1  F   UNL     1      -3.826  -2.144  26.115  0.00  0.00    -0.204 F 
ATOM      2  C   UNL     1      -3.387  -1.624  25.649  0.00  0.00    +0.140 A 
ATOM      3  C   UNL     1      -3.454  -1.651  24.826  0.00  0.00    +0.030 A 
ATOM      4  C   UNL     1      -3.015  -1.132  24.360  0.00  0.00    +0.007 A 
ATOM      5  C   UNL     1      -2.509  -0.586  24.715  0.00  0.00    +0.056 A 
ATOM      6  C   UNL     1      -2.442  -0.559  25.538  0.00  0.00    +0.007 A 
ATOM      7  C   UNL     1      -2.881  -1.079  26.004  0.00  0.00    +0.030 A 
ENDBRANCH   8   5
ENDBRANCH  11  10
TORSDOF 3
ENDMDL
MODEL 3
REMARK VINA RESULT:     -15.2      1.531      3.593
REMARK  Name = 
REMARK  3 active torsions:
REMARK  status: ('A' for Active; 'I' for Inactive)
REMARK    1  A    between atoms: C_5  and  C_8
REMARK    2  A    between atoms: N_10  and  C_11
REMARK    3  A    between atoms: C_21  and  C_23
REMARK                            x       y       z     vdW  Elec       q    Type
REMARK                         _______ _______ _______ _____ _____    ______ ____
ROOT
ATOM     11  C   UNL     1      -3.620   1.402  24.204  0.00  0.00    +0.130 A 
ATOM     12  C   UNL     1      -4.290   0.924  24.264  0.00  0.00    +0.023 A 
ATOM     13  C   UNL     1      -4.246   0.197  24.651  0.00  0.00    +0.014 A 
ATOM     14  C   UNL     1      -3.532  -0.052  24.979  0.00  0.00    +0.041 A 
ATOM     15  C   UNL     1      -3.167  -0.756  25.444  0.00  0.00    +0.058 C 
ATOM     16  C   UNL     1      -3.334  -1.380  25.719  0.00  0.00    +0.011 C 
ATOM     17  C   UNL     1      -2.674  -0.905  25.659  0.00  0.00    +0.043 C 
ATOM     18  C   UNL     1      -1.782  -0.483  25.689  0.00  0.00    +0.096 C 
ATOM     19  N   UNL     1      -1.948   0.225  25.278  0.00  0.00    -0.276 N 
ATOM     20  C   UNL     1      -2.298  -0.360  25.482  0.00  0.00    +0.099 C 
ATOM     21  C   UNL     1      -1.818   0.964  24.933  0.00  0.00    +0.249 C 
ATOM     22  O   UNL     1      -2.438   1.358  24.556  0.00  0.00    -0.270 OA
ATOM     29  C   UNL     1      -3.046  -0.166  25.173  0.00  0.00    +0.110 C 
ATOM     30  N   UNL     1      -2.861   0.426  24.920  0.00  0.00    -0.298 N 
ATOM     31  C   UNL     1      -2.906   1.152  24.532  0.00  0.00    +0.276 A 
ATOM     32  O   UNL     1      -2.404   1.780  24.348  0.00  0.00    -0.266 OA
ENDROOT
BRANCH  21  23
ATOM     23  C   UNL     1      -1.069   1.307  24.964  0.00  0.00    +0.054 A 
ATOM     24  C   UNL     1      -0.525   1.167  24.361  0.00  0.00    +0.005 A 
ATOM     25  C   UNL     1       0.225   1.511  24.393  0.00  0.00    +0.000 A 
ATOM     26  C   UNL     1       0.429   1.995  25.028  0.00  0.00    +0.000 A 
ATOM     27  C   UNL     1      -0.114   2.136  25.632  0.00  0.00    +0.000 A 
ATOM     28  C   UNL     1      -0.864   1.792  25.600  0.00  0.00    +0.005 A 
ENDBRANCH  21  23
BRANCH  11  10
ATOM      8  C   UNL     1      -4.237   2.680  24.039  0.00  0.00    +0.269 C 
ATOM      9  O   UNL     1      -4.281   3.407  23.651  0.00  0.00    -0.268 OA
ATOM     10  N   UNL     1      -3.665   2.128  23.817  0.00  0.00    -0.171 NA
BRANCH   8   5
ATOM      1  F   UNL     1      -6.342   1.982  26.481  0.00  0.00    -0.204 F 
ATOM      2  C   UNL     1      -5.816   2.156  25.871  0.00  0.00    +0.140 A 
ATOM      3  C   UNL     1      -5.969   1.890  25.105  0.00  0.00    +0.030 A 
ATOM      4  C   UNL     1      -5.443   2.065  24.494  0.00  0.00    +0.007 A 
ATOM      5  C   UNL     1      -4.763   2.505  24.650  0.00  0.00    +0.056 A 
ATOM      6  C   UNL     1      -4.609   2.772  25.416  0.00  0.00    +0.007 A 
ATOM      7  C   UNL     1      -5.136   2.597  26.027  0.00  0.00    +0.030 A 
ENDBRANCH   8   5
ENDBRANCH  11  10
TORSDOF 3
ENDMDL
MODEL 4
REMARK VINA RESULT:     -15.0      1.202      2.655
REMARK  Name = 
REMARK  3 active torsions:
REMARK  status: ('A' for Active; 'I' for Inactive)
REMARK    1  A    between atoms: C_5  and  C_8
REMARK    2  A    between atoms: N_10  and  C_11
REMARK    3  A    between atoms: C_21  and  C_23
REMARK                            x       y       z     vdW  Elec       q    Type
REMARK                         _______ _______ _______ _____ _____    ______ ____
ROOT
ATOM     11  C   UNL     1      -3.194   1.627  23.966  0.00  0.00    +0.130 A 
ATOM     12  C   UNL     1      -2.705   2.256  23.747  0.00  0.00    +0.023 A 
ATOM     13  C   UNL     1      -1.886   2.163  23.754  0.00  0.00    +0.014 A 
ATOM     14  C   UNL     1      -1.554   1.442  23.980  0.00  0.00    +0.041 A 
ATOM     15  C   UNL     1      -0.738   1.035  24.089  0.00  0.00    +0.058 C 
ATOM     16  C   UNL     1      -0.049   1.158  24.030  0.00  0.00    +0.011 C 
ATOM     17  C   UNL     1      -0.534   0.540  24.245  0.00  0.00    +0.043 C 
ATOM     18  C   UNL     1      -0.945  -0.311  24.533  0.00  0.00    +0.096 C 
ATOM     19  N   UNL     1      -1.752  -0.100  24.487  0.00  0.00    -0.276 N 
ATOM     20  C   UNL     1      -1.120   0.206  24.370  0.00  0.00    +0.099 C 
ATOM     21  C   UNL     1      -2.572  -0.178  24.536  0.00  0.00    +0.249 C 
ATOM     22  O   UNL     1      -3.060   0.459  24.342  0.00  0.00    -0.270 OA
ATOM     29  C   UNL     1      -1.392   0.956  24.133  0.00  0.00    +0.110 C 
ATOM     30  N   UNL     1      -2.043   0.814  24.198  0.00  0.00    -0.298 N 
ATOM     31  C   UNL     1      -2.862   0.906  24.191  0.00  0.00    +0.276 A 
ATOM     32  O   UNL     1      -3.532   0.454  24.358  0.00  0.00    -0.266 OA
ENDROOT
BRANCH  21  23
ATOM     23  C   UNL     1      -2.904  -0.893  24.778  0.00  0.00    +0.054 A 
ATOM     24  C   UNL     1      -3.043  -1.034  25.579  0.00  0.00    +0.005 A 
ATOM     25  C   UNL     1      -3.375  -1.749  25.822  0.00  0.00    +0.000 A 
ATOM     26  C   UNL     1      -3.569  -2.323  25.262  0.00  0.00    +0.000 A 
ATOM     27  C   UNL     1      -3.431  -2.184  24.462  0.00  0.00    +0.000 A 
ATOM     28  C   UNL     1      -3.099  -1.468  24.219  0.00  0.00    +0.005 A 
ENDBRANCH  21  23
BRANCH  11  10
ATOM      8  C   UNL     1      -4.358   2.368  24.337  0.00  0.00    +0.269 C 
ATOM      9  O   UNL     1      -5.179   2.461  24.329  0.00  0.00    -0.268 OA
ATOM     10  N   UNL     1      -4.013   1.721  23.959  0.00  0.00    -0.171 NA
BRANCH   8   5
ATOM      1  F   UNL     1      -2.460   4.582  25.880  0.00  0.00    -0.204 F 
ATOM      2  C   UNL     1      -2.935   4.028  25.494  0.00  0.00    +0.140 A 
ATOM      3  C   UNL     1      -3.089   4.108  24.687  0.00  0.00    +0.030 A 
ATOM      4  C   UNL     1      -3.564   3.554  24.301  0.00  0.00    +0.007 A 
ATOM      5  C   UNL     1      -3.883   2.922  24.722  0.00  0.00    +0.056 A 
ATOM      6  C   UNL     1      -3.729   2.841  25.529  0.00  0.00    +0.007 A 
ATOM      7  C   UNL     1      -3.254   3.395  25.915  0.00  0.00    +0.030 A 
ENDBRANCH   8   5
ENDBRANCH  11  10
TORSDOF 3
ENDMDL
MODEL 5
REMARK VINA RESULT:     -14.5      1.761      3.278
REMARK  Name = 
REMARK  3 active torsions:
REMARK  status: ('A' for Active; 'I' for Inactive)
REMARK    1  A    between atoms: C_5  and  C_8
REMARK    2  A    between atoms: N_10  and  C_11
REMARK    3  A    between atoms: C_21  and  C_23
REMARK                            x       y       z     vdW  Elec       q    Type
REMARK                         _______ _______ _______ _____ _____    ______ ____
ROOT
ATOM     11  C   UNL     1      -2.099  -0.082  25.372  0.00  0.00    +0.130 A 
ATOM     12  C   UNL     1      -1.747  -0.820  25.266  0.00  0.00    +0.023 A 
ATOM     13  C   UNL     1      -2.166  -1.428  24.898  0.00  0.00    +0.014 A 
ATOM     14  C   UNL     1      -2.937  -1.297  24.635  0.00  0.00    +0.041 A 
ATOM     15  C   UNL     1      -3.631  -1.730  24.215  0.00  0.00    +0.058 C 
ATOM     16  C   UNL     1      -3.806  -2.351  23.939  0.00  0.00    +0.011 C 
ATOM     17  C   UNL     1      -4.150  -1.620  24.045  0.00  0.00    +0.043 C 
ATOM     18  C   UNL     1      -4.730  -0.821  24.081  0.00  0.00    +0.096 C 
ATOM     19  N   UNL     1      -4.213  -0.289  24.464  0.00  0.00    -0.276 N 
ATOM     20  C   UNL     1      -4.203  -0.966  24.242  0.00  0.00    +0.099 C 
ATOM     21  C   UNL     1      -3.944   0.413  24.804  0.00  0.00    +0.249 C 
ATOM     22  O   UNL     1      -3.183   0.454  25.120  0.00  0.00    -0.270 OA
ATOM     29  C   UNL     1      -3.431  -1.160  24.484  0.00  0.00    +0.110 C 
ATOM     30  N   UNL     1      -3.289  -0.559  24.741  0.00  0.00    -0.298 N 
ATOM     31  C   UNL     1      -2.870   0.049  25.109  0.00  0.00    +0.276 A 
ATOM     32  O   UNL     1      -2.993   0.836  25.322  0.00  0.00    -0.266 OA
ENDROOT
BRANCH  21  23
ATOM     23  C   UNL     1      -4.437   1.074  24.828  0.00  0.00    +0.054 A 
ATOM     24  C   UNL     1      -5.024   1.130  25.404  0.00  0.00    +0.005 A 
ATOM     25  C   UNL     1      -5.518   1.792  25.428  0.00  0.00    +0.000 A 
ATOM     26  C   UNL     1      -5.422   2.397  24.876  0.00  0.00    +0.000 A 
ATOM     27  C   UNL     1      -4.835   2.341  24.300  0.00  0.00    +0.000 A 
ATOM     28  C   UNL     1      -4.342   1.680  24.275  0.00  0.00    +0.005 A 
ENDBRANCH  21  23
BRANCH  11  10
ATOM      8  C   UNL     1      -0.938   0.746  25.456  0.00  0.00    +0.269 C 
ATOM      9  O   UNL     1      -0.519   1.354  25.826  0.00  0.00    -0.268 OA
ATOM     10  N   UNL     1      -1.680   0.525  25.741  0.00  0.00    -0.171 NA
BRANCH   8   5
ATOM      1  F   UNL     1       0.354  -0.797  22.843  0.00  0.00    -0.204 F 
ATOM      2  C   UNL     1       0.031  -0.411  23.496  0.00  0.00    +0.140 A 
ATOM      3  C   UNL     1       0.093  -0.749  24.247  0.00  0.00    +0.030 A 
ATOM      4  C   UNL     1      -0.231  -0.363  24.900  0.00  0.00    +0.007 A 
ATOM      5  C   UNL     1      -0.615   0.360  24.803  0.00  0.00    +0.056 A 
ATOM      6  C   UNL     1      -0.676   0.698  24.052  0.00  0.00    +0.007 A 
ATOM      7  C   UNL     1      -0.353   0.312  23.399  0.00  0.00    +0.030 A 
ENDBRANCH   8   5
ENDBRANCH  11  10
TORSDOF 3
ENDMDL
MODEL 6
REMARK VINA RESULT:     -14.4      1.488      2.314
REMARK  Name = 
REMARK  3 active torsions:
REMARK  status: ('A' for Active; 'I' for Inactive)
REMARK    1  A    between atoms: C_5  and  C_8
REMARK    2  A    between atoms: N_10  and  C_11
REMARK    3  A    between atoms: C_21  and  C_23
REMARK                            x       y       z     vdW  Elec       q    Type
REMARK                         _______ _______ _______ _____ _____    ______ ____
ROOT
ATOM     11  C   UNL     1      -3.322   3.008  24.935  0.00  0.00    +0.130 A 
ATOM     12  C   UNL     1      -3.224   3.618  24.388  0.00  0.00    +0.023 A 
ATOM     13  C   UNL     1      -3.053   3.443  23.600  0.00  0.00    +0.014 A 
ATOM     14  C   UNL     1      -2.979   2.658  23.360  0.00  0.00    +0.041 A 
ATOM     15  C   UNL     1      -2.805   2.154  22.611  0.00  0.00    +0.058 C 
ATOM     16  C   UNL     1      -2.663   2.217  21.926  0.00  0.00    +0.011 C 
ATOM     17  C   UNL     1      -2.760   1.617  22.469  0.00  0.00    +0.043 C 
ATOM     18  C   UNL     1      -2.839   0.767  22.966  0.00  0.00    +0.096 C 
ATOM     19  N   UNL     1      -3.009   1.065  23.727  0.00  0.00    -0.276 N 
ATOM     20  C   UNL     1      -2.879   1.324  23.077  0.00  0.00    +0.099 C 
ATOM     21  C   UNL     1      -3.180   1.061  24.535  0.00  0.00    +0.249 C 
ATOM     22  O   UNL     1      -3.286   1.774  24.937  0.00  0.00    -0.270 OA
ATOM     29  C   UNL     1      -2.941   2.135  23.257  0.00  0.00    +0.110 C 
ATOM     30  N   UNL     1      -3.076   2.048  23.907  0.00  0.00    -0.298 N 
ATOM     31  C   UNL     1      -3.248   2.223  24.694  0.00  0.00    +0.276 A 
ATOM     32  O   UNL     1      -3.384   1.814  25.397  0.00  0.00    -0.266 OA
ENDROOT
BRANCH  21  23
ATOM     23  C   UNL     1      -3.244   0.346  24.940  0.00  0.00    +0.054 A 
ATOM     24  C   UNL     1      -3.979  -0.021  25.016  0.00  0.00    +0.005 A 
ATOM     25  C   UNL     1      -4.043  -0.737  25.421  0.00  0.00    +0.000 A 
ATOM     26  C   UNL     1      -3.372  -1.086  25.750  0.00  0.00    +0.000 A 
ATOM     27  C   UNL     1      -2.637  -0.720  25.674  0.00  0.00    +0.000 A 
ATOM     28  C   UNL     1      -2.573  -0.004  25.269  0.00  0.00    +0.005 A 
ENDBRANCH  21  23
BRANCH  11  10
ATOM      8  C   UNL     1      -3.007   3.698  26.146  0.00  0.00    +0.269 C 
ATOM      9  O   UNL     1      -3.179   3.874  26.934  0.00  0.00    -0.268 OA
ATOM     10  N   UNL     1      -3.494   3.184  25.722  0.00  0.00    -0.171 NA
BRANCH   8   5
ATOM      1  F   UNL     1      -0.369   5.047  24.693  0.00  0.00    -0.204 F 
ATOM      2  C   UNL     1      -1.029   4.709  25.056  0.00  0.00    +0.140 A 
ATOM      3  C   UNL     1      -1.759   5.092  25.022  0.00  0.00    +0.030 A 
ATOM      4  C   UNL     1      -2.419   4.754  25.386  0.00  0.00    +0.007 A 
ATOM      5  C   UNL     1      -2.347   4.035  25.782  0.00  0.00    +0.056 A 
ATOM      6  C   UNL     1      -1.616   3.652  25.817  0.00  0.00    +0.007 A 
ATOM      7  C   UNL     1      -0.957   3.990  25.453  0.00  0.00    +0.030 A 
ENDBRANCH   8   5
ENDBRANCH  11  10
TORSDOF 3
ENDMDL
MODEL 7
REMARK VINA RESULT:     -14.4      1.911      3.552
REMARK  Name = 
REMARK  3 active torsions:
REMARK  status: ('A' for Active; 'I' for Inactive)
REMARK    1  A    between atoms: C_5  and  C_8
REMARK    2  A    between atoms: N_10  and  C_11
REMARK    3  A    between atoms: C_21  and  C_23
REMARK                            x       y       z     vdW  Elec       q    Type
REMARK                         _______ _______ _______ _____ _____    ______ ____
ROOT
ATOM     11  C   UNL     1      -3.562  -0.179  24.514  0.00  0.00    +0.130 A 
ATOM     12  C   UNL     1      -2.962  -0.419  24.001  0.00  0.00    +0.023 A 
ATOM     13  C   UNL     1      -2.634   0.120  23.470  0.00  0.00    +0.014 A 
ATOM     14  C   UNL     1      -2.906   0.898  23.451  0.00  0.00    +0.041 A 
ATOM     15  C   UNL     1      -2.766   1.693  23.012  0.00  0.00    +0.058 C 
ATOM     16  C   UNL     1      -2.371   1.981  22.508  0.00  0.00    +0.011 C 
ATOM     17  C   UNL     1      -2.964   2.214  23.015  0.00  0.00    +0.043 C 
ATOM     18  C   UNL     1      -3.660   2.680  23.539  0.00  0.00    +0.096 C 
ATOM     19  N   UNL     1      -3.912   2.051  24.028  0.00  0.00    -0.276 N 
ATOM     20  C   UNL     1      -3.435   2.157  23.510  0.00  0.00    +0.099 C 
ATOM     21  C   UNL     1      -4.342   1.652  24.609  0.00  0.00    +0.249 C 
ATOM     22  O   UNL     1      -4.192   0.854  24.758  0.00  0.00    -0.270 OA
ATOM     29  C   UNL     1      -3.118   1.388  23.480  0.00  0.00    +0.110 C 
ATOM     30  N   UNL     1      -3.507   1.138  23.964  0.00  0.00    -0.298 N 
ATOM     31  C   UNL     1      -3.835   0.599  24.496  0.00  0.00    +0.276 A 
ATOM     32  O   UNL     1      -4.415   0.592  25.081  0.00  0.00    -0.266 OA
ENDROOT
BRANCH  21  23
ATOM     23  C   UNL     1      -4.920   2.051  25.041  0.00  0.00    +0.054 A 
ATOM     24  C   UNL     1      -4.702   2.584  25.631  0.00  0.00    +0.005 A 
ATOM     25  C   UNL     1      -5.281   2.983  26.063  0.00  0.00    +0.000 A 
ATOM     26  C   UNL     1      -6.079   2.848  25.903  0.00  0.00    +0.000 A 
ATOM     27  C   UNL     1      -6.298   2.316  25.313  0.00  0.00    +0.000 A 
ATOM     28  C   UNL     1      -5.719   1.917  24.882  0.00  0.00    +0.005 A 
ENDBRANCH  21  23
BRANCH  11  10
ATOM      8  C   UNL     1      -3.399  -1.211  25.489  0.00  0.00    +0.269 C 
ATOM      9  O   UNL     1      -3.727  -1.751  26.021  0.00  0.00    -0.268 OA
ATOM     10  N   UNL     1      -3.890  -0.718  25.045  0.00  0.00    -0.171 NA
BRANCH   8   5
ATOM      1  F   UNL     1      -0.123  -1.024  25.140  0.00  0.00    -0.204 F 
ATOM      2  C   UNL     1      -0.942  -1.071  25.227  0.00  0.00    +0.140 A 
ATOM      3  C   UNL     1      -1.380  -1.578  24.745  0.00  0.00    +0.030 A 
ATOM      4  C   UNL     1      -2.200  -1.625  24.832  0.00  0.00    +0.007 A 
ATOM      5  C   UNL     1      -2.580  -1.164  25.401  0.00  0.00    +0.056 A 
ATOM      6  C   UNL     1      -2.142  -0.657  25.884  0.00  0.00    +0.007 A 
ATOM      7  C   UNL     1      -1.323  -0.611  25.796  0.00  0.00    +0.030 A 
ENDBRANCH   8   5
ENDBRANCH  11  10
TORSDOF 3
ENDMDL
MODEL 8
REMARK VINA RESULT:     -14.1      1.649      4.443
REMARK  Name = 
REMARK  3 active torsions:
REMARK  status: ('A' for Active; 'I' for Inactive)
REMARK    1  A    between atoms: C_5  and  C_8
REMARK    2  A    between atoms: N_10  and  C_11
REMARK    3  A    between atoms: C_21  and  C_23
REMARK                            x       y       z     vdW  Elec       q    Type
REMARK                         _______ _______ _______ _____ _____    ______ ____
ROOT
ATOM     11  C   UNL     1      -3.101   0.859  24.188  0.00  0.00    +0.130 A 
ATOM     12  C   UNL     1      -2.859   0.131  23.882  0.00  0.00    +0.023 A 
ATOM     13  C   UNL     1      -2.056  -0.039  23.808  0.00  0.00    +0.014 A 
ATOM     14  C   UNL     1      -1.493   0.518  24.039  0.00  0.00    +0.041 A 
ATOM     15  C   UNL     1      -0.583   0.637  24.085  0.00  0.00    +0.058 C 
ATOM     16  C   UNL     1       0.022   0.310  23.946  0.00  0.00    +0.011 C 
ATOM     17  C   UNL     1      -0.219   1.027  24.247  0.00  0.00    +0.043 C 
ATOM     18  C   UNL     1      -0.310   1.934  24.628  0.00  0.00    +0.096 C 
ATOM     19  N   UNL     1      -1.143   1.992  24.655  0.00  0.00    -0.276 N 
ATOM     20  C   UNL     1      -0.654   1.515  24.454  0.00  0.00    +0.099 C 
ATOM     21  C   UNL     1      -1.888   2.319  24.795  0.00  0.00    +0.249 C 
ATOM     22  O   UNL     1      -2.569   1.887  24.617  0.00  0.00    -0.270 OA
ATOM     29  C   UNL     1      -1.172   0.912  24.203  0.00  0.00    +0.110 C 
ATOM     30  N   UNL     1      -1.735   1.245  24.345  0.00  0.00    -0.298 N 
ATOM     31  C   UNL     1      -2.538   1.416  24.419  0.00  0.00    +0.276 A 
ATOM     32  O   UNL     1      -3.011   2.038  24.682  0.00  0.00    -0.266 OA
ENDROOT
BRANCH  21  23
ATOM     23  C   UNL     1      -1.952   3.077  25.113  0.00  0.00    +0.054 A 
ATOM     24  C   UNL     1      -2.063   3.176  25.924  0.00  0.00    +0.005 A 
ATOM     25  C   UNL     1      -2.127   3.935  26.243  0.00  0.00    +0.000 A 
ATOM     26  C   UNL     1      -2.081   4.594  25.749  0.00  0.00    +0.000 A 
ATOM     27  C   UNL     1      -1.971   4.496  24.938  0.00  0.00    +0.000 A 
ATOM     28  C   UNL     1      -1.906   3.737  24.619  0.00  0.00    +0.005 A 
ENDBRANCH  21  23
BRANCH  11  10
ATOM      8  C   UNL     1      -4.422   0.454  24.550  0.00  0.00    +0.269 C 
ATOM      9  O   UNL     1      -5.227   0.624  24.624  0.00  0.00    -0.268 OA
ATOM     10  N   UNL     1      -3.904   1.028  24.262  0.00  0.00    -0.171 NA
BRANCH   8   5
ATOM      1  F   UNL     1      -3.280  -2.520  25.406  0.00  0.00    -0.204 F 
ATOM      2  C   UNL     1      -3.565  -1.776  25.192  0.00  0.00    +0.140 A 
ATOM      3  C   UNL     1      -3.822  -1.640  24.419  0.00  0.00    +0.030 A 
ATOM      4  C   UNL     1      -4.107  -0.896  24.205  0.00  0.00    +0.007 A 
ATOM      5  C   UNL     1      -4.137  -0.290  24.764  0.00  0.00    +0.056 A 
ATOM      6  C   UNL     1      -3.880  -0.426  25.536  0.00  0.00    +0.007 A 
ATOM      7  C   UNL     1      -3.595  -1.170  25.750  0.00  0.00    +0.030 A 
ENDBRANCH   8   5
ENDBRANCH  11  10
TORSDOF 3
ENDMDL
