MODEL 1
REMARK VINA RESULT:     -14.2      0.000      0.000
REMARK  Name = 
REMARK  5 active torsions:
REMARK  status: ('A' for Active; 'I' for Inactive)
REMARK    1  A    between atoms: C_5  and  S_8
REMARK    2  A    between atoms: S_8  and  N_11
REMARK    3  A    between atoms: C_16  and  C_17
REMARK    4  A    between atoms: N_19  and  C_20
REMARK    5  A    between atoms: C_27  and  C_29
REMARK                            x       y       z     vdW  Elec       q    Type
REMARK                         _______ _______ _______ _____ _____    ______ ____
ROOT
ATOM     11  N   UNL     1      -4.249   0.477  24.925  0.00  0.00    -0.145 NA
ATOM     12  C   UNL     1      -4.976   0.733  25.219  0.00  0.00    +0.118 C 
ATOM     13  C   UNL     1      -5.101   1.535  25.366  0.00  0.00    +0.113 C 
ATOM     14  N   UNL     1      -4.500   2.081  25.218  0.00  0.00    -0.273 N 
ATOM     15  C   UNL     1      -3.774   1.824  24.924  0.00  0.00    +0.121 C 
ATOM     16  C   UNL     1      -3.648   1.022  24.777  0.00  0.00    +0.177 C 
ATOM     27  C   UNL     1      -4.626   2.882  25.364  0.00  0.00    +0.249 C 
ATOM     28  O   UNL     1      -5.353   3.139  25.659  0.00  0.00    -0.270 OA
ENDROOT
BRANCH  27  29
ATOM     29  C   UNL     1      -4.025   3.428  25.217  0.00  0.00    +0.056 A 
ATOM     30  C   UNL     1      -3.931   3.744  24.461  0.00  0.00    +0.005 A 
ATOM     31  C   UNL     1      -3.330   4.290  24.314  0.00  0.00    +0.002 A 
ATOM     32  C   UNL     1      -2.823   4.520  24.923  0.00  0.00    +0.030 A 
ATOM     33  C   UNL     1      -2.918   4.204  25.679  0.00  0.00    +0.140 A 
ATOM     34  F   UNL     1      -2.411   4.434  26.289  0.00  0.00    -0.204 F 
ATOM     35  C   UNL     1      -3.518   3.658  25.827  0.00  0.00    +0.034 A 
ENDBRANCH  27  29
BRANCH  11   8
ATOM      8  S   UNL     1      -4.123  -0.326  24.778  0.00  0.00    +0.064 S 
ATOM      9  O   UNL     1      -4.295  -0.207  23.980  0.00  0.00    -0.153 OA
ATOM     10  O   UNL     1      -3.951  -0.445  25.576  0.00  0.00    -0.153 OA
BRANCH   8   5
ATOM      1  F   UNL     1      -3.620  -3.535  24.192  0.00  0.00    -0.204 F 
ATOM      2  C   UNL     1      -3.746  -2.731  24.338  0.00  0.00    +0.140 A 
ATOM      3  C   UNL     1      -3.548  -2.411  25.073  0.00  0.00    +0.031 A 
ATOM      4  C   UNL     1      -3.674  -1.609  25.219  0.00  0.00    +0.022 A 
ATOM      5  C   UNL     1      -3.997  -1.128  24.631  0.00  0.00    +0.122 A 
ATOM      6  C   UNL     1      -4.195  -1.449  23.898  0.00  0.00    +0.022 A 
ATOM      7  C   UNL     1      -4.069  -2.251  23.752  0.00  0.00    +0.031 A 
ENDBRANCH   8   5
ENDBRANCH  11   8
BRANCH  16  17
ATOM     17  C   UNL     1      -2.921   0.766  24.482  0.00  0.00    +0.260 C 
ATOM     18  O   UNL     1      -2.881   0.401  23.742  0.00  0.00    -0.272 OA
ATOM     19  N   UNL     1      -2.235   0.874  24.926  0.00  0.00    -0.197 NA
BRANCH  19  20
ATOM     20  C   UNL     1      -1.507   0.618  24.631  0.00  0.00    +0.173 C 
ATOM     21  C   UNL     1      -1.350   0.663  23.823  0.00  0.00    +0.033 C 
ATOM     22  C   UNL     1      -0.624   0.408  23.530  0.00  0.00    +0.026 C 
ATOM     23  C   UNL     1      -0.053   0.105  24.045  0.00  0.00    +0.115 C 
ATOM     24  N   UNL     1      -0.211   0.060  24.853  0.00  0.00    -0.204 NA
ATOM     25  C   UNL     1      -0.937   0.316  25.147  0.00  0.00    +0.261 C 
ATOM     26  O   UNL     1      -1.095   0.270  25.955  0.00  0.00    -0.271 OA
ENDBRANCH  19  20
ENDBRANCH  16  17
TORSDOF 5
ENDMDL
MODEL 2
REMARK VINA RESULT:     -12.9      1.703      5.263
REMARK  Name = 
REMARK  5 active torsions:
REMARK  status: ('A' for Active; 'I' for Inactive)
REMARK    1  A    between atoms: C_5  and  S_8
REMARK    2  A    between atoms: S_8  and  N_11
REMARK    3  A    between atoms: C_16  and  C_17
REMARK    4  A    between atoms: N_19  and  C_20
REMARK    5  A    between atoms: C_27  and  C_29
REMARK                            x       y       z     vdW  Elec       q    Type
REMARK                         _______ _______ _______ _____ _____    ______ ____
ROOT
ATOM     11  N   UNL     1      -1.207   1.195  24.766  0.00  0.00    -0.145 NA
ATOM     12  C   UNL     1      -0.579   0.677  24.630  0.00  0.00    +0.118 C 
ATOM     13  C   UNL     1      -0.719  -0.135  24.584  0.00  0.00    +0.113 C 
ATOM     14  N   UNL     1      -1.485  -0.428  24.674  0.00  0.00    -0.273 N 
ATOM     15  C   UNL     1      -2.111   0.091  24.811  0.00  0.00    +0.121 C 
ATOM     16  C   UNL     1      -1.972   0.903  24.857  0.00  0.00    +0.177 C 
ATOM     27  C   UNL     1      -1.624  -1.239  24.628  0.00  0.00    +0.249 C 
ATOM     28  O   UNL     1      -0.997  -1.759  24.491  0.00  0.00    -0.270 OA
ENDROOT
BRANCH  27  29
ATOM     29  C   UNL     1      -2.390  -1.533  24.718  0.00  0.00    +0.056 A 
ATOM     30  C   UNL     1      -2.678  -1.711  25.470  0.00  0.00    +0.005 A 
ATOM     31  C   UNL     1      -3.444  -2.005  25.559  0.00  0.00    +0.002 A 
ATOM     32  C   UNL     1      -3.921  -2.120  24.897  0.00  0.00    +0.030 A 
ATOM     33  C   UNL     1      -3.633  -1.941  24.145  0.00  0.00    +0.140 A 
ATOM     34  F   UNL     1      -4.112  -2.056  23.482  0.00  0.00    -0.204 F 
ATOM     35  C   UNL     1      -2.868  -1.648  24.055  0.00  0.00    +0.034 A 
ENDBRANCH  27  29
BRANCH  11   8
ATOM      8  S   UNL     1      -1.067   2.008  24.813  0.00  0.00    +0.064 S 
ATOM      9  O   UNL     1      -1.041   1.957  25.636  0.00  0.00    -0.153 OA
ATOM     10  O   UNL     1      -1.094   2.059  23.990  0.00  0.00    -0.153 OA
BRANCH   8   5
ATOM      1  F   UNL     1      -0.510   5.256  24.997  0.00  0.00    -0.204 F 
ATOM      2  C   UNL     1      -0.650   4.443  24.951  0.00  0.00    +0.140 A 
ATOM      3  C   UNL     1      -0.660   4.068  24.216  0.00  0.00    +0.031 A 
ATOM      4  C   UNL     1      -0.800   3.256  24.170  0.00  0.00    +0.022 A 
ATOM      5  C   UNL     1      -0.928   2.820  24.859  0.00  0.00    +0.122 A 
ATOM      6  C   UNL     1      -0.917   3.195  25.593  0.00  0.00    +0.022 A 
ATOM      7  C   UNL     1      -0.778   4.007  25.639  0.00  0.00    +0.031 A 
ENDBRANCH   8   5
ENDBRANCH  11   8
BRANCH  16  17
ATOM     17  C   UNL     1      -2.599   1.421  24.993  0.00  0.00    +0.260 C 
ATOM     18  O   UNL     1      -2.619   1.871  25.686  0.00  0.00    -0.272 OA
ATOM     19  N   UNL     1      -3.206   1.491  24.439  0.00  0.00    -0.197 NA
BRANCH  19  20
ATOM     20  C   UNL     1      -3.833   2.009  24.576  0.00  0.00    +0.173 C 
ATOM     21  C   UNL     1      -4.144   2.090  25.335  0.00  0.00    +0.033 C 
ATOM     22  C   UNL     1      -4.771   2.608  25.471  0.00  0.00    +0.026 C 
ATOM     23  C   UNL     1      -5.087   3.047  24.846  0.00  0.00    +0.115 C 
ATOM     24  N   UNL     1      -4.776   2.966  24.087  0.00  0.00    -0.204 NA
ATOM     25  C   UNL     1      -4.149   2.448  23.951  0.00  0.00    +0.261 C 
ATOM     26  O   UNL     1      -3.837   2.367  23.192  0.00  0.00    -0.271 OA
ENDBRANCH  19  20
ENDBRANCH  16  17
TORSDOF 5
ENDMDL
MODEL 3
REMARK VINA RESULT:     -12.5      1.639      3.200
REMARK  Name = 
REMARK  5 active torsions:
REMARK  status: ('A' for Active; 'I' for Inactive)
REMARK    1  A    between atoms: C_5  and  S_8
REMARK    2  A    between atoms: S_8  and  N_11
REMARK    3  A    between atoms: C_16  and  C_17
REMARK    4  A    between atoms: N_19  and  C_20
REMARK    5  A    between atoms: C_27  and  C_29
REMARK                            x       y       z     vdW  Elec       q    Type
REMARK                         _______ _______ _______ _____ _____    ______ ____
ROOT
ATOM     11  N   UNL     1      -2.341   1.554  24.670  0.00  0.00    -0.145 NA
ATOM     12  C   UNL     1      -2.235   2.349  24.861  0.00  0.00    +0.118 C 
ATOM     13  C   UNL     1      -2.884   2.810  25.080  0.00  0.00    +0.113 C 
ATOM     14  N   UNL     1      -3.638   2.474  25.108  0.00  0.00    -0.273 N 
ATOM     15  C   UNL     1      -3.742   1.678  24.917  0.00  0.00    +0.121 C 
ATOM     16  C   UNL     1      -3.093   1.218  24.697  0.00  0.00    +0.177 C 
ATOM     27  C   UNL     1      -4.286   2.934  25.327  0.00  0.00    +0.249 C 
ATOM     28  O   UNL     1      -4.181   3.730  25.518  0.00  0.00    -0.270 OA
ENDROOT
BRANCH  27  29
ATOM     29  C   UNL     1      -5.039   2.599  25.355  0.00  0.00    +0.056 A 
ATOM     30  C   UNL     1      -5.471   2.494  24.659  0.00  0.00    +0.005 A 
ATOM     31  C   UNL     1      -6.224   2.158  24.689  0.00  0.00    +0.002 A 
ATOM     32  C   UNL     1      -6.546   1.929  25.412  0.00  0.00    +0.030 A 
ATOM     33  C   UNL     1      -6.115   2.034  26.108  0.00  0.00    +0.140 A 
ATOM     34  F   UNL     1      -6.437   1.805  26.832  0.00  0.00    -0.204 F 
ATOM     35  C   UNL     1      -5.361   2.369  26.079  0.00  0.00    +0.034 A 
ENDBRANCH  27  29
BRANCH  11   8
ATOM      8  S   UNL     1      -1.691   1.093  24.450  0.00  0.00    +0.064 S 
ATOM      9  O   UNL     1      -1.516   0.961  25.246  0.00  0.00    -0.153 OA
ATOM     10  O   UNL     1      -1.866   1.225  23.655  0.00  0.00    -0.153 OA
BRANCH   8   5
ATOM      1  F   UNL     1       0.904  -0.748  23.574  0.00  0.00    -0.204 F 
ATOM      2  C   UNL     1       0.254  -0.287  23.793  0.00  0.00    +0.140 A 
ATOM      3  C   UNL     1      -0.014  -0.299  24.573  0.00  0.00    +0.031 A 
ATOM      4  C   UNL     1      -0.663   0.161  24.792  0.00  0.00    +0.022 A 
ATOM      5  C   UNL     1      -1.042   0.633  24.231  0.00  0.00    +0.122 A 
ATOM      6  C   UNL     1      -0.773   0.644  23.452  0.00  0.00    +0.022 A 
ATOM      7  C   UNL     1      -0.125   0.184  23.233  0.00  0.00    +0.031 A 
ENDBRANCH   8   5
ENDBRANCH  11   8
BRANCH  16  17
ATOM     17  C   UNL     1      -3.198   0.422  24.506  0.00  0.00    +0.260 C 
ATOM     18  O   UNL     1      -3.008   0.152  23.749  0.00  0.00    -0.272 OA
ATOM     19  N   UNL     1      -3.493  -0.102  25.070  0.00  0.00    -0.197 NA
BRANCH  19  20
ATOM     20  C   UNL     1      -3.598  -0.898  24.879  0.00  0.00    +0.173 C 
ATOM     21  C   UNL     1      -3.818  -1.113  24.114  0.00  0.00    +0.033 C 
ATOM     22  C   UNL     1      -3.923  -1.909  23.923  0.00  0.00    +0.026 C 
ATOM     23  C   UNL     1      -3.808  -2.490  24.499  0.00  0.00    +0.115 C 
ATOM     24  N   UNL     1      -3.588  -2.274  25.264  0.00  0.00    -0.204 NA
ATOM     25  C   UNL     1      -3.483  -1.479  25.454  0.00  0.00    +0.261 C 
ATOM     26  O   UNL     1      -3.263  -1.263  26.220  0.00  0.00    -0.271 OA
ENDBRANCH  19  20
ENDBRANCH  16  17
TORSDOF 5
ENDMDL
MODEL 4
REMARK VINA RESULT:     -12.0      1.463      3.197
REMARK  Name = 
REMARK  5 active torsions:
REMARK  status: ('A' for Active; 'I' for Inactive)
REMARK    1  A    between atoms: C_5  and  S_8
REMARK    2  A    between atoms: S_8  and  N_11
REMARK    3  A    between atoms: C_16  and  C_17
REMARK    4  A    between atoms: N_19  and  C_20
REMARK    5  A    between atoms: C_27  and  C_29
REMARK                            x       y       z     vdW  Elec       q    Type
REMARK                         _______ _______ _______ _____ _____    ______ ____
ROOT
ATOM     11  N   UNL     1      -1.936   0.139  24.590  0.00  0.00    -0.145 NA
ATOM     12  C   UNL     1      -1.136   0.011  24.434  0.00  0.00    +0.118 C 
ATOM     13  C   UNL     1      -0.594   0.624  24.532  0.00  0.00    +0.113 C 
ATOM     14  N   UNL     1      -0.851   1.367  24.785  0.00  0.00    -0.273 N 
ATOM     15  C   UNL     1      -1.651   1.494  24.941  0.00  0.00    +0.121 C 
ATOM     16  C   UNL     1      -2.193   0.881  24.843  0.00  0.00    +0.177 C 
ATOM     27  C   UNL     1      -0.309   1.980  24.882  0.00  0.00    +0.249 C 
ATOM     28  O   UNL     1       0.492   1.852  24.726  0.00  0.00    -0.270 OA
ENDROOT
BRANCH  27  29
ATOM     29  C   UNL     1      -0.565   2.722  25.136  0.00  0.00    +0.056 A 
ATOM     30  C   UNL     1      -0.718   2.855  25.935  0.00  0.00    +0.005 A 
ATOM     31  C   UNL     1      -0.975   3.598  26.187  0.00  0.00    +0.002 A 
ATOM     32  C   UNL     1      -1.078   4.206  25.641  0.00  0.00    +0.030 A 
ATOM     33  C   UNL     1      -0.926   4.073  24.841  0.00  0.00    +0.140 A 
ATOM     34  F   UNL     1      -1.030   4.682  24.294  0.00  0.00    -0.204 F 
ATOM     35  C   UNL     1      -0.669   3.331  24.588  0.00  0.00    +0.034 A 
ENDBRANCH  27  29
BRANCH  11   8
ATOM      8  S   UNL     1      -2.480  -0.475  24.493  0.00  0.00    +0.064 S 
ATOM      9  O   UNL     1      -2.583  -0.259  23.703  0.00  0.00    -0.153 OA
ATOM     10  O   UNL     1      -2.377  -0.691  25.282  0.00  0.00    -0.153 OA
BRANCH   8   5
ATOM      1  F   UNL     1      -4.651  -2.930  24.103  0.00  0.00    -0.204 F 
ATOM      2  C   UNL     1      -4.107  -2.315  24.200  0.00  0.00    +0.140 A 
ATOM      3  C   UNL     1      -3.634  -2.287  24.876  0.00  0.00    +0.031 A 
ATOM      4  C   UNL     1      -3.092  -1.673  24.974  0.00  0.00    +0.022 A 
ATOM      5  C   UNL     1      -3.022  -1.089  24.395  0.00  0.00    +0.122 A 
ATOM      6  C   UNL     1      -3.495  -1.117  23.720  0.00  0.00    +0.022 A 
ATOM      7  C   UNL     1      -4.038  -1.731  23.623  0.00  0.00    +0.031 A 
ENDBRANCH   8   5
ENDBRANCH  11   8
BRANCH  16  17
ATOM     17  C   UNL     1      -2.993   1.009  24.999  0.00  0.00    +0.260 C 
ATOM     18  O   UNL     1      -3.390   0.531  25.544  0.00  0.00    -0.272 OA
ATOM     19  N   UNL     1      -3.397   1.615  24.612  0.00  0.00    -0.197 NA
BRANCH  19  20
ATOM     20  C   UNL     1      -4.197   1.744  24.769  0.00  0.00    +0.173 C 
ATOM     21  C   UNL     1      -4.540   1.433  25.450  0.00  0.00    +0.033 C 
ATOM     22  C   UNL     1      -5.340   1.562  25.606  0.00  0.00    +0.026 C 
ATOM     23  C   UNL     1      -5.797   2.003  25.078  0.00  0.00    +0.115 C 
ATOM     24  N   UNL     1      -5.454   2.314  24.396  0.00  0.00    -0.204 NA
ATOM     25  C   UNL     1      -4.655   2.185  24.241  0.00  0.00    +0.261 C 
ATOM     26  O   UNL     1      -4.311   2.497  23.558  0.00  0.00    -0.271 OA
ENDBRANCH  19  20
ENDBRANCH  16  17
TORSDOF 5
ENDMDL
MODEL 5
REMARK VINA RESULT:     -12.0      1.445      4.377
REMARK  Name = 
REMARK  5 active torsions:
REMARK  status: ('A' for Active; 'I' for Inactive)
REMARK    1  A    between atoms: C_5  and  S_8
REMARK    2  A    between atoms: S_8  and  N_11
REMARK    3  A    between atoms: C_16  and  C_17
REMARK    4  A    between atoms: N_19  and  C_20
REMARK    5  A    between atoms: C_27  and  C_29
REMARK                            x       y       z     vdW  Elec       q    Type
REMARK                         _______ _______ _______ _____ _____    ______ ____
ROOT
ATOM     11  N   UNL     1      -3.393   2.526  25.012  0.00  0.00    -0.145 NA
ATOM     12  C   UNL     1      -4.183   2.523  25.248  0.00  0.00    +0.118 C 
ATOM     13  C   UNL     1      -4.611   1.817  25.246  0.00  0.00    +0.113 C 
ATOM     14  N   UNL     1      -4.248   1.115  25.008  0.00  0.00    -0.273 N 
ATOM     15  C   UNL     1      -3.457   1.120  24.772  0.00  0.00    +0.121 C 
ATOM     16  C   UNL     1      -3.030   1.825  24.774  0.00  0.00    +0.177 C 
ATOM     27  C   UNL     1      -4.675   0.410  25.005  0.00  0.00    +0.249 C 
ATOM     28  O   UNL     1      -5.466   0.406  25.241  0.00  0.00    -0.270 OA
ENDROOT
BRANCH  27  29
ATOM     29  C   UNL     1      -4.312  -0.292  24.767  0.00  0.00    +0.056 A 
ATOM     30  C   UNL     1      -4.301  -0.501  23.969  0.00  0.00    +0.005 A 
ATOM     31  C   UNL     1      -3.938  -1.203  23.732  0.00  0.00    +0.002 A 
ATOM     32  C   UNL     1      -3.587  -1.696  24.292  0.00  0.00    +0.030 A 
ATOM     33  C   UNL     1      -3.598  -1.486  25.090  0.00  0.00    +0.140 A 
ATOM     34  F   UNL     1      -3.246  -1.980  25.651  0.00  0.00    -0.204 F 
ATOM     35  C   UNL     1      -3.960  -0.785  25.328  0.00  0.00    +0.034 A 
ENDBRANCH  27  29
BRANCH  11   8
ATOM      8  S   UNL     1      -2.965   3.232  25.015  0.00  0.00    +0.064 S 
ATOM      9  O   UNL     1      -3.112   3.324  24.208  0.00  0.00    -0.153 OA
ATOM     10  O   UNL     1      -2.817   3.141  25.821  0.00  0.00    -0.153 OA
BRANCH   8   5
ATOM      1  F   UNL     1      -1.255   6.055  25.024  0.00  0.00    -0.204 F 
ATOM      2  C   UNL     1      -1.683   5.349  25.022  0.00  0.00    +0.140 A 
ATOM      3  C   UNL     1      -1.789   4.929  25.724  0.00  0.00    +0.031 A 
ATOM      4  C   UNL     1      -2.217   4.223  25.722  0.00  0.00    +0.022 A 
ATOM      5  C   UNL     1      -2.537   3.938  25.017  0.00  0.00    +0.122 A 
ATOM      6  C   UNL     1      -2.431   4.358  24.315  0.00  0.00    +0.022 A 
ATOM      7  C   UNL     1      -2.003   5.063  24.318  0.00  0.00    +0.031 A 
ENDBRANCH   8   5
ENDBRANCH  11   8
BRANCH  16  17
ATOM     17  C   UNL     1      -2.239   1.829  24.538  0.00  0.00    +0.260 C 
ATOM     18  O   UNL     1      -2.016   2.227  23.850  0.00  0.00    -0.272 OA
ATOM     19  N   UNL     1      -1.672   1.435  24.989  0.00  0.00    -0.197 NA
BRANCH  19  20
ATOM     20  C   UNL     1      -0.881   1.439  24.753  0.00  0.00    +0.173 C 
ATOM     21  C   UNL     1      -0.689   1.388  23.953  0.00  0.00    +0.033 C 
ATOM     22  C   UNL     1       0.101   1.392  23.717  0.00  0.00    +0.026 C 
ATOM     23  C   UNL     1       0.700   1.446  24.283  0.00  0.00    +0.115 C 
ATOM     24  N   UNL     1       0.508   1.496  25.083  0.00  0.00    -0.204 NA
ATOM     25  C   UNL     1      -0.282   1.493  25.319  0.00  0.00    +0.261 C 
ATOM     26  O   UNL     1      -0.475   1.543  26.119  0.00  0.00    -0.271 OA
ENDBRANCH  19  20
ENDBRANCH  16  17
TORSDOF 5
ENDMDL
MODEL 6
REMARK VINA RESULT:     -11.4      1.405      4.482
REMARK  Name = 
REMARK  5 active torsions:
REMARK  status: ('A' for Active; 'I' for Inactive)
REMARK    1  A    between atoms: C_5  and  S_8
REMARK    2  A    between atoms: S_8  and  N_11
REMARK    3  A    between atoms: C_16  and  C_17
REMARK    4  A    between atoms: N_19  and  C_20
REMARK    5  A    between atoms: C_27  and  C_29
REMARK                            x       y       z     vdW  Elec       q    Type
REMARK                         _______ _______ _______ _____ _____    ______ ____
ROOT
ATOM     11  N   UNL     1      -3.926   0.841  24.390  0.00  0.00    -0.145 NA
ATOM     12  C   UNL     1      -4.592   0.422  24.143  0.00  0.00    +0.118 C 
ATOM     13  C   UNL     1      -4.580  -0.403  24.135  0.00  0.00    +0.113 C 
ATOM     14  N   UNL     1      -3.901  -0.808  24.374  0.00  0.00    -0.273 N 
ATOM     15  C   UNL     1      -3.236  -0.388  24.621  0.00  0.00    +0.121 C 
ATOM     16  C   UNL     1      -3.249   0.437  24.629  0.00  0.00    +0.177 C 
ATOM     27  C   UNL     1      -3.889  -1.632  24.366  0.00  0.00    +0.249 C 
ATOM     28  O   UNL     1      -4.555  -2.053  24.118  0.00  0.00    -0.270 OA
ENDROOT
BRANCH  27  29
ATOM     29  C   UNL     1      -3.212  -2.037  24.605  0.00  0.00    +0.056 A 
ATOM     30  C   UNL     1      -3.103  -2.228  25.400  0.00  0.00    +0.005 A 
ATOM     31  C   UNL     1      -2.425  -2.633  25.638  0.00  0.00    +0.002 A 
ATOM     32  C   UNL     1      -1.856  -2.848  25.082  0.00  0.00    +0.030 A 
ATOM     33  C   UNL     1      -1.964  -2.658  24.287  0.00  0.00    +0.140 A 
ATOM     34  F   UNL     1      -1.394  -2.873  23.729  0.00  0.00    -0.204 F 
ATOM     35  C   UNL     1      -2.642  -2.252  24.048  0.00  0.00    +0.034 A 
ENDBRANCH  27  29
BRANCH  11   8
ATOM      8  S   UNL     1      -3.938   1.667  24.398  0.00  0.00    +0.064 S 
ATOM      9  O   UNL     1      -4.164   1.656  25.192  0.00  0.00    -0.153 OA
ATOM     10  O   UNL     1      -3.713   1.678  23.605  0.00  0.00    -0.153 OA
BRANCH   8   5
ATOM      1  F   UNL     1      -3.988   4.967  24.430  0.00  0.00    -0.204 F 
ATOM      2  C   UNL     1      -3.975   4.141  24.422  0.00  0.00    +0.140 A 
ATOM      3  C   UNL     1      -3.769   3.739  23.732  0.00  0.00    +0.031 A 
ATOM      4  C   UNL     1      -3.756   2.914  23.724  0.00  0.00    +0.022 A 
ATOM      5  C   UNL     1      -3.951   2.492  24.406  0.00  0.00    +0.122 A 
ATOM      6  C   UNL     1      -4.158   2.894  25.095  0.00  0.00    +0.022 A 
ATOM      7  C   UNL     1      -4.170   3.719  25.104  0.00  0.00    +0.031 A 
ENDBRANCH   8   5
ENDBRANCH  11   8
BRANCH  16  17
ATOM     17  C   UNL     1      -2.583   0.857  24.877  0.00  0.00    +0.260 C 
ATOM     18  O   UNL     1      -2.627   1.348  25.539  0.00  0.00    -0.272 OA
ATOM     19  N   UNL     1      -1.873   0.786  24.463  0.00  0.00    -0.197 NA
BRANCH  19  20
ATOM     20  C   UNL     1      -1.207   1.206  24.711  0.00  0.00    +0.173 C 
ATOM     21  C   UNL     1      -1.111   1.396  25.507  0.00  0.00    +0.033 C 
ATOM     22  C   UNL     1      -0.445   1.815  25.754  0.00  0.00    +0.026 C 
ATOM     23  C   UNL     1       0.126   2.045  25.203  0.00  0.00    +0.115 C 
ATOM     24  N   UNL     1       0.030   1.855  24.407  0.00  0.00    -0.204 NA
ATOM     25  C   UNL     1      -0.636   1.435  24.160  0.00  0.00    +0.261 C 
ATOM     26  O   UNL     1      -0.732   1.245  23.363  0.00  0.00    -0.271 OA
ENDBRANCH  19  20
ENDBRANCH  16  17
TORSDOF 5
ENDMDL
