MODEL 1
REMARK VINA RESULT:      -8.4      0.000      0.000
REMARK  Name = 
REMARK  8 active torsions:
REMARK  status: ('A' for Active; 'I' for Inactive)
REMARK    1  A    between atoms: N_3  and  C_4
REMARK    2  A    between atoms: C_8  and  N_12
REMARK    3  A    between atoms: C_16  and  O_17
REMARK    4  A    between atoms: O_17  and  C_18
REMARK    5  A    between atoms: C_21  and  N_24
REMARK    6  A    between atoms: N_29  and  C_30
REMARK    7  A    between atoms: C_33  and  O_34
REMARK    8  A    between atoms: O_34  and  C_35
REMARK                            x       y       z     vdW  Elec       q    Type
REMARK                         _______ _______ _______ _____ _____    ______ ____
ROOT
ATOM      4  C   UNL     1      -5.497  -9.617  10.601  0.00  0.00    +0.156 C 
ATOM      5  C   UNL     1      -5.299  -8.951  11.045  0.00  0.00    +0.166 C 
ATOM      6  O   UNL     1      -4.479  -8.941  11.136  0.00  0.00    -0.350 OA
ATOM      7  C   UNL     1      -4.171  -9.600  10.749  0.00  0.00    +0.169 C 
ATOM      8  C   UNL     1      -3.474 -10.002  10.566  0.00  0.00    +0.170 C 
ATOM      9  C   UNL     1      -3.672 -10.668  10.122  0.00  0.00    +0.169 C 
ATOM     10  O   UNL     1      -4.491 -10.679  10.031  0.00  0.00    -0.350 OA
ATOM     11  C   UNL     1      -4.800 -10.018  10.418  0.00  0.00    +0.167 C 
ENDROOT
BRANCH   8  12
ATOM     12  N   UNL     1      -2.712  -9.776  10.789  0.00  0.00    -0.180 N 
ATOM     13  N   UNL     1      -2.275  -9.155  10.465  0.00  0.00    -0.040 NA
ATOM     14  N   UNL     1      -1.547  -9.128  10.850  0.00  0.00    -0.020 NA
ATOM     15  N   UNL     1      -1.532  -9.731  11.412  0.00  0.00    -0.071 NA
ATOM     16  C   UNL     1      -2.252 -10.132  11.374  0.00  0.00    +0.343 A 
BRANCH  16  17
ATOM     17  O   UNL     1      -2.474 -10.776  11.840  0.00  0.00    -0.421 OA
BRANCH  17  18
ATOM     18  C   UNL     1      -2.361 -10.752  12.657  0.00  0.00    +0.149 A 
ATOM     19  C   UNL     1      -3.011 -10.712  13.163  0.00  0.00    +0.039 A 
ATOM     20  C   UNL     1      -2.898 -10.688  13.979  0.00  0.00    +0.022 A 
ATOM     21  C   UNL     1      -2.134 -10.704  14.291  0.00  0.00    +0.085 A 
ATOM     22  C   UNL     1      -1.483 -10.745  13.785  0.00  0.00    +0.022 A 
ATOM     23  C   UNL     1      -1.597 -10.769  12.968  0.00  0.00    +0.039 A 
BRANCH  21  24
ATOM     24  N   UNL     1      -2.020 -10.681  15.108  0.00  0.00    -0.208 N 
ATOM     25  C   UNL     1      -2.611 -10.595  15.676  0.00  0.00    +0.202 A 
ATOM     26  N   UNL     1      -2.253 -10.600  16.420  0.00  0.00    -0.200 NA
ATOM     27  C   UNL     1      -1.440 -10.688  16.309  0.00  0.00    +0.221 A 
ATOM     28  N   UNL     1      -1.296 -10.738  15.498  0.00  0.00    -0.141 NA
ENDBRANCH  21  24
ENDBRANCH  17  18
ENDBRANCH  16  17
ENDBRANCH   8  12
BRANCH   4   3
ATOM      1  O   UNL     1      -6.478  -8.547   9.818  0.00  0.00    -0.249 OA
ATOM      2  C   UNL     1      -6.750  -9.308   9.987  0.00  0.00    +0.344 C 
ATOM      3  N   UNL     1      -6.259  -9.843  10.378  0.00  0.00    -0.184 NA
ATOM     29  N   UNL     1      -7.511  -9.533   9.765  0.00  0.00    -0.161 NA
BRANCH  29  30
ATOM     30  C   UNL     1      -8.003  -8.998   9.373  0.00  0.00    +0.075 A 
ATOM     31  C   UNL     1      -7.831  -8.769   8.600  0.00  0.00    +0.020 A 
ATOM     32  C   UNL     1      -8.322  -8.234   8.209  0.00  0.00    +0.039 A 
ATOM     33  C   UNL     1      -8.986  -7.928   8.591  0.00  0.00    +0.145 A 
ATOM     41  C   UNL     1      -9.158  -8.158   9.365  0.00  0.00    +0.039 A 
ATOM     42  C   UNL     1      -8.667  -8.693   9.756  0.00  0.00    +0.020 A 
BRANCH  33  34
ATOM     34  O   UNL     1      -9.478  -7.393   8.201  0.00  0.00    -0.453 OA
BRANCH  34  35
ATOM     35  C   UNL     1      -9.421  -6.586   8.362  0.00  0.00    +0.145 A 
ATOM     36  C   UNL     1      -8.751  -6.165   8.128  0.00  0.00    +0.037 A 
ATOM     37  C   UNL     1      -8.694  -5.358   8.289  0.00  0.00    +0.003 A 
ATOM     38  C   UNL     1      -9.307  -4.972   8.685  0.00  0.00    +0.000 A 
ATOM     39  C   UNL     1      -9.977  -5.394   8.920  0.00  0.00    +0.003 A 
ATOM     40  C   UNL     1     -10.033  -6.201   8.758  0.00  0.00    +0.037 A 
ENDBRANCH  34  35
ENDBRANCH  33  34
ENDBRANCH  29  30
ENDBRANCH   4   3
TORSDOF 8
ENDMDL
MODEL 2
REMARK VINA RESULT:      -8.3      3.676      4.424
REMARK  Name = 
REMARK  8 active torsions:
REMARK  status: ('A' for Active; 'I' for Inactive)
REMARK    1  A    between atoms: N_3  and  C_4
REMARK    2  A    between atoms: C_8  and  N_12
REMARK    3  A    between atoms: C_16  and  O_17
REMARK    4  A    between atoms: O_17  and  C_18
REMARK    5  A    between atoms: C_21  and  N_24
REMARK    6  A    between atoms: N_29  and  C_30
REMARK    7  A    between atoms: C_33  and  O_34
REMARK    8  A    between atoms: O_34  and  C_35
REMARK                            x       y       z     vdW  Elec       q    Type
REMARK                         _______ _______ _______ _____ _____    ______ ____
ROOT
ATOM      4  C   UNL     1      -7.075  -9.599  11.871  0.00  0.00    +0.156 C 
ATOM      5  C   UNL     1      -6.764  -8.869  12.093  0.00  0.00    +0.166 C 
ATOM      6  O   UNL     1      -5.960  -8.869  11.911  0.00  0.00    -0.350 OA
ATOM      7  C   UNL     1      -5.773  -9.599  11.576  0.00  0.00    +0.169 C 
ATOM      8  C   UNL     1      -5.162 -10.051  11.256  0.00  0.00    +0.170 C 
ATOM      9  C   UNL     1      -5.473 -10.781  11.033  0.00  0.00    +0.169 C 
ATOM     10  O   UNL     1      -6.277 -10.781  11.215  0.00  0.00    -0.350 OA
ATOM     11  C   UNL     1      -6.463 -10.050  11.551  0.00  0.00    +0.167 C 
ENDROOT
BRANCH   8  12
ATOM     12  N   UNL     1      -4.376  -9.813  11.173  0.00  0.00    -0.180 N 
ATOM     13  N   UNL     1      -4.096  -9.234  10.656  0.00  0.00    -0.040 NA
ATOM     14  N   UNL     1      -3.279  -9.176  10.756  0.00  0.00    -0.020 NA
ATOM     15  N   UNL     1      -3.055  -9.718  11.335  0.00  0.00    -0.071 NA
ATOM     16  C   UNL     1      -3.732 -10.112  11.593  0.00  0.00    +0.343 A 
BRANCH  16  17
ATOM     17  O   UNL     1      -3.761 -10.702  12.169  0.00  0.00    -0.421 OA
BRANCH  17  18
ATOM     18  C   UNL     1      -3.290 -10.642  12.845  0.00  0.00    +0.149 A 
ATOM     19  C   UNL     1      -2.469 -10.615  12.774  0.00  0.00    +0.039 A 
ATOM     20  C   UNL     1      -1.999 -10.555  13.449  0.00  0.00    +0.022 A 
ATOM     21  C   UNL     1      -2.350 -10.522  14.195  0.00  0.00    +0.085 A 
ATOM     22  C   UNL     1      -3.172 -10.548  14.266  0.00  0.00    +0.022 A 
ATOM     23  C   UNL     1      -3.642 -10.608  13.590  0.00  0.00    +0.039 A 
BRANCH  21  24
ATOM     24  N   UNL     1      -1.880 -10.462  14.871  0.00  0.00    -0.208 N 
ATOM     25  C   UNL     1      -1.142 -10.096  14.916  0.00  0.00    +0.202 A 
ATOM     26  N   UNL     1      -0.871 -10.164  15.693  0.00  0.00    -0.200 NA
ATOM     27  C   UNL     1      -1.442 -10.573  16.126  0.00  0.00    +0.221 A 
ATOM     28  N   UNL     1      -2.065 -10.757  15.618  0.00  0.00    -0.141 NA
ENDBRANCH  21  24
ENDBRANCH  17  18
ENDBRANCH  16  17
ENDBRANCH   8  12
BRANCH   4   3
ATOM      1  O   UNL     1      -7.847  -9.408  13.316  0.00  0.00    -0.249 OA
ATOM      2  C   UNL     1      -8.247  -9.742  12.676  0.00  0.00    +0.344 C 
ATOM      3  N   UNL     1      -7.861  -9.837  11.953  0.00  0.00    -0.184 NA
ATOM     29  N   UNL     1      -9.033  -9.979  12.759  0.00  0.00    -0.161 NA
BRANCH  29  30
ATOM     30  C   UNL     1      -9.419  -9.884  13.482  0.00  0.00    +0.075 A 
ATOM     31  C   UNL     1      -9.309 -10.435  14.085  0.00  0.00    +0.020 A 
ATOM     32  C   UNL     1      -9.695 -10.339  14.808  0.00  0.00    +0.039 A 
ATOM     33  C   UNL     1     -10.192  -9.692  14.927  0.00  0.00    +0.145 A 
ATOM     41  C   UNL     1     -10.303  -9.140  14.323  0.00  0.00    +0.039 A 
ATOM     42  C   UNL     1      -9.916  -9.236  13.601  0.00  0.00    +0.020 A 
BRANCH  33  34
ATOM     34  O   UNL     1     -10.579  -9.595  15.649  0.00  0.00    -0.453 OA
BRANCH  34  35
ATOM     35  C   UNL     1     -10.258  -9.101  16.227  0.00  0.00    +0.145 A 
ATOM     36  C   UNL     1      -9.680  -9.389  16.740  0.00  0.00    +0.037 A 
ATOM     37  C   UNL     1      -9.359  -8.894  17.318  0.00  0.00    +0.003 A 
ATOM     38  C   UNL     1      -9.617  -8.113  17.381  0.00  0.00    +0.000 A 
ATOM     39  C   UNL     1     -10.195  -7.825  16.868  0.00  0.00    +0.003 A 
ATOM     40  C   UNL     1     -10.516  -8.321  16.290  0.00  0.00    +0.037 A 
ENDBRANCH  34  35
ENDBRANCH  33  34
ENDBRANCH  29  30
ENDBRANCH   4   3
TORSDOF 8
ENDMDL
MODEL 3
REMARK VINA RESULT:      -8.0     15.638     18.787
REMARK  Name = 
REMARK  8 active torsions:
REMARK  status: ('A' for Active; 'I' for Inactive)
REMARK    1  A    between atoms: N_3  and  C_4
REMARK    2  A    between atoms: C_8  and  N_12
REMARK    3  A    between atoms: C_16  and  O_17
REMARK    4  A    between atoms: O_17  and  C_18
REMARK    5  A    between atoms: C_21  and  N_24
REMARK    6  A    between atoms: N_29  and  C_30
REMARK    7  A    between atoms: C_33  and  O_34
REMARK    8  A    between atoms: O_34  and  C_35
REMARK                            x       y       z     vdW  Elec       q    Type
REMARK                         _______ _______ _______ _____ _____    ______ ____
ROOT
ATOM      4  C   UNL     1      -0.093   1.863  24.242  0.00  0.00    +0.156 C 
ATOM      5  C   UNL     1      -0.489   2.160  23.582  0.00  0.00    +0.166 C 
ATOM      6  O   UNL     1      -0.728   2.930  23.753  0.00  0.00    -0.350 OA
ATOM      7  C   UNL     1      -0.481   3.110  24.518  0.00  0.00    +0.169 C 
ATOM      8  C   UNL     1      -0.474   3.697  25.098  0.00  0.00    +0.170 C 
ATOM      9  C   UNL     1      -0.078   3.401  25.758  0.00  0.00    +0.169 C 
ATOM     10  O   UNL     1       0.160   2.631  25.586  0.00  0.00    -0.350 OA
ATOM     11  C   UNL     1      -0.088   2.451  24.820  0.00  0.00    +0.167 C 
ENDROOT
BRANCH   8  12
ATOM     12  N   UNL     1      -0.807   4.450  25.029  0.00  0.00    -0.180 N 
ATOM     13  N   UNL     1      -0.562   5.043  24.509  0.00  0.00    -0.040 NA
ATOM     14  N   UNL     1      -1.046   5.700  24.627  0.00  0.00    -0.020 NA
ATOM     15  N   UNL     1      -1.589   5.514  25.218  0.00  0.00    -0.071 NA
ATOM     16  C   UNL     1      -1.441   4.741  25.467  0.00  0.00    +0.343 A 
BRANCH  16  17
ATOM     17  O   UNL     1      -1.856   4.332  26.051  0.00  0.00    -0.421 OA
BRANCH  17  18
ATOM     18  C   UNL     1      -2.639   4.104  25.920  0.00  0.00    +0.149 A 
ATOM     19  C   UNL     1      -3.086   4.483  25.340  0.00  0.00    +0.039 A 
ATOM     20  C   UNL     1      -3.868   4.256  25.208  0.00  0.00    +0.022 A 
ATOM     21  C   UNL     1      -4.202   3.648  25.656  0.00  0.00    +0.085 A 
ATOM     22  C   UNL     1      -3.754   3.269  26.237  0.00  0.00    +0.022 A 
ATOM     23  C   UNL     1      -2.972   3.498  26.368  0.00  0.00    +0.039 A 
BRANCH  21  24
ATOM     24  N   UNL     1      -4.984   3.420  25.525  0.00  0.00    -0.208 N 
ATOM     25  C   UNL     1      -5.229   2.741  25.126  0.00  0.00    +0.202 A 
ATOM     26  N   UNL     1      -6.055   2.731  25.123  0.00  0.00    -0.200 NA
ATOM     27  C   UNL     1      -6.318   3.403  25.522  0.00  0.00    +0.221 A 
ATOM     28  N   UNL     1      -5.656   3.829  25.770  0.00  0.00    -0.141 NA
ENDBRANCH  21  24
ENDBRANCH  17  18
ENDBRANCH  16  17
ENDBRANCH   8  12
BRANCH   4   3
ATOM      1  O   UNL     1      -1.070   0.538  24.356  0.00  0.00    -0.249 OA
ATOM      2  C   UNL     1      -0.249   0.448  24.368  0.00  0.00    +0.344 C 
ATOM      3  N   UNL     1       0.239   1.111  24.311  0.00  0.00    -0.184 NA
ATOM     29  N   UNL     1       0.083  -0.304  24.437  0.00  0.00    -0.161 NA
BRANCH  29  30
ATOM     30  C   UNL     1      -0.405  -0.967  24.494  0.00  0.00    +0.075 A 
ATOM     31  C   UNL     1      -0.642  -1.365  23.812  0.00  0.00    +0.020 A 
ATOM     32  C   UNL     1      -1.130  -2.028  23.870  0.00  0.00    +0.039 A 
ATOM     33  C   UNL     1      -1.380  -2.293  24.610  0.00  0.00    +0.145 A 
ATOM     41  C   UNL     1      -1.143  -1.894  25.292  0.00  0.00    +0.039 A 
ATOM     42  C   UNL     1      -0.655  -1.232  25.234  0.00  0.00    +0.020 A 
BRANCH  33  34
ATOM     34  O   UNL     1      -1.868  -2.956  24.668  0.00  0.00    -0.453 OA
BRANCH  34  35
ATOM     35  C   UNL     1      -2.680  -2.884  24.540  0.00  0.00    +0.145 A 
ATOM     36  C   UNL     1      -3.154  -2.512  25.103  0.00  0.00    +0.037 A 
ATOM     37  C   UNL     1      -3.966  -2.440  24.975  0.00  0.00    +0.003 A 
ATOM     38  C   UNL     1      -4.303  -2.740  24.284  0.00  0.00    +0.000 A 
ATOM     39  C   UNL     1      -3.828  -3.112  23.720  0.00  0.00    +0.003 A 
ATOM     40  C   UNL     1      -3.016  -3.183  23.849  0.00  0.00    +0.037 A 
ENDBRANCH  34  35
ENDBRANCH  33  34
ENDBRANCH  29  30
ENDBRANCH   4   3
TORSDOF 8
ENDMDL
MODEL 4
REMARK VINA RESULT:      -7.9     15.867     18.452
REMARK  Name = 
REMARK  8 active torsions:
REMARK  status: ('A' for Active; 'I' for Inactive)
REMARK    1  A    between atoms: N_3  and  C_4
REMARK    2  A    between atoms: C_8  and  N_12
REMARK    3  A    between atoms: C_16  and  O_17
REMARK    4  A    between atoms: O_17  and  C_18
REMARK    5  A    between atoms: C_21  and  N_24
REMARK    6  A    between atoms: N_29  and  C_30
REMARK    7  A    between atoms: C_33  and  O_34
REMARK    8  A    between atoms: O_34  and  C_35
REMARK                            x       y       z     vdW  Elec       q    Type
REMARK                         _______ _______ _______ _____ _____    ______ ____
ROOT
ATOM      4  C   UNL     1      -0.392  -0.436  23.745  0.00  0.00    +0.156 C 
ATOM      5  C   UNL     1      -0.302   0.056  24.400  0.00  0.00    +0.166 C 
ATOM      6  O   UNL     1      -0.943  -0.070  24.904  0.00  0.00    -0.350 OA
ATOM      7  C   UNL     1      -1.429  -0.640  24.560  0.00  0.00    +0.169 C 
ATOM      8  C   UNL     1      -2.126  -1.071  24.658  0.00  0.00    +0.170 C 
ATOM      9  C   UNL     1      -2.216  -1.563  24.002  0.00  0.00    +0.169 C 
ATOM     10  O   UNL     1      -1.575  -1.437  23.499  0.00  0.00    -0.350 OA
ATOM     11  C   UNL     1      -1.089  -0.866  23.843  0.00  0.00    +0.167 C 
ENDROOT
BRANCH   8  12
ATOM     12  N   UNL     1      -2.642  -1.018  25.299  0.00  0.00    -0.180 N 
ATOM     13  N   UNL     1      -2.549  -1.392  26.030  0.00  0.00    -0.040 NA
ATOM     14  N   UNL     1      -3.191  -1.187  26.505  0.00  0.00    -0.020 NA
ATOM     15  N   UNL     1      -3.681  -0.688  26.069  0.00  0.00    -0.071 NA
ATOM     16  C   UNL     1      -3.342  -0.583  25.324  0.00  0.00    +0.343 A 
BRANCH  16  17
ATOM     17  O   UNL     1      -3.650  -0.124  24.711  0.00  0.00    -0.421 OA
BRANCH  17  18
ATOM     18  C   UNL     1      -4.037   0.585  24.881  0.00  0.00    +0.149 A 
ATOM     19  C   UNL     1      -4.839   0.582  25.071  0.00  0.00    +0.039 A 
ATOM     20  C   UNL     1      -5.225   1.291  25.241  0.00  0.00    +0.022 A 
ATOM     21  C   UNL     1      -4.809   2.003  25.220  0.00  0.00    +0.085 A 
ATOM     22  C   UNL     1      -4.006   2.006  25.030  0.00  0.00    +0.022 A 
ATOM     23  C   UNL     1      -3.620   1.297  24.860  0.00  0.00    +0.039 A 
BRANCH  21  24
ATOM     24  N   UNL     1      -5.194   2.712  25.390  0.00  0.00    -0.208 N 
ATOM     25  C   UNL     1      -5.899   2.791  25.811  0.00  0.00    +0.202 A 
ATOM     26  N   UNL     1      -6.085   3.595  25.850  0.00  0.00    -0.200 NA
ATOM     27  C   UNL     1      -5.494   4.011  25.453  0.00  0.00    +0.221 A 
ATOM     28  N   UNL     1      -4.944   3.466  25.168  0.00  0.00    -0.141 NA
ENDBRANCH  21  24
ENDBRANCH  17  18
ENDBRANCH  16  17
ENDBRANCH   8  12
BRANCH   4   3
ATOM      1  O   UNL     1       1.156   0.119  23.884  0.00  0.00    -0.249 OA
ATOM      2  C   UNL     1       0.898  -0.211  23.172  0.00  0.00    +0.344 C 
ATOM      3  N   UNL     1       0.124  -0.489  23.103  0.00  0.00    -0.184 NA
ATOM     29  N   UNL     1       1.414  -0.264  22.531  0.00  0.00    -0.161 NA
BRANCH  29  30
ATOM     30  C   UNL     1       2.188   0.013  22.600  0.00  0.00    +0.075 A 
ATOM     31  C   UNL     1       2.822  -0.505  22.507  0.00  0.00    +0.020 A 
ATOM     32  C   UNL     1       3.596  -0.228  22.576  0.00  0.00    +0.039 A 
ATOM     33  C   UNL     1       3.736   0.568  22.738  0.00  0.00    +0.145 A 
ATOM     41  C   UNL     1       3.101   1.088  22.831  0.00  0.00    +0.039 A 
ATOM     42  C   UNL     1       2.328   0.810  22.762  0.00  0.00    +0.020 A 
BRANCH  33  34
ATOM     34  O   UNL     1       4.509   0.846  22.807  0.00  0.00    -0.453 OA
BRANCH  34  35
ATOM     35  C   UNL     1       5.051   0.445  23.282  0.00  0.00    +0.145 A 
ATOM     36  C   UNL     1       5.031   0.541  24.102  0.00  0.00    +0.037 A 
ATOM     37  C   UNL     1       5.574   0.140  24.577  0.00  0.00    +0.003 A 
ATOM     38  C   UNL     1       6.135  -0.357  24.233  0.00  0.00    +0.000 A 
ATOM     39  C   UNL     1       6.155  -0.453  23.413  0.00  0.00    +0.003 A 
ATOM     40  C   UNL     1       5.612  -0.051  22.938  0.00  0.00    +0.037 A 
ENDBRANCH  34  35
ENDBRANCH  33  34
ENDBRANCH  29  30
ENDBRANCH   4   3
TORSDOF 8
ENDMDL
MODEL 5
REMARK VINA RESULT:      -7.6      3.922      6.361
REMARK  Name = 
REMARK  8 active torsions:
REMARK  status: ('A' for Active; 'I' for Inactive)
REMARK    1  A    between atoms: N_3  and  C_4
REMARK    2  A    between atoms: C_8  and  N_12
REMARK    3  A    between atoms: C_16  and  O_17
REMARK    4  A    between atoms: O_17  and  C_18
REMARK    5  A    between atoms: C_21  and  N_24
REMARK    6  A    between atoms: N_29  and  C_30
REMARK    7  A    between atoms: C_33  and  O_34
REMARK    8  A    between atoms: O_34  and  C_35
REMARK                            x       y       z     vdW  Elec       q    Type
REMARK                         _______ _______ _______ _____ _____    ______ ____
ROOT
ATOM      4  C   UNL     1      -7.957  -9.923  12.211  0.00  0.00    +0.156 C 
ATOM      5  C   UNL     1      -7.765 -10.665  12.515  0.00  0.00    +0.166 C 
ATOM      6  O   UNL     1      -8.199 -10.776  13.208  0.00  0.00    -0.350 OA
ATOM      7  C   UNL     1      -8.658 -10.104  13.332  0.00  0.00    +0.169 C 
ATOM      8  C   UNL     1      -9.210  -9.755  13.837  0.00  0.00    +0.170 C 
ATOM      9  C   UNL     1      -9.402  -9.013  13.533  0.00  0.00    +0.169 C 
ATOM     10  O   UNL     1      -8.969  -8.902  12.840  0.00  0.00    -0.350 OA
ATOM     11  C   UNL     1      -8.509  -9.576  12.716  0.00  0.00    +0.167 C 
ENDROOT
BRANCH   8  12
ATOM     12  N   UNL     1      -9.517 -10.091  14.525  0.00  0.00    -0.180 N 
ATOM     13  N   UNL     1     -10.188 -10.569  14.575  0.00  0.00    -0.040 NA
ATOM     14  N   UNL     1     -10.292 -10.781  15.366  0.00  0.00    -0.020 NA
ATOM     15  N   UNL     1      -9.685 -10.435  15.804  0.00  0.00    -0.071 NA
ATOM     16  C   UNL     1      -9.207 -10.009  15.285  0.00  0.00    +0.343 A 
BRANCH  16  17
ATOM     17  O   UNL     1      -8.535  -9.575  15.490  0.00  0.00    -0.421 OA
BRANCH  17  18
ATOM     18  C   UNL     1      -8.145  -9.729  16.201  0.00  0.00    +0.149 A 
ATOM     19  C   UNL     1      -7.377 -10.030  16.194  0.00  0.00    +0.039 A 
ATOM     20  C   UNL     1      -6.988 -10.184  16.904  0.00  0.00    +0.022 A 
ATOM     21  C   UNL     1      -7.367 -10.038  17.623  0.00  0.00    +0.085 A 
ATOM     22  C   UNL     1      -8.136  -9.737  17.630  0.00  0.00    +0.022 A 
ATOM     23  C   UNL     1      -8.524  -9.583  16.919  0.00  0.00    +0.039 A 
BRANCH  21  24
ATOM     24  N   UNL     1      -6.978 -10.191  18.334  0.00  0.00    -0.208 N 
ATOM     25  C   UNL     1      -7.337 -10.413  19.043  0.00  0.00    +0.202 A 
ATOM     26  N   UNL     1      -6.744 -10.510  19.610  0.00  0.00    -0.200 NA
ATOM     27  C   UNL     1      -6.020 -10.348  19.249  0.00  0.00    +0.221 A 
ATOM     28  N   UNL     1      -6.165 -10.151  18.461  0.00  0.00    -0.141 NA
ENDBRANCH  21  24
ENDBRANCH  17  18
ENDBRANCH  16  17
ENDBRANCH   8  12
BRANCH   4   3
ATOM      1  O   UNL     1      -6.347 -10.053  11.876  0.00  0.00    -0.249 OA
ATOM      2  C   UNL     1      -6.845  -9.652  11.354  0.00  0.00    +0.344 C 
ATOM      3  N   UNL     1      -7.651  -9.587  11.522  0.00  0.00    -0.184 NA
ATOM     29  N   UNL     1      -6.539  -9.316  10.666  0.00  0.00    -0.161 NA
BRANCH  29  30
ATOM     30  C   UNL     1      -5.734  -9.381  10.498  0.00  0.00    +0.075 A 
ATOM     31  C   UNL     1      -5.433 -10.079  10.180  0.00  0.00    +0.020 A 
ATOM     32  C   UNL     1      -4.628 -10.144  10.012  0.00  0.00    +0.039 A 
ATOM     33  C   UNL     1      -4.123  -9.509  10.163  0.00  0.00    +0.145 A 
ATOM     41  C   UNL     1      -4.424  -8.810  10.482  0.00  0.00    +0.039 A 
ATOM     42  C   UNL     1      -5.229  -8.746  10.650  0.00  0.00    +0.020 A 
BRANCH  33  34
ATOM     34  O   UNL     1      -3.318  -9.573   9.995  0.00  0.00    -0.453 OA
BRANCH  34  35
ATOM     35  C   UNL     1      -2.786  -9.770  10.594  0.00  0.00    +0.145 A 
ATOM     36  C   UNL     1      -2.202  -9.232  10.819  0.00  0.00    +0.037 A 
ATOM     37  C   UNL     1      -1.670  -9.428  11.418  0.00  0.00    +0.003 A 
ATOM     38  C   UNL     1      -1.722 -10.163  11.792  0.00  0.00    +0.000 A 
ATOM     39  C   UNL     1      -2.306 -10.700  11.567  0.00  0.00    +0.003 A 
ATOM     40  C   UNL     1      -2.838 -10.503  10.967  0.00  0.00    +0.037 A 
ENDBRANCH  34  35
ENDBRANCH  33  34
ENDBRANCH  29  30
ENDBRANCH   4   3
TORSDOF 8
ENDMDL
MODEL 6
REMARK VINA RESULT:      -7.5      1.760      2.660
REMARK  Name = 
REMARK  8 active torsions:
REMARK  status: ('A' for Active; 'I' for Inactive)
REMARK    1  A    between atoms: N_3  and  C_4
REMARK    2  A    between atoms: C_8  and  N_12
REMARK    3  A    between atoms: C_16  and  O_17
REMARK    4  A    between atoms: O_17  and  C_18
REMARK    5  A    between atoms: C_21  and  N_24
REMARK    6  A    between atoms: N_29  and  C_30
REMARK    7  A    between atoms: C_33  and  O_34
REMARK    8  A    between atoms: O_34  and  C_35
REMARK                            x       y       z     vdW  Elec       q    Type
REMARK                         _______ _______ _______ _____ _____    ______ ____
ROOT
ATOM      4  C   UNL     1      -5.242  -9.116   9.639  0.00  0.00    +0.156 C 
ATOM      5  C   UNL     1      -5.027  -8.408  10.004  0.00  0.00    +0.166 C 
ATOM      6  O   UNL     1      -4.265  -8.499  10.306  0.00  0.00    -0.350 OA
ATOM      7  C   UNL     1      -4.009  -9.262  10.129  0.00  0.00    +0.169 C 
ATOM      8  C   UNL     1      -3.381  -9.790  10.206  0.00  0.00    +0.170 C 
ATOM      9  C   UNL     1      -3.595 -10.498   9.842  0.00  0.00    +0.169 C 
ATOM     10  O   UNL     1      -4.357 -10.407   9.539  0.00  0.00    -0.350 OA
ATOM     11  C   UNL     1      -4.613  -9.643   9.717  0.00  0.00    +0.167 C 
ENDROOT
BRANCH   8  12
ATOM     12  N   UNL     1      -2.662  -9.637  10.582  0.00  0.00    -0.180 N 
ATOM     13  N   UNL     1      -2.107  -9.069  10.356  0.00  0.00    -0.040 NA
ATOM     14  N   UNL     1      -1.475  -9.106  10.885  0.00  0.00    -0.020 NA
ATOM     15  N   UNL     1      -1.639  -9.696  11.437  0.00  0.00    -0.071 NA
ATOM     16  C   UNL     1      -2.372 -10.024  11.250  0.00  0.00    +0.343 A 
BRANCH  16  17
ATOM     17  O   UNL     1      -2.750 -10.633  11.660  0.00  0.00    -0.421 OA
BRANCH  17  18
ATOM     18  C   UNL     1      -2.729 -10.650  12.485  0.00  0.00    +0.149 A 
ATOM     19  C   UNL     1      -2.004 -10.652  12.879  0.00  0.00    +0.039 A 
ATOM     20  C   UNL     1      -1.983 -10.669  13.703  0.00  0.00    +0.022 A 
ATOM     21  C   UNL     1      -2.687 -10.684  14.134  0.00  0.00    +0.085 A 
ATOM     22  C   UNL     1      -3.412 -10.682  13.740  0.00  0.00    +0.022 A 
ATOM     23  C   UNL     1      -3.432 -10.665  12.915  0.00  0.00    +0.039 A 
BRANCH  21  24
ATOM     24  N   UNL     1      -2.667 -10.702  14.959  0.00  0.00    -0.208 N 
ATOM     25  C   UNL     1      -1.990 -10.775  15.425  0.00  0.00    +0.202 A 
ATOM     26  N   UNL     1      -2.223 -10.767  16.217  0.00  0.00    -0.200 NA
ATOM     27  C   UNL     1      -3.044 -10.689  16.239  0.00  0.00    +0.221 A 
ATOM     28  N   UNL     1      -3.318 -10.649  15.461  0.00  0.00    -0.141 NA
ENDBRANCH  21  24
ENDBRANCH  17  18
ENDBRANCH  16  17
ENDBRANCH   8  12
BRANCH   4   3
ATOM      1  O   UNL     1      -6.593  -9.424  10.535  0.00  0.00    -0.249 OA
ATOM      2  C   UNL     1      -6.636  -9.423   9.711  0.00  0.00    +0.344 C 
ATOM      3  N   UNL     1      -5.960  -9.269   9.263  0.00  0.00    -0.184 NA
ATOM     29  N   UNL     1      -7.354  -9.576   9.335  0.00  0.00    -0.161 NA
BRANCH  29  30
ATOM     30  C   UNL     1      -8.030  -9.730   9.783  0.00  0.00    +0.075 A 
ATOM     31  C   UNL     1      -8.183 -10.495  10.049  0.00  0.00    +0.020 A 
ATOM     32  C   UNL     1      -8.859 -10.649  10.497  0.00  0.00    +0.039 A 
ATOM     33  C   UNL     1      -9.382 -10.037  10.678  0.00  0.00    +0.145 A 
ATOM     41  C   UNL     1      -9.229  -9.271  10.411  0.00  0.00    +0.039 A 
ATOM     42  C   UNL     1      -8.553  -9.118   9.964  0.00  0.00    +0.020 A 
BRANCH  33  34
ATOM     34  O   UNL     1     -10.058 -10.190  11.125  0.00  0.00    -0.453 OA
BRANCH  34  35
ATOM     35  C   UNL     1     -10.043 -10.089  11.944  0.00  0.00    +0.145 A 
ATOM     36  C   UNL     1     -10.427  -9.443  12.286  0.00  0.00    +0.037 A 
ATOM     37  C   UNL     1     -10.412  -9.342  13.104  0.00  0.00    +0.003 A 
ATOM     38  C   UNL     1     -10.013  -9.885  13.581  0.00  0.00    +0.000 A 
ATOM     39  C   UNL     1      -9.629 -10.530  13.239  0.00  0.00    +0.003 A 
ATOM     40  C   UNL     1      -9.644 -10.631  12.419  0.00  0.00    +0.037 A 
ENDBRANCH  34  35
ENDBRANCH  33  34
ENDBRANCH  29  30
ENDBRANCH   4   3
TORSDOF 8
ENDMDL
MODEL 7
REMARK VINA RESULT:      -7.3      4.064      5.481
REMARK  Name = 
REMARK  8 active torsions:
REMARK  status: ('A' for Active; 'I' for Inactive)
REMARK    1  A    between atoms: N_3  and  C_4
REMARK    2  A    between atoms: C_8  and  N_12
REMARK    3  A    between atoms: C_16  and  O_17
REMARK    4  A    between atoms: O_17  and  C_18
REMARK    5  A    between atoms: C_21  and  N_24
REMARK    6  A    between atoms: N_29  and  C_30
REMARK    7  A    between atoms: C_33  and  O_34
REMARK    8  A    between atoms: O_34  and  C_35
REMARK                            x       y       z     vdW  Elec       q    Type
REMARK                         _______ _______ _______ _____ _____    ______ ____
ROOT
ATOM      4  C   UNL     1      -8.070  -9.985  11.893  0.00  0.00    +0.156 C 
ATOM      5  C   UNL     1      -7.770  -9.270  12.172  0.00  0.00    +0.166 C 
ATOM      6  O   UNL     1      -7.258  -8.968  11.600  0.00  0.00    -0.350 OA
ATOM      7  C   UNL     1      -7.242  -9.495  10.968  0.00  0.00    +0.169 C 
ATOM      8  C   UNL     1      -6.916  -9.636  10.223  0.00  0.00    +0.170 C 
ATOM      9  C   UNL     1      -7.217 -10.351   9.943  0.00  0.00    +0.169 C 
ATOM     10  O   UNL     1      -7.728 -10.653  10.515  0.00  0.00    -0.350 OA
ATOM     11  C   UNL     1      -7.744 -10.125  11.148  0.00  0.00    +0.167 C 
ENDROOT
BRANCH   8  12
ATOM     12  N   UNL     1      -6.383  -9.146   9.827  0.00  0.00    -0.180 N 
ATOM     13  N   UNL     1      -6.569  -8.445   9.432  0.00  0.00    -0.040 NA
ATOM     14  N   UNL     1      -5.872  -8.137   9.118  0.00  0.00    -0.020 NA
ATOM     15  N   UNL     1      -5.255  -8.646   9.318  0.00  0.00    -0.071 NA
ATOM     16  C   UNL     1      -5.571  -9.270   9.756  0.00  0.00    +0.343 A 
BRANCH  16  17
ATOM     17  O   UNL     1      -5.149  -9.906  10.068  0.00  0.00    -0.421 OA
BRANCH  17  18
ATOM     18  C   UNL     1      -4.367  -9.802  10.313  0.00  0.00    +0.149 A 
ATOM     19  C   UNL     1      -4.154  -9.967  11.092  0.00  0.00    +0.039 A 
ATOM     20  C   UNL     1      -3.373  -9.863  11.337  0.00  0.00    +0.022 A 
ATOM     21  C   UNL     1      -2.805  -9.594  10.801  0.00  0.00    +0.085 A 
ATOM     22  C   UNL     1      -3.019  -9.430  10.021  0.00  0.00    +0.022 A 
ATOM     23  C   UNL     1      -3.800  -9.534   9.777  0.00  0.00    +0.039 A 
BRANCH  21  24
ATOM     24  N   UNL     1      -2.024  -9.490  11.045  0.00  0.00    -0.208 N 
ATOM     25  C   UNL     1      -1.627  -9.947  11.605  0.00  0.00    +0.202 A 
ATOM     26  N   UNL     1      -0.859  -9.651  11.678  0.00  0.00    -0.200 NA
ATOM     27  C   UNL     1      -0.784  -9.011  11.163  0.00  0.00    +0.221 A 
ATOM     28  N   UNL     1      -1.504  -8.912  10.772  0.00  0.00    -0.141 NA
ENDBRANCH  21  24
ENDBRANCH  17  18
ENDBRANCH  16  17
ENDBRANCH   8  12
BRANCH   4   3
ATOM      1  O   UNL     1      -8.568  -9.600  13.418  0.00  0.00    -0.249 OA
ATOM      2  C   UNL     1      -8.852 -10.283  13.051  0.00  0.00    +0.344 C 
ATOM      3  N   UNL     1      -8.603 -10.475  12.289  0.00  0.00    -0.184 NA
ATOM     29  N   UNL     1      -9.385 -10.773  13.447  0.00  0.00    -0.161 NA
BRANCH  29  30
ATOM     30  C   UNL     1      -9.634 -10.581  14.210  0.00  0.00    +0.075 A 
ATOM     31  C   UNL     1      -9.167 -10.781  14.859  0.00  0.00    +0.020 A 
ATOM     32  C   UNL     1      -9.417 -10.589  15.622  0.00  0.00    +0.039 A 
ATOM     33  C   UNL     1     -10.134 -10.196  15.735  0.00  0.00    +0.145 A 
ATOM     41  C   UNL     1     -10.601  -9.996  15.085  0.00  0.00    +0.039 A 
ATOM     42  C   UNL     1     -10.351 -10.188  14.322  0.00  0.00    +0.020 A 
BRANCH  33  34
ATOM     34  O   UNL     1     -10.384 -10.004  16.497  0.00  0.00    -0.453 OA
BRANCH  34  35
ATOM     35  C   UNL     1     -10.178  -9.277  16.828  0.00  0.00    +0.145 A 
ATOM     36  C   UNL     1      -9.431  -9.172  17.162  0.00  0.00    +0.037 A 
ATOM     37  C   UNL     1      -9.226  -8.445  17.493  0.00  0.00    +0.003 A 
ATOM     38  C   UNL     1      -9.768  -7.822  17.489  0.00  0.00    +0.000 A 
ATOM     39  C   UNL     1     -10.515  -7.927  17.155  0.00  0.00    +0.003 A 
ATOM     40  C   UNL     1     -10.720  -8.655  16.824  0.00  0.00    +0.037 A 
ENDBRANCH  34  35
ENDBRANCH  33  34
ENDBRANCH  29  30
ENDBRANCH   4   3
TORSDOF 8
ENDMDL
MODEL 8
REMARK VINA RESULT:      -7.2     15.608     17.743
REMARK  Name = 
REMARK  8 active torsions:
REMARK  status: ('A' for Active; 'I' for Inactive)
REMARK    1  A    between atoms: N_3  and  C_4
REMARK    2  A    between atoms: C_8  and  N_12
REMARK    3  A    between atoms: C_16  and  O_17
REMARK    4  A    between atoms: O_17  and  C_18
REMARK    5  A    between atoms: C_21  and  N_24
REMARK    6  A    between atoms: N_29  and  C_30
REMARK    7  A    between atoms: C_33  and  O_34
REMARK    8  A    between atoms: O_34  and  C_35
REMARK                            x       y       z     vdW  Elec       q    Type
REMARK                         _______ _______ _______ _____ _____    ______ ____
ROOT
ATOM      4  C   UNL     1      -4.495   0.329  24.668  0.00  0.00    +0.156 C 
ATOM      5  C   UNL     1      -4.396   0.140  23.872  0.00  0.00    +0.166 C 
ATOM      6  O   UNL     1      -4.044  -0.605  23.829  0.00  0.00    -0.350 OA
ATOM      7  C   UNL     1      -3.927  -0.877  24.598  0.00  0.00    +0.169 C 
ATOM      8  C   UNL     1      -3.637  -1.504  25.048  0.00  0.00    +0.170 C 
ATOM      9  C   UNL     1      -3.736  -1.316  25.845  0.00  0.00    +0.169 C 
ATOM     10  O   UNL     1      -4.088  -0.571  25.888  0.00  0.00    -0.350 OA
ATOM     11  C   UNL     1      -4.206  -0.299  25.117  0.00  0.00    +0.167 C 
ENDROOT
BRANCH   8  12
ATOM     12  N   UNL     1      -3.305  -2.200  24.753  0.00  0.00    -0.180 N 
ATOM     13  N   UNL     1      -3.700  -2.779  24.317  0.00  0.00    -0.040 NA
ATOM     14  N   UNL     1      -3.160  -3.375  24.136  0.00  0.00    -0.020 NA
ATOM     15  N   UNL     1      -2.431  -3.165  24.460  0.00  0.00    -0.071 NA
ATOM     16  C   UNL     1      -2.521  -2.439  24.841  0.00  0.00    +0.343 A 
BRANCH  16  17
ATOM     17  O   UNL     1      -1.929  -2.024  25.240  0.00  0.00    -0.421 OA
BRANCH  17  18
ATOM     18  C   UNL     1      -1.332  -1.646  24.815  0.00  0.00    +0.149 A 
ATOM     19  C   UNL     1      -1.118  -1.922  24.068  0.00  0.00    +0.039 A 
ATOM     20  C   UNL     1      -0.521  -1.545  23.643  0.00  0.00    +0.022 A 
ATOM     21  C   UNL     1      -0.137  -0.889  23.965  0.00  0.00    +0.085 A 
ATOM     22  C   UNL     1      -0.350  -0.612  24.713  0.00  0.00    +0.022 A 
ATOM     23  C   UNL     1      -0.948  -0.991  25.137  0.00  0.00    +0.039 A 
BRANCH  21  24
ATOM     24  N   UNL     1       0.461  -0.511  23.541  0.00  0.00    -0.208 N 
ATOM     25  C   UNL     1       0.435   0.262  23.253  0.00  0.00    +0.202 A 
ATOM     26  N   UNL     1       1.147   0.414  22.864  0.00  0.00    -0.200 NA
ATOM     27  C   UNL     1       1.612  -0.266  22.912  0.00  0.00    +0.221 A 
ATOM     28  N   UNL     1       1.188  -0.837  23.330  0.00  0.00    -0.141 NA
ENDBRANCH  21  24
ENDBRANCH  17  18
ENDBRANCH  16  17
ENDBRANCH   8  12
BRANCH   4   3
ATOM      1  O   UNL     1      -3.568   1.685  24.821  0.00  0.00    -0.249 OA
ATOM      2  C   UNL     1      -4.364   1.703  25.041  0.00  0.00    +0.344 C 
ATOM      3  N   UNL     1      -4.827   1.024  24.964  0.00  0.00    -0.184 NA
ATOM     29  N   UNL     1      -4.695   2.397  25.336  0.00  0.00    -0.161 NA
BRANCH  29  30
ATOM     30  C   UNL     1      -4.231   3.076  25.412  0.00  0.00    +0.075 A 
ATOM     31  C   UNL     1      -4.137   3.586  24.771  0.00  0.00    +0.020 A 
ATOM     32  C   UNL     1      -3.673   4.264  24.848  0.00  0.00    +0.039 A 
ATOM     33  C   UNL     1      -3.304   4.432  25.566  0.00  0.00    +0.145 A 
ATOM     41  C   UNL     1      -3.399   3.922  26.208  0.00  0.00    +0.039 A 
ATOM     42  C   UNL     1      -3.862   3.244  26.131  0.00  0.00    +0.020 A 
BRANCH  33  34
ATOM     34  O   UNL     1      -2.841   5.110  25.644  0.00  0.00    -0.453 OA
BRANCH  34  35
ATOM     35  C   UNL     1      -2.071   5.120  25.347  0.00  0.00    +0.145 A 
ATOM     36  C   UNL     1      -1.568   4.480  25.484  0.00  0.00    +0.037 A 
ATOM     37  C   UNL     1      -0.799   4.490  25.187  0.00  0.00    +0.003 A 
ATOM     38  C   UNL     1      -0.531   5.140  24.755  0.00  0.00    +0.000 A 
ATOM     39  C   UNL     1      -1.034   5.780  24.618  0.00  0.00    +0.003 A 
ATOM     40  C   UNL     1      -1.804   5.770  24.915  0.00  0.00    +0.037 A 
ENDBRANCH  34  35
ENDBRANCH  33  34
ENDBRANCH  29  30
ENDBRANCH   4   3
TORSDOF 8
ENDMDL
MODEL 9
REMARK VINA RESULT:      -7.1     17.016     19.269
REMARK  Name = 
REMARK  8 active torsions:
REMARK  status: ('A' for Active; 'I' for Inactive)
REMARK    1  A    between atoms: N_3  and  C_4
REMARK    2  A    between atoms: C_8  and  N_12
REMARK    3  A    between atoms: C_16  and  O_17
REMARK    4  A    between atoms: O_17  and  C_18
REMARK    5  A    between atoms: C_21  and  N_24
REMARK    6  A    between atoms: N_29  and  C_30
REMARK    7  A    between atoms: C_33  and  O_34
REMARK    8  A    between atoms: O_34  and  C_35
REMARK                            x       y       z     vdW  Elec       q    Type
REMARK                         _______ _______ _______ _____ _____    ______ ____
ROOT
ATOM      4  C   UNL     1      -0.246   1.267  23.978  0.00  0.00    +0.156 C 
ATOM      5  C   UNL     1      -0.250   1.161  24.796  0.00  0.00    +0.166 C 
ATOM      6  O   UNL     1      -0.653   1.797  25.133  0.00  0.00    -0.350 OA
ATOM      7  C   UNL     1      -0.898   2.295  24.524  0.00  0.00    +0.169 C 
ATOM      8  C   UNL     1      -1.299   2.996  24.354  0.00  0.00    +0.170 C 
ATOM      9  C   UNL     1      -1.295   3.102  23.536  0.00  0.00    +0.169 C 
ATOM     10  O   UNL     1      -0.892   2.466  23.200  0.00  0.00    -0.350 OA
ATOM     11  C   UNL     1      -0.647   1.967  23.810  0.00  0.00    +0.167 C 
ENDROOT
BRANCH   8  12
ATOM     12  N   UNL     1      -1.643   3.503  24.907  0.00  0.00    -0.180 N 
ATOM     13  N   UNL     1      -1.243   3.929  25.491  0.00  0.00    -0.040 NA
ATOM     14  N   UNL     1      -1.801   4.362  25.917  0.00  0.00    -0.020 NA
ATOM     15  N   UNL     1      -2.544   4.204  25.598  0.00  0.00    -0.071 NA
ATOM     16  C   UNL     1      -2.447   3.674  24.974  0.00  0.00    +0.343 A 
BRANCH  16  17
ATOM     17  O   UNL     1      -3.049   3.367  24.500  0.00  0.00    -0.421 OA
BRANCH  17  18
ATOM     18  C   UNL     1      -3.742   3.081  24.846  0.00  0.00    +0.149 A 
ATOM     19  C   UNL     1      -4.300   3.607  25.147  0.00  0.00    +0.039 A 
ATOM     20  C   UNL     1      -4.992   3.321  25.492  0.00  0.00    +0.022 A 
ATOM     21  C   UNL     1      -5.126   2.508  25.537  0.00  0.00    +0.085 A 
ATOM     22  C   UNL     1      -4.566   1.981  25.235  0.00  0.00    +0.022 A 
ATOM     23  C   UNL     1      -3.874   2.268  24.890  0.00  0.00    +0.039 A 
BRANCH  21  24
ATOM     24  N   UNL     1      -5.818   2.221  25.882  0.00  0.00    -0.208 N 
ATOM     25  C   UNL     1      -6.396   1.770  25.505  0.00  0.00    +0.202 A 
ATOM     26  N   UNL     1      -6.989   1.604  26.054  0.00  0.00    -0.200 NA
ATOM     27  C   UNL     1      -6.776   1.953  26.771  0.00  0.00    +0.221 A 
ATOM     28  N   UNL     1      -6.052   2.334  26.664  0.00  0.00    -0.141 NA
ENDBRANCH  21  24
ENDBRANCH  17  18
ENDBRANCH  16  17
ENDBRANCH   8  12
BRANCH   4   3
ATOM      1  O   UNL     1       1.396   1.151  23.876  0.00  0.00    -0.249 OA
ATOM      2  C   UNL     1       0.919   0.701  23.374  0.00  0.00    +0.344 C 
ATOM      3  N   UNL     1       0.098   0.760  23.425  0.00  0.00    -0.184 NA
ATOM     29  N   UNL     1       1.264   0.195  22.822  0.00  0.00    -0.161 NA
BRANCH  29  30
ATOM     30  C   UNL     1       2.085   0.137  22.770  0.00  0.00    +0.075 A 
ATOM     31  C   UNL     1       2.464  -0.563  22.987  0.00  0.00    +0.020 A 
ATOM     32  C   UNL     1       3.285  -0.621  22.935  0.00  0.00    +0.039 A 
ATOM     33  C   UNL     1       3.728   0.021  22.667  0.00  0.00    +0.145 A 
ATOM     41  C   UNL     1       3.349   0.722  22.450  0.00  0.00    +0.039 A 
ATOM     42  C   UNL     1       2.528   0.779  22.502  0.00  0.00    +0.020 A 
BRANCH  33  34
ATOM     34  O   UNL     1       4.549  -0.036  22.615  0.00  0.00    -0.453 OA
BRANCH  34  35
ATOM     35  C   UNL     1       5.006  -0.056  23.302  0.00  0.00    +0.145 A 
ATOM     36  C   UNL     1       5.277   0.648  23.637  0.00  0.00    +0.037 A 
ATOM     37  C   UNL     1       5.734   0.629  24.324  0.00  0.00    +0.003 A 
ATOM     38  C   UNL     1       5.919  -0.094  24.676  0.00  0.00    +0.000 A 
ATOM     39  C   UNL     1       5.648  -0.798  24.341  0.00  0.00    +0.003 A 
ATOM     40  C   UNL     1       5.191  -0.778  23.654  0.00  0.00    +0.037 A 
ENDBRANCH  34  35
ENDBRANCH  33  34
ENDBRANCH  29  30
ENDBRANCH   4   3
TORSDOF 8
ENDMDL
MODEL 10
REMARK VINA RESULT:      -7.0      4.325      5.422
REMARK  Name = 
REMARK  8 active torsions:
REMARK  status: ('A' for Active; 'I' for Inactive)
REMARK    1  A    between atoms: N_3  and  C_4
REMARK    2  A    between atoms: C_8  and  N_12
REMARK    3  A    between atoms: C_16  and  O_17
REMARK    4  A    between atoms: O_17  and  C_18
REMARK    5  A    between atoms: C_21  and  N_24
REMARK    6  A    between atoms: N_29  and  C_30
REMARK    7  A    between atoms: C_33  and  O_34
REMARK    8  A    between atoms: O_34  and  C_35
REMARK                            x       y       z     vdW  Elec       q    Type
REMARK                         _______ _______ _______ _____ _____    ______ ____
ROOT
ATOM      4  C   UNL     1      -8.536  -9.924  13.081  0.00  0.00    +0.156 C 
ATOM      5  C   UNL     1      -8.058  -9.291  13.308  0.00  0.00    +0.166 C 
ATOM      6  O   UNL     1      -8.264  -9.081  14.079  0.00  0.00    -0.350 OA
ATOM      7  C   UNL     1      -8.868  -9.583  14.328  0.00  0.00    +0.169 C 
ATOM      8  C   UNL     1      -9.369  -9.765  14.958  0.00  0.00    +0.170 C 
ATOM      9  C   UNL     1      -9.846 -10.398  14.731  0.00  0.00    +0.169 C 
ATOM     10  O   UNL     1      -9.640 -10.608  13.960  0.00  0.00    -0.350 OA
ATOM     11  C   UNL     1      -9.036 -10.105  13.711  0.00  0.00    +0.167 C 
ENDROOT
BRANCH   8  12
ATOM     12  N   UNL     1      -9.388  -9.380  15.688  0.00  0.00    -0.180 N 
ATOM     13  N   UNL     1      -9.769  -8.666  15.850  0.00  0.00    -0.040 NA
ATOM     14  N   UNL     1      -9.647  -8.487  16.646  0.00  0.00    -0.020 NA
ATOM     15  N   UNL     1      -9.191  -9.089  16.975  0.00  0.00    -0.071 NA
ATOM     16  C   UNL     1      -9.031  -9.642  16.383  0.00  0.00    +0.343 A 
BRANCH  16  17
ATOM     17  O   UNL     1      -8.591 -10.334  16.472  0.00  0.00    -0.421 OA
BRANCH  17  18
ATOM     18  C   UNL     1      -8.060 -10.408  17.100  0.00  0.00    +0.149 A 
ATOM     19  C   UNL     1      -8.342 -10.522  17.867  0.00  0.00    +0.039 A 
ATOM     20  C   UNL     1      -7.812 -10.596  18.494  0.00  0.00    +0.022 A 
ATOM     21  C   UNL     1      -6.999 -10.556  18.355  0.00  0.00    +0.085 A 
ATOM     22  C   UNL     1      -6.717 -10.442  17.587  0.00  0.00    +0.022 A 
ATOM     23  C   UNL     1      -7.248 -10.368  16.960  0.00  0.00    +0.039 A 
BRANCH  21  24
ATOM     24  N   UNL     1      -6.468 -10.630  18.982  0.00  0.00    -0.208 N 
ATOM     25  C   UNL     1      -5.651 -10.719  18.916  0.00  0.00    +0.202 A 
ATOM     26  N   UNL     1      -5.337 -10.772  19.678  0.00  0.00    -0.200 NA
ATOM     27  C   UNL     1      -5.962 -10.716  20.214  0.00  0.00    +0.221 A 
ATOM     28  N   UNL     1      -6.661 -10.628  19.784  0.00  0.00    -0.141 NA
ENDBRANCH  21  24
ENDBRANCH  17  18
ENDBRANCH  16  17
ENDBRANCH   8  12
BRANCH   4   3
ATOM      1  O   UNL     1      -8.620  -9.049  11.685  0.00  0.00    -0.249 OA
ATOM      2  C   UNL     1      -8.558  -9.872  11.653  0.00  0.00    +0.344 C 
ATOM      3  N   UNL     1      -8.516 -10.309  12.351  0.00  0.00    -0.184 NA
ATOM     29  N   UNL     1      -8.539 -10.256  10.924  0.00  0.00    -0.161 NA
BRANCH  29  30
ATOM     30  C   UNL     1      -8.581  -9.819  10.225  0.00  0.00    +0.075 A 
ATOM     31  C   UNL     1      -9.300  -9.497   9.982  0.00  0.00    +0.020 A 
ATOM     32  C   UNL     1      -9.343  -9.060   9.284  0.00  0.00    +0.039 A 
ATOM     33  C   UNL     1      -8.665  -8.945   8.828  0.00  0.00    +0.145 A 
ATOM     41  C   UNL     1      -7.945  -9.267   9.071  0.00  0.00    +0.039 A 
ATOM     42  C   UNL     1      -7.903  -9.704   9.769  0.00  0.00    +0.020 A 
BRANCH  33  34
ATOM     34  O   UNL     1      -8.706  -8.508   8.129  0.00  0.00    -0.453 OA
BRANCH  34  35
ATOM     35  C   UNL     1      -8.676  -7.684   8.155  0.00  0.00    +0.145 A 
ATOM     36  C   UNL     1      -7.948  -7.300   8.206  0.00  0.00    +0.037 A 
ATOM     37  C   UNL     1      -7.917  -6.476   8.232  0.00  0.00    +0.003 A 
ATOM     38  C   UNL     1      -8.616  -6.036   8.207  0.00  0.00    +0.000 A 
ATOM     39  C   UNL     1      -9.344  -6.421   8.156  0.00  0.00    +0.003 A 
ATOM     40  C   UNL     1      -9.373  -7.245   8.131  0.00  0.00    +0.037 A 
ENDBRANCH  34  35
ENDBRANCH  33  34
ENDBRANCH  29  30
ENDBRANCH   4   3
TORSDOF 8
ENDMDL
