MODEL 1
REMARK VINA RESULT:     -13.2      0.000      0.000
REMARK  Name = 
REMARK  4 active torsions:
REMARK  status: ('A' for Active; 'I' for Inactive)
REMARK    1  A    between atoms: N_3  and  C_4
REMARK    2  A    between atoms: C_6  and  C_10
REMARK    3  A    between atoms: N_12  and  C_13
REMARK    4  A    between atoms: N_25  and  C_26
REMARK                            x       y       z     vdW  Elec       q    Type
REMARK                         _______ _______ _______ _____ _____    ______ ____
ROOT
ATOM     13  C   UNL     1      -2.187   1.311  23.839  0.00  0.00    +0.131 A 
ATOM     14  C   UNL     1      -1.399   1.554  23.807  0.00  0.00    +0.023 A 
ATOM     15  C   UNL     1      -0.795   1.017  23.973  0.00  0.00    +0.014 A 
ATOM     16  C   UNL     1      -0.979   0.238  24.171  0.00  0.00    +0.041 A 
ATOM     17  C   UNL     1      -0.574  -0.555  24.398  0.00  0.00    +0.058 C 
ATOM     18  C   UNL     1       0.059  -0.841  24.498  0.00  0.00    +0.011 C 
ATOM     19  C   UNL     1      -0.720  -1.077  24.530  0.00  0.00    +0.043 C 
ATOM     20  C   UNL     1      -1.585  -1.546  24.620  0.00  0.00    +0.097 C 
ATOM     21  N   UNL     1      -2.104  -0.919  24.433  0.00  0.00    -0.262 N 
ATOM     22  C   UNL     1      -1.402  -1.023  24.488  0.00  0.00    +0.101 C 
ATOM     23  C   UNL     1      -2.816  -0.523  24.300  0.00  0.00    +0.323 C 
ATOM     24  O   UNL     1      -2.811   0.275  24.089  0.00  0.00    -0.251 OA
ATOM     25  N   UNL     1      -3.532  -0.925  24.378  0.00  0.00    -0.190 NA
ATOM     32  C   UNL     1      -1.152  -0.253  24.294  0.00  0.00    +0.110 C 
ATOM     33  N   UNL     1      -1.767  -0.005  24.204  0.00  0.00    -0.298 N 
ATOM     34  C   UNL     1      -2.371   0.532  24.038  0.00  0.00    +0.276 A 
ATOM     35  O   UNL     1      -3.195   0.536  24.004  0.00  0.00    -0.266 OA
ENDROOT
BRANCH  25  26
ATOM     26  C   UNL     1      -3.537  -1.722  24.588  0.00  0.00    +0.097 C 
ATOM     27  C   UNL     1      -3.592  -2.303  24.005  0.00  0.00    +0.022 C 
ATOM     28  C   UNL     1      -3.597  -3.100  24.215  0.00  0.00    +0.002 C 
ATOM     29  C   UNL     1      -3.549  -3.317  25.010  0.00  0.00    +0.000 C 
ATOM     30  C   UNL     1      -3.495  -2.737  25.593  0.00  0.00    +0.002 C 
ATOM     31  C   UNL     1      -3.489  -1.940  25.383  0.00  0.00    +0.022 C 
ENDBRANCH  25  26
BRANCH  13  12
ATOM      1  O   UNL     1      -3.435   3.101  23.914  0.00  0.00    -0.248 OA
ATOM      2  C   UNL     1      -2.830   2.564  24.081  0.00  0.00    +0.348 C 
ATOM      3  N   UNL     1      -2.265   2.743  24.655  0.00  0.00    -0.161 NA
ATOM     12  N   UNL     1      -2.791   1.848  23.673  0.00  0.00    -0.156 NA
BRANCH   3   4
ATOM      4  C   UNL     1      -2.305   3.460  25.062  0.00  0.00    +0.076 A 
ATOM      5  C   UNL     1      -1.799   4.079  24.860  0.00  0.00    +0.027 A 
ATOM      6  C   UNL     1      -1.839   4.795  25.267  0.00  0.00    +0.070 A 
ATOM      7  C   UNL     1      -2.386   4.892  25.877  0.00  0.00    +0.010 A 
ATOM      8  C   UNL     1      -2.892   4.274  26.080  0.00  0.00    +0.002 A 
ATOM      9  C   UNL     1      -2.852   3.558  25.673  0.00  0.00    +0.017 A 
BRANCH   6  10
ATOM     10  C   UNL     1      -1.332   5.414  25.064  0.00  0.00    +0.100 C 
ATOM     11  N   UNL     1      -0.826   6.032  24.861  0.00  0.00    -0.191 NA
ENDBRANCH   6  10
ENDBRANCH   3   4
ENDBRANCH  13  12
TORSDOF 4
ENDMDL
MODEL 2
REMARK VINA RESULT:     -13.1      1.711      2.687
REMARK  Name = 
REMARK  4 active torsions:
REMARK  status: ('A' for Active; 'I' for Inactive)
REMARK    1  A    between atoms: N_3  and  C_4
REMARK    2  A    between atoms: C_6  and  C_10
REMARK    3  A    between atoms: N_12  and  C_13
REMARK    4  A    between atoms: N_25  and  C_26
REMARK                            x       y       z     vdW  Elec       q    Type
REMARK                         _______ _______ _______ _____ _____    ______ ____
ROOT
ATOM     13  C   UNL     1      -3.391   2.164  23.754  0.00  0.00    +0.131 A 
ATOM     14  C   UNL     1      -3.903   2.744  24.041  0.00  0.00    +0.023 A 
ATOM     15  C   UNL     1      -4.555   2.530  24.499  0.00  0.00    +0.014 A 
ATOM     16  C   UNL     1      -4.695   1.735  24.669  0.00  0.00    +0.041 A 
ATOM     17  C   UNL     1      -5.288   1.196  25.119  0.00  0.00    +0.058 C 
ATOM     18  C   UNL     1      -5.872   1.224  25.508  0.00  0.00    +0.011 C 
ATOM     19  C   UNL     1      -5.365   0.653  25.223  0.00  0.00    +0.043 C 
ATOM     20  C   UNL     1      -4.876  -0.169  24.975  0.00  0.00    +0.097 C 
ATOM     21  N   UNL     1      -4.256   0.167  24.526  0.00  0.00    -0.262 N 
ATOM     22  C   UNL     1      -4.827   0.392  24.887  0.00  0.00    +0.101 C 
ATOM     23  C   UNL     1      -3.573   0.204  24.065  0.00  0.00    +0.323 C 
ATOM     24  O   UNL     1      -3.290   0.935  23.805  0.00  0.00    -0.251 OA
ATOM     25  N   UNL     1      -3.173  -0.488  23.864  0.00  0.00    -0.190 NA
ATOM     32  C   UNL     1      -4.740   1.209  24.750  0.00  0.00    +0.110 C 
ATOM     33  N   UNL     1      -4.184   1.155  24.382  0.00  0.00    -0.298 N 
ATOM     34  C   UNL     1      -3.532   1.369  23.925  0.00  0.00    +0.276 A 
ATOM     35  O   UNL     1      -2.904   0.997  23.540  0.00  0.00    -0.266 OA
ENDROOT
BRANCH  25  26
ATOM     26  C   UNL     1      -3.455  -1.219  24.123  0.00  0.00    +0.097 C 
ATOM     27  C   UNL     1      -4.005  -1.633  23.670  0.00  0.00    +0.022 C 
ATOM     28  C   UNL     1      -4.288  -2.363  23.929  0.00  0.00    +0.002 C 
ATOM     29  C   UNL     1      -4.020  -2.679  24.643  0.00  0.00    +0.000 C 
ATOM     30  C   UNL     1      -3.470  -2.265  25.096  0.00  0.00    +0.002 C 
ATOM     31  C   UNL     1      -3.188  -1.535  24.838  0.00  0.00    +0.022 C 
ENDBRANCH  25  26
BRANCH  13  12
ATOM      1  O   UNL     1      -1.457   2.998  23.182  0.00  0.00    -0.248 OA
ATOM      2  C   UNL     1      -2.109   2.783  23.641  0.00  0.00    +0.348 C 
ATOM      3  N   UNL     1      -2.129   2.972  24.444  0.00  0.00    -0.161 NA
ATOM     12  N   UNL     1      -2.740   2.379  23.296  0.00  0.00    -0.156 NA
BRANCH   3   4
ATOM      4  C   UNL     1      -1.497   3.376  24.788  0.00  0.00    +0.076 A 
ATOM      5  C   UNL     1      -0.972   2.977  25.284  0.00  0.00    +0.027 A 
ATOM      6  C   UNL     1      -0.341   3.381  25.627  0.00  0.00    +0.070 A 
ATOM      7  C   UNL     1      -0.234   4.185  25.475  0.00  0.00    +0.010 A 
ATOM      8  C   UNL     1      -0.759   4.585  24.980  0.00  0.00    +0.002 A 
ATOM      9  C   UNL     1      -1.390   4.180  24.636  0.00  0.00    +0.017 A 
BRANCH   6  10
ATOM     10  C   UNL     1       0.184   2.982  26.123  0.00  0.00    +0.100 C 
ATOM     11  N   UNL     1       0.708   2.582  26.618  0.00  0.00    -0.191 NA
ENDBRANCH   6  10
ENDBRANCH   3   4
ENDBRANCH  13  12
TORSDOF 4
ENDMDL
MODEL 3
REMARK VINA RESULT:     -12.8      1.547      5.528
REMARK  Name = 
REMARK  4 active torsions:
REMARK  status: ('A' for Active; 'I' for Inactive)
REMARK    1  A    between atoms: N_3  and  C_4
REMARK    2  A    between atoms: C_6  and  C_10
REMARK    3  A    between atoms: N_12  and  C_13
REMARK    4  A    between atoms: N_25  and  C_26
REMARK                            x       y       z     vdW  Elec       q    Type
REMARK                         _______ _______ _______ _____ _____    ______ ____
ROOT
ATOM     13  C   UNL     1      -3.967   1.377  23.897  0.00  0.00    +0.131 A 
ATOM     14  C   UNL     1      -4.696   1.198  24.240  0.00  0.00    +0.023 A 
ATOM     15  C   UNL     1      -4.995   1.673  24.844  0.00  0.00    +0.014 A 
ATOM     16  C   UNL     1      -4.565   2.326  25.106  0.00  0.00    +0.041 A 
ATOM     17  C   UNL     1      -4.610   3.011  25.717  0.00  0.00    +0.058 C 
ATOM     18  C   UNL     1      -5.022   3.275  26.220  0.00  0.00    +0.011 C 
ATOM     19  C   UNL     1      -4.303   3.448  25.879  0.00  0.00    +0.043 C 
ATOM     20  C   UNL     1      -3.430   3.816  25.599  0.00  0.00    +0.097 C 
ATOM     21  N   UNL     1      -3.232   3.267  25.001  0.00  0.00    -0.262 N 
ATOM     22  C   UNL     1      -3.767   3.379  25.458  0.00  0.00    +0.101 C 
ATOM     23  C   UNL     1      -2.795   2.908  24.400  0.00  0.00    +0.323 C 
ATOM     24  O   UNL     1      -3.086   2.232  24.026  0.00  0.00    -0.251 OA
ATOM     25  N   UNL     1      -2.067   3.223  24.175  0.00  0.00    -0.190 NA
ATOM     32  C   UNL     1      -4.248   2.736  25.238  0.00  0.00    +0.110 C 
ATOM     33  N   UNL     1      -3.836   2.505  24.764  0.00  0.00    -0.298 N 
ATOM     34  C   UNL     1      -3.537   2.030  24.159  0.00  0.00    +0.276 A 
ATOM     35  O   UNL     1      -2.867   1.998  23.679  0.00  0.00    -0.266 OA
ENDROOT
BRANCH  25  26
ATOM     26  C   UNL     1      -1.776   3.898  24.549  0.00  0.00    +0.097 C 
ATOM     27  C   UNL     1      -1.264   3.825  25.192  0.00  0.00    +0.022 C 
ATOM     28  C   UNL     1      -0.972   4.498  25.566  0.00  0.00    +0.002 C 
ATOM     29  C   UNL     1      -1.192   5.247  25.298  0.00  0.00    +0.000 C 
ATOM     30  C   UNL     1      -1.704   5.321  24.655  0.00  0.00    +0.002 C 
ATOM     31  C   UNL     1      -1.996   4.647  24.281  0.00  0.00    +0.022 C 
ENDBRANCH  25  26
BRANCH  13  12
ATOM      1  O   UNL     1      -3.268  -0.383  22.810  0.00  0.00    -0.248 OA
ATOM      2  C   UNL     1      -3.567   0.092  23.415  0.00  0.00    +0.348 C 
ATOM      3  N   UNL     1      -3.764  -0.242  24.143  0.00  0.00    -0.161 NA
ATOM     12  N   UNL     1      -3.669   0.902  23.293  0.00  0.00    -0.156 NA
BRANCH   3   4
ATOM      4  C   UNL     1      -3.663  -1.052  24.266  0.00  0.00    +0.076 A 
ATOM      5  C   UNL     1      -2.939  -1.341  24.537  0.00  0.00    +0.027 A 
ATOM      6  C   UNL     1      -2.838  -2.151  24.659  0.00  0.00    +0.070 A 
ATOM      7  C   UNL     1      -3.460  -2.671  24.510  0.00  0.00    +0.010 A 
ATOM      8  C   UNL     1      -4.184  -2.383  24.238  0.00  0.00    +0.002 A 
ATOM      9  C   UNL     1      -4.285  -1.573  24.116  0.00  0.00    +0.017 A 
BRANCH   6  10
ATOM     10  C   UNL     1      -2.115  -2.439  24.931  0.00  0.00    +0.100 C 
ATOM     11  N   UNL     1      -1.391  -2.727  25.203  0.00  0.00    -0.191 NA
ENDBRANCH   6  10
ENDBRANCH   3   4
ENDBRANCH  13  12
TORSDOF 4
ENDMDL
MODEL 4
REMARK VINA RESULT:     -12.7      1.652      5.490
REMARK  Name = 
REMARK  4 active torsions:
REMARK  status: ('A' for Active; 'I' for Inactive)
REMARK    1  A    between atoms: N_3  and  C_4
REMARK    2  A    between atoms: C_6  and  C_10
REMARK    3  A    between atoms: N_12  and  C_13
REMARK    4  A    between atoms: N_25  and  C_26
REMARK                            x       y       z     vdW  Elec       q    Type
REMARK                         _______ _______ _______ _____ _____    ______ ____
ROOT
ATOM     13  C   UNL     1      -3.961   1.132  25.042  0.00  0.00    +0.131 A 
ATOM     14  C   UNL     1      -4.550   1.013  24.477  0.00  0.00    +0.023 A 
ATOM     15  C   UNL     1      -4.657   1.562  23.870  0.00  0.00    +0.014 A 
ATOM     16  C   UNL     1      -4.174   2.229  23.828  0.00  0.00    +0.041 A 
ATOM     17  C   UNL     1      -4.038   2.981  23.317  0.00  0.00    +0.058 C 
ATOM     18  C   UNL     1      -4.282   3.311  22.748  0.00  0.00    +0.011 C 
ATOM     19  C   UNL     1      -3.701   3.425  23.308  0.00  0.00    +0.043 C 
ATOM     20  C   UNL     1      -2.957   3.735  23.879  0.00  0.00    +0.097 C 
ATOM     21  N   UNL     1      -2.944   3.117  24.440  0.00  0.00    -0.262 N 
ATOM     22  C   UNL     1      -3.317   3.294  23.860  0.00  0.00    +0.101 C 
ATOM     23  C   UNL     1      -2.706   2.679  25.098  0.00  0.00    +0.323 C 
ATOM     24  O   UNL     1      -3.091   1.973  25.286  0.00  0.00    -0.251 OA
ATOM     25  N   UNL     1      -2.084   2.947  25.568  0.00  0.00    -0.190 NA
ATOM     32  C   UNL     1      -3.835   2.643  23.847  0.00  0.00    +0.110 C 
ATOM     33  N   UNL     1      -3.584   2.348  24.393  0.00  0.00    -0.298 N 
ATOM     34  C   UNL     1      -3.478   1.799  25.000  0.00  0.00    +0.276 A 
ATOM     35  O   UNL     1      -2.984   1.695  25.653  0.00  0.00    -0.266 OA
ENDROOT
BRANCH  25  26
ATOM     26  C   UNL     1      -1.699   3.652  25.381  0.00  0.00    +0.097 C 
ATOM     27  C   UNL     1      -1.008   3.639  24.932  0.00  0.00    +0.022 C 
ATOM     28  C   UNL     1      -0.623   4.343  24.745  0.00  0.00    +0.002 C 
ATOM     29  C   UNL     1      -0.930   5.063  25.007  0.00  0.00    +0.000 C 
ATOM     30  C   UNL     1      -1.621   5.077  25.456  0.00  0.00    +0.002 C 
ATOM     31  C   UNL     1      -2.006   4.373  25.644  0.00  0.00    +0.022 C 
ENDBRANCH  25  26
BRANCH  13  12
ATOM      1  O   UNL     1      -3.625  -0.762  26.075  0.00  0.00    -0.248 OA
ATOM      2  C   UNL     1      -3.731  -0.212  25.467  0.00  0.00    +0.348 C 
ATOM      3  N   UNL     1      -3.713  -0.459  24.680  0.00  0.00    -0.161 NA
ATOM     12  N   UNL     1      -3.855   0.583  25.648  0.00  0.00    -0.156 NA
BRANCH   3   4
ATOM      4  C   UNL     1      -3.589  -1.255  24.500  0.00  0.00    +0.076 A 
ATOM      5  C   UNL     1      -2.826  -1.567  24.510  0.00  0.00    +0.027 A 
ATOM      6  C   UNL     1      -2.703  -2.362  24.330  0.00  0.00    +0.070 A 
ATOM      7  C   UNL     1      -3.343  -2.846  24.141  0.00  0.00    +0.010 A 
ATOM      8  C   UNL     1      -4.107  -2.535  24.132  0.00  0.00    +0.002 A 
ATOM      9  C   UNL     1      -4.230  -1.739  24.311  0.00  0.00    +0.017 A 
BRANCH   6  10
ATOM     10  C   UNL     1      -1.939  -2.673  24.340  0.00  0.00    +0.100 C 
ATOM     11  N   UNL     1      -1.175  -2.984  24.350  0.00  0.00    -0.191 NA
ENDBRANCH   6  10
ENDBRANCH   3   4
ENDBRANCH  13  12
TORSDOF 4
ENDMDL
MODEL 5
REMARK VINA RESULT:     -12.3      2.322      4.673
REMARK  Name = 
REMARK  4 active torsions:
REMARK  status: ('A' for Active; 'I' for Inactive)
REMARK    1  A    between atoms: N_3  and  C_4
REMARK    2  A    between atoms: C_6  and  C_10
REMARK    3  A    between atoms: N_12  and  C_13
REMARK    4  A    between atoms: N_25  and  C_26
REMARK                            x       y       z     vdW  Elec       q    Type
REMARK                         _______ _______ _______ _____ _____    ______ ____
ROOT
ATOM     13  C   UNL     1      -0.777   1.293  25.005  0.00  0.00    +0.131 A 
ATOM     14  C   UNL     1      -0.116   1.783  25.078  0.00  0.00    +0.023 A 
ATOM     15  C   UNL     1      -0.214   2.598  25.161  0.00  0.00    +0.014 A 
ATOM     16  C   UNL     1      -0.972   2.923  25.171  0.00  0.00    +0.041 A 
ATOM     17  C   UNL     1      -1.400   3.733  25.243  0.00  0.00    +0.058 C 
ATOM     18  C   UNL     1      -1.271   4.419  25.319  0.00  0.00    +0.011 C 
ATOM     19  C   UNL     1      -1.920   3.933  25.247  0.00  0.00    +0.043 C 
ATOM     20  C   UNL     1      -2.815   3.519  25.175  0.00  0.00    +0.097 C 
ATOM     21  N   UNL     1      -2.592   2.717  25.097  0.00  0.00    -0.262 N 
ATOM     22  C   UNL     1      -2.271   3.348  25.174  0.00  0.00    +0.101 C 
ATOM     23  C   UNL     1      -2.674   1.901  25.008  0.00  0.00    +0.323 C 
ATOM     24  O   UNL     1      -2.004   1.420  24.979  0.00  0.00    -0.251 OA
ATOM     25  N   UNL     1      -3.426   1.566  24.949  0.00  0.00    -0.190 NA
ATOM     32  C   UNL     1      -1.482   3.082  25.171  0.00  0.00    +0.110 C 
ATOM     33  N   UNL     1      -1.632   2.434  25.098  0.00  0.00    -0.298 N 
ATOM     34  C   UNL     1      -1.534   1.619  25.015  0.00  0.00    +0.276 A 
ATOM     35  O   UNL     1      -2.010   0.950  24.929  0.00  0.00    -0.266 OA
ENDROOT
BRANCH  25  26
ATOM     26  C   UNL     1      -4.095   2.047  24.978  0.00  0.00    +0.097 C 
ATOM     27  C   UNL     1      -4.462   2.201  25.701  0.00  0.00    +0.022 C 
ATOM     28  C   UNL     1      -5.131   2.681  25.731  0.00  0.00    +0.002 C 
ATOM     29  C   UNL     1      -5.435   3.008  25.037  0.00  0.00    +0.000 C 
ATOM     30  C   UNL     1      -5.069   2.855  24.314  0.00  0.00    +0.002 C 
ATOM     31  C   UNL     1      -4.400   2.374  24.284  0.00  0.00    +0.022 C 
ENDBRANCH  25  26
BRANCH  13  12
ATOM      1  O   UNL     1      -0.051  -0.634  24.280  0.00  0.00    -0.248 OA
ATOM      2  C   UNL     1      -0.149   0.182  24.363  0.00  0.00    +0.348 C 
ATOM      3  N   UNL     1       0.282   0.700  23.887  0.00  0.00    -0.161 NA
ATOM     12  N   UNL     1      -0.678   0.479  24.922  0.00  0.00    -0.156 NA
BRANCH   3   4
ATOM      4  C   UNL     1       0.811   0.401  23.328  0.00  0.00    +0.076 A 
ATOM      5  C   UNL     1       1.605   0.626  23.350  0.00  0.00    +0.027 A 
ATOM      6  C   UNL     1       2.133   0.328  22.791  0.00  0.00    +0.070 A 
ATOM      7  C   UNL     1       1.868  -0.195  22.210  0.00  0.00    +0.010 A 
ATOM      8  C   UNL     1       1.075  -0.420  22.188  0.00  0.00    +0.002 A 
ATOM      9  C   UNL     1       0.546  -0.122  22.747  0.00  0.00    +0.017 A 
BRANCH   6  10
ATOM     10  C   UNL     1       2.926   0.553  22.813  0.00  0.00    +0.100 C 
ATOM     11  N   UNL     1       3.719   0.779  22.835  0.00  0.00    -0.191 NA
ENDBRANCH   6  10
ENDBRANCH   3   4
ENDBRANCH  13  12
TORSDOF 4
ENDMDL
MODEL 6
REMARK VINA RESULT:     -11.8      2.150      3.579
REMARK  Name = 
REMARK  4 active torsions:
REMARK  status: ('A' for Active; 'I' for Inactive)
REMARK    1  A    between atoms: N_3  and  C_4
REMARK    2  A    between atoms: C_6  and  C_10
REMARK    3  A    between atoms: N_12  and  C_13
REMARK    4  A    between atoms: N_25  and  C_26
REMARK                            x       y       z     vdW  Elec       q    Type
REMARK                         _______ _______ _______ _____ _____    ______ ____
ROOT
ATOM     13  C   UNL     1      -2.156   3.323  24.504  0.00  0.00    +0.131 A 
ATOM     14  C   UNL     1      -2.041   3.844  25.133  0.00  0.00    +0.023 A 
ATOM     15  C   UNL     1      -1.434   3.708  25.675  0.00  0.00    +0.014 A 
ATOM     16  C   UNL     1      -0.942   3.052  25.587  0.00  0.00    +0.041 A 
ATOM     17  C   UNL     1      -0.224   2.640  25.986  0.00  0.00    +0.058 C 
ATOM     18  C   UNL     1       0.214   2.703  26.531  0.00  0.00    +0.011 C 
ATOM     19  C   UNL     1       0.097   2.191  25.909  0.00  0.00    +0.043 C 
ATOM     20  C   UNL     1       0.117   1.469  25.234  0.00  0.00    +0.097 C 
ATOM     21  N   UNL     1      -0.524   1.708  24.755  0.00  0.00    -0.262 N 
ATOM     22  C   UNL     1      -0.192   1.936  25.342  0.00  0.00    +0.101 C 
ATOM     23  C   UNL     1      -1.070   1.693  24.136  0.00  0.00    +0.323 C 
ATOM     24  O   UNL     1      -1.641   2.286  24.075  0.00  0.00    -0.251 OA
ATOM     25  N   UNL     1      -1.045   1.086  23.579  0.00  0.00    -0.190 NA
ATOM     32  C   UNL     1      -0.653   2.614  25.485  0.00  0.00    +0.110 C 
ATOM     33  N   UNL     1      -1.057   2.531  24.958  0.00  0.00    -0.298 N 
ATOM     34  C   UNL     1      -1.664   2.667  24.416  0.00  0.00    +0.276 A 
ATOM     35  O   UNL     1      -1.970   2.312  23.737  0.00  0.00    -0.266 OA
ENDROOT
BRANCH  25  26
ATOM     26  C   UNL     1      -0.475   0.493  23.640  0.00  0.00    +0.097 C 
ATOM     27  C   UNL     1       0.250   0.577  23.255  0.00  0.00    +0.022 C 
ATOM     28  C   UNL     1       0.821  -0.014  23.316  0.00  0.00    +0.002 C 
ATOM     29  C   UNL     1       0.667  -0.692  23.761  0.00  0.00    +0.000 C 
ATOM     30  C   UNL     1      -0.058  -0.777  24.145  0.00  0.00    +0.002 C 
ATOM     31  C   UNL     1      -0.629  -0.185  24.085  0.00  0.00    +0.022 C 
ENDBRANCH  25  26
BRANCH  13  12
ATOM      1  O   UNL     1      -4.156   3.609  23.675  0.00  0.00    -0.248 OA
ATOM      2  C   UNL     1      -3.548   3.473  24.217  0.00  0.00    +0.348 C 
ATOM      3  N   UNL     1      -3.725   3.351  25.014  0.00  0.00    -0.161 NA
ATOM     12  N   UNL     1      -2.763   3.459  23.963  0.00  0.00    -0.156 NA
BRANCH   3   4
ATOM      4  C   UNL     1      -4.511   3.366  25.268  0.00  0.00    +0.076 A 
ATOM      5  C   UNL     1      -4.889   2.664  25.480  0.00  0.00    +0.027 A 
ATOM      6  C   UNL     1      -5.673   2.679  25.734  0.00  0.00    +0.070 A 
ATOM      7  C   UNL     1      -6.080   3.396  25.776  0.00  0.00    +0.010 A 
ATOM      8  C   UNL     1      -5.702   4.098  25.564  0.00  0.00    +0.002 A 
ATOM      9  C   UNL     1      -4.917   4.083  25.310  0.00  0.00    +0.017 A 
BRANCH   6  10
ATOM     10  C   UNL     1      -6.052   1.978  25.946  0.00  0.00    +0.100 C 
ATOM     11  N   UNL     1      -6.429   1.276  26.157  0.00  0.00    -0.191 NA
ENDBRANCH   6  10
ENDBRANCH   3   4
ENDBRANCH  13  12
TORSDOF 4
ENDMDL
MODEL 7
REMARK VINA RESULT:     -11.7      1.581      5.097
REMARK  Name = 
REMARK  4 active torsions:
REMARK  status: ('A' for Active; 'I' for Inactive)
REMARK    1  A    between atoms: N_3  and  C_4
REMARK    2  A    between atoms: C_6  and  C_10
REMARK    3  A    between atoms: N_12  and  C_13
REMARK    4  A    between atoms: N_25  and  C_26
REMARK                            x       y       z     vdW  Elec       q    Type
REMARK                         _______ _______ _______ _____ _____    ______ ____
ROOT
ATOM     13  C   UNL     1      -1.751   1.268  24.552  0.00  0.00    +0.131 A 
ATOM     14  C   UNL     1      -1.434   1.186  23.794  0.00  0.00    +0.023 A 
ATOM     15  C   UNL     1      -1.784   1.574  23.156  0.00  0.00    +0.014 A 
ATOM     16  C   UNL     1      -2.450   2.045  23.276  0.00  0.00    +0.041 A 
ATOM     17  C   UNL     1      -3.040   2.577  22.814  0.00  0.00    +0.058 C 
ATOM     18  C   UNL     1      -3.180   2.811  22.167  0.00  0.00    +0.011 C 
ATOM     19  C   UNL     1      -3.490   2.891  22.916  0.00  0.00    +0.043 C 
ATOM     20  C   UNL     1      -4.004   3.108  23.732  0.00  0.00    +0.097 C 
ATOM     21  N   UNL     1      -3.567   2.670  24.293  0.00  0.00    -0.262 N 
ATOM     22  C   UNL     1      -3.547   2.797  23.593  0.00  0.00    +0.101 C 
ATOM     23  C   UNL     1      -3.349   2.360  25.026  0.00  0.00    +0.323 C 
ATOM     24  O   UNL     1      -2.693   1.861  25.084  0.00  0.00    -0.251 OA
ATOM     25  N   UNL     1      -3.785   2.548  25.700  0.00  0.00    -0.190 NA
ATOM     32  C   UNL     1      -2.878   2.337  23.407  0.00  0.00    +0.110 C 
ATOM     33  N   UNL     1      -2.767   2.128  24.033  0.00  0.00    -0.298 N 
ATOM     34  C   UNL     1      -2.417   1.739  24.671  0.00  0.00    +0.276 A 
ATOM     35  O   UNL     1      -2.537   1.664  25.484  0.00  0.00    -0.266 OA
ENDROOT
BRANCH  25  26
ATOM     26  C   UNL     1      -4.440   3.046  25.643  0.00  0.00    +0.097 C 
ATOM     27  C   UNL     1      -5.193   2.727  25.538  0.00  0.00    +0.022 C 
ATOM     28  C   UNL     1      -5.848   3.224  25.480  0.00  0.00    +0.002 C 
ATOM     29  C   UNL     1      -5.750   4.042  25.527  0.00  0.00    +0.000 C 
ATOM     30  C   UNL     1      -4.997   4.362  25.632  0.00  0.00    +0.002 C 
ATOM     31  C   UNL     1      -4.342   3.864  25.689  0.00  0.00    +0.022 C 
ENDBRANCH  25  26
BRANCH  13  12
ATOM      1  O   UNL     1      -1.036  -0.334  25.851  0.00  0.00    -0.248 OA
ATOM      2  C   UNL     1      -1.387   0.055  25.213  0.00  0.00    +0.348 C 
ATOM      3  N   UNL     1      -1.723  -0.381  24.598  0.00  0.00    -0.161 NA
ATOM     12  N   UNL     1      -1.401   0.879  25.189  0.00  0.00    -0.156 NA
BRANCH   3   4
ATOM      4  C   UNL     1      -1.709  -1.206  24.623  0.00  0.00    +0.076 A 
ATOM      5  C   UNL     1      -2.415  -1.632  24.593  0.00  0.00    +0.027 A 
ATOM      6  C   UNL     1      -2.400  -2.457  24.617  0.00  0.00    +0.070 A 
ATOM      7  C   UNL     1      -1.679  -2.855  24.671  0.00  0.00    +0.010 A 
ATOM      8  C   UNL     1      -0.973  -2.429  24.701  0.00  0.00    +0.002 A 
ATOM      9  C   UNL     1      -0.988  -1.605  24.677  0.00  0.00    +0.017 A 
BRANCH   6  10
ATOM     10  C   UNL     1      -3.105  -2.883  24.587  0.00  0.00    +0.100 C 
ATOM     11  N   UNL     1      -3.811  -3.308  24.556  0.00  0.00    -0.191 NA
ENDBRANCH   6  10
ENDBRANCH   3   4
ENDBRANCH  13  12
TORSDOF 4
ENDMDL
MODEL 8
REMARK VINA RESULT:     -11.5      1.597      2.093
REMARK  Name = 
REMARK  4 active torsions:
REMARK  status: ('A' for Active; 'I' for Inactive)
REMARK    1  A    between atoms: N_3  and  C_4
REMARK    2  A    between atoms: C_6  and  C_10
REMARK    3  A    between atoms: N_12  and  C_13
REMARK    4  A    between atoms: N_25  and  C_26
REMARK                            x       y       z     vdW  Elec       q    Type
REMARK                         _______ _______ _______ _____ _____    ______ ____
ROOT
ATOM     13  C   UNL     1      -0.180   1.661  25.369  0.00  0.00    +0.131 A 
ATOM     14  C   UNL     1       0.364   2.025  24.867  0.00  0.00    +0.023 A 
ATOM     15  C   UNL     1       0.618   1.639  24.184  0.00  0.00    +0.014 A 
ATOM     16  C   UNL     1       0.328   0.888  24.003  0.00  0.00    +0.041 A 
ATOM     17  C   UNL     1       0.401   0.230  23.366  0.00  0.00    +0.058 C 
ATOM     18  C   UNL     1       0.730   0.080  22.764  0.00  0.00    +0.011 C 
ATOM     19  C   UNL     1       0.193  -0.277  23.262  0.00  0.00    +0.043 C 
ATOM     20  C   UNL     1      -0.450  -0.864  23.729  0.00  0.00    +0.097 C 
ATOM     21  N   UNL     1      -0.632  -0.379  24.385  0.00  0.00    -0.262 N 
ATOM     22  C   UNL     1      -0.219  -0.349  23.805  0.00  0.00    +0.101 C 
ATOM     23  C   UNL     1      -0.984  -0.141  25.092  0.00  0.00    +0.323 C 
ATOM     24  O   UNL     1      -0.801   0.595  25.418  0.00  0.00    -0.251 OA
ATOM     25  N   UNL     1      -1.520  -0.639  25.473  0.00  0.00    -0.190 NA
ATOM     32  C   UNL     1       0.110   0.405  23.932  0.00  0.00    +0.110 C 
ATOM     33  N   UNL     1      -0.216   0.524  24.505  0.00  0.00    -0.298 N 
ATOM     34  C   UNL     1      -0.470   0.910  25.188  0.00  0.00    +0.276 A 
ATOM     35  O   UNL     1      -0.981   0.766  25.819  0.00  0.00    -0.266 OA
ENDROOT
BRANCH  25  26
ATOM     26  C   UNL     1      -1.703  -1.375  25.148  0.00  0.00    +0.097 C 
ATOM     27  C   UNL     1      -2.368  -1.459  24.668  0.00  0.00    +0.022 C 
ATOM     28  C   UNL     1      -2.552  -2.194  24.343  0.00  0.00    +0.002 C 
ATOM     29  C   UNL     1      -2.070  -2.846  24.498  0.00  0.00    +0.000 C 
ATOM     30  C   UNL     1      -1.405  -2.761  24.978  0.00  0.00    +0.002 C 
ATOM     31  C   UNL     1      -1.221  -2.027  25.304  0.00  0.00    +0.022 C 
ENDBRANCH  25  26
BRANCH  13  12
ATOM      1  O   UNL     1      -1.123   3.133  26.677  0.00  0.00    -0.248 OA
ATOM      2  C   UNL     1      -0.869   2.746  25.993  0.00  0.00    +0.348 C 
ATOM      3  N   UNL     1      -1.051   3.057  25.251  0.00  0.00    -0.161 NA
ATOM     12  N   UNL     1      -0.434   2.048  26.052  0.00  0.00    -0.156 NA
BRANCH   3   4
ATOM      4  C   UNL     1      -1.487   3.756  25.193  0.00  0.00    +0.076 A 
ATOM      5  C   UNL     1      -2.309   3.726  25.133  0.00  0.00    +0.027 A 
ATOM      6  C   UNL     1      -2.744   4.424  25.075  0.00  0.00    +0.070 A 
ATOM      7  C   UNL     1      -2.357   5.153  25.078  0.00  0.00    +0.010 A 
ATOM      8  C   UNL     1      -1.534   5.183  25.138  0.00  0.00    +0.002 A 
ATOM      9  C   UNL     1      -1.100   4.485  25.196  0.00  0.00    +0.017 A 
BRANCH   6  10
ATOM     10  C   UNL     1      -3.566   4.394  25.015  0.00  0.00    +0.100 C 
ATOM     11  N   UNL     1      -4.388   4.363  24.955  0.00  0.00    -0.191 NA
ENDBRANCH   6  10
ENDBRANCH   3   4
ENDBRANCH  13  12
TORSDOF 4
ENDMDL
MODEL 9
REMARK VINA RESULT:     -11.2      2.164      4.242
REMARK  Name = 
REMARK  4 active torsions:
REMARK  status: ('A' for Active; 'I' for Inactive)
REMARK    1  A    between atoms: N_3  and  C_4
REMARK    2  A    between atoms: C_6  and  C_10
REMARK    3  A    between atoms: N_12  and  C_13
REMARK    4  A    between atoms: N_25  and  C_26
REMARK                            x       y       z     vdW  Elec       q    Type
REMARK                         _______ _______ _______ _____ _____    ______ ____
ROOT
ATOM     13  C   UNL     1      -1.038   0.586  24.813  0.00  0.00    +0.131 A 
ATOM     14  C   UNL     1      -0.792  -0.188  24.960  0.00  0.00    +0.023 A 
ATOM     15  C   UNL     1      -1.345  -0.767  25.157  0.00  0.00    +0.014 A 
ATOM     16  C   UNL     1      -2.145  -0.572  25.208  0.00  0.00    +0.041 A 
ATOM     17  C   UNL     1      -2.961  -0.952  25.392  0.00  0.00    +0.058 C 
ATOM     18  C   UNL     1      -3.257  -1.564  25.566  0.00  0.00    +0.011 C 
ATOM     19  C   UNL     1      -3.497  -0.800  25.421  0.00  0.00    +0.043 C 
ATOM     20  C   UNL     1      -3.976   0.054  25.284  0.00  0.00    +0.097 C 
ATOM     21  N   UNL     1      -3.330   0.548  25.094  0.00  0.00    -0.262 N 
ATOM     22  C   UNL     1      -3.439  -0.135  25.263  0.00  0.00    +0.101 C 
ATOM     23  C   UNL     1      -2.921   1.235  24.890  0.00  0.00    +0.323 C 
ATOM     24  O   UNL     1      -2.101   1.214  24.797  0.00  0.00    -0.251 OA
ATOM     25  N   UNL     1      -3.331   1.942  24.778  0.00  0.00    -0.190 NA
ATOM     32  C   UNL     1      -2.648  -0.394  25.228  0.00  0.00    +0.110 C 
ATOM     33  N   UNL     1      -2.391   0.201  25.062  0.00  0.00    -0.298 N 
ATOM     34  C   UNL     1      -1.838   0.780  24.864  0.00  0.00    +0.276 A 
ATOM     35  O   UNL     1      -1.831   1.584  24.680  0.00  0.00    -0.266 OA
ENDROOT
BRANCH  25  26
ATOM     26  C   UNL     1      -4.150   1.963  24.870  0.00  0.00    +0.097 C 
ATOM     27  C   UNL     1      -4.478   2.166  25.600  0.00  0.00    +0.022 C 
ATOM     28  C   UNL     1      -5.296   2.188  25.693  0.00  0.00    +0.002 C 
ATOM     29  C   UNL     1      -5.789   2.005  25.057  0.00  0.00    +0.000 C 
ATOM     30  C   UNL     1      -5.461   1.801  24.327  0.00  0.00    +0.002 C 
ATOM     31  C   UNL     1      -4.643   1.780  24.234  0.00  0.00    +0.022 C 
ENDBRANCH  25  26
BRANCH  13  12
ATOM      1  O   UNL     1       0.651   1.583  23.855  0.00  0.00    -0.248 OA
ATOM      2  C   UNL     1       0.097   1.004  24.053  0.00  0.00    +0.348 C 
ATOM      3  N   UNL     1       0.125   0.265  23.687  0.00  0.00    -0.161 NA
ATOM     12  N   UNL     1      -0.484   1.164  24.616  0.00  0.00    -0.156 NA
BRANCH   3   4
ATOM      4  C   UNL     1       0.707   0.105  23.124  0.00  0.00    +0.076 A 
ATOM      5  C   UNL     1       1.497   0.276  23.287  0.00  0.00    +0.027 A 
ATOM      6  C   UNL     1       2.078   0.116  22.724  0.00  0.00    +0.070 A 
ATOM      7  C   UNL     1       1.869  -0.214  21.997  0.00  0.00    +0.010 A 
ATOM      8  C   UNL     1       1.078  -0.385  21.834  0.00  0.00    +0.002 A 
ATOM      9  C   UNL     1       0.497  -0.225  22.397  0.00  0.00    +0.017 A 
BRANCH   6  10
ATOM     10  C   UNL     1       2.868   0.287  22.887  0.00  0.00    +0.100 C 
ATOM     11  N   UNL     1       3.658   0.459  23.050  0.00  0.00    -0.191 NA
ENDBRANCH   6  10
ENDBRANCH   3   4
ENDBRANCH  13  12
TORSDOF 4
ENDMDL
MODEL 10
REMARK VINA RESULT:     -11.1      2.945      4.680
REMARK  Name = 
REMARK  4 active torsions:
REMARK  status: ('A' for Active; 'I' for Inactive)
REMARK    1  A    between atoms: N_3  and  C_4
REMARK    2  A    between atoms: C_6  and  C_10
REMARK    3  A    between atoms: N_12  and  C_13
REMARK    4  A    between atoms: N_25  and  C_26
REMARK                            x       y       z     vdW  Elec       q    Type
REMARK                         _______ _______ _______ _____ _____    ______ ____
ROOT
ATOM     13  C   UNL     1       0.627   0.607  23.471  0.00  0.00    +0.131 A 
ATOM     14  C   UNL     1       1.002   1.313  23.675  0.00  0.00    +0.023 A 
ATOM     15  C   UNL     1       0.700   1.781  24.283  0.00  0.00    +0.014 A 
ATOM     16  C   UNL     1       0.022   1.543  24.688  0.00  0.00    +0.041 A 
ATOM     17  C   UNL     1      -0.535   1.812  25.368  0.00  0.00    +0.058 C 
ATOM     18  C   UNL     1      -0.626   2.330  25.832  0.00  0.00    +0.011 C 
ATOM     19  C   UNL     1      -0.994   1.633  25.629  0.00  0.00    +0.043 C 
ATOM     20  C   UNL     1      -1.572   0.837  25.532  0.00  0.00    +0.097 C 
ATOM     21  N   UNL     1      -1.177   0.452  24.905  0.00  0.00    -0.262 N 
ATOM     22  C   UNL     1      -1.103   1.049  25.287  0.00  0.00    +0.101 C 
ATOM     23  C   UNL     1      -1.013  -0.123  24.336  0.00  0.00    +0.323 C 
ATOM     24  O   UNL     1      -0.360  -0.037  23.838  0.00  0.00    -0.251 OA
ATOM     25  N   UNL     1      -1.503  -0.782  24.264  0.00  0.00    -0.190 NA
ATOM     32  C   UNL     1      -0.418   1.343  24.917  0.00  0.00    +0.110 C 
ATOM     33  N   UNL     1      -0.354   0.837  24.484  0.00  0.00    -0.298 N 
ATOM     34  C   UNL     1      -0.051   0.369  23.876  0.00  0.00    +0.276 A 
ATOM     35  O   UNL     1      -0.234  -0.343  23.502  0.00  0.00    -0.266 OA
ENDROOT
BRANCH  25  26
ATOM     26  C   UNL     1      -2.156  -0.868  24.761  0.00  0.00    +0.097 C 
ATOM     27  C   UNL     1      -2.889  -0.568  24.534  0.00  0.00    +0.022 C 
ATOM     28  C   UNL     1      -3.542  -0.653  25.029  0.00  0.00    +0.002 C 
ATOM     29  C   UNL     1      -3.462  -1.040  25.754  0.00  0.00    +0.000 C 
ATOM     30  C   UNL     1      -2.728  -1.341  25.981  0.00  0.00    +0.002 C 
ATOM     31  C   UNL     1      -2.075  -1.256  25.485  0.00  0.00    +0.022 C 
ENDBRANCH  25  26
BRANCH  13  12
ATOM      1  O   UNL     1       2.045  -0.350  22.116  0.00  0.00    -0.248 OA
ATOM      2  C   UNL     1       1.742   0.117  22.725  0.00  0.00    +0.348 C 
ATOM      3  N   UNL     1       2.253   0.562  23.197  0.00  0.00    -0.161 NA
ATOM     12  N   UNL     1       0.929   0.140  22.862  0.00  0.00    -0.156 NA
BRANCH   3   4
ATOM      4  C   UNL     1       3.067   0.538  23.059  0.00  0.00    +0.076 A 
ATOM      5  C   UNL     1       3.542   0.014  23.483  0.00  0.00    +0.027 A 
ATOM      6  C   UNL     1       4.355  -0.009  23.344  0.00  0.00    +0.070 A 
ATOM      7  C   UNL     1       4.692   0.492  22.783  0.00  0.00    +0.010 A 
ATOM      8  C   UNL     1       4.217   1.017  22.359  0.00  0.00    +0.002 A 
ATOM      9  C   UNL     1       3.404   1.040  22.497  0.00  0.00    +0.017 A 
BRANCH   6  10
ATOM     10  C   UNL     1       4.831  -0.533  23.768  0.00  0.00    +0.100 C 
ATOM     11  N   UNL     1       5.306  -1.057  24.192  0.00  0.00    -0.191 NA
ENDBRANCH   6  10
ENDBRANCH   3   4
ENDBRANCH  13  12
TORSDOF 4
ENDMDL
