MODEL 1
REMARK VINA RESULT:     -13.0      0.000      0.000
REMARK  Name = 
REMARK  3 active torsions:
REMARK  status: ('A' for Active; 'I' for Inactive)
REMARK    1  A    between atoms: N_3  and  C_4
REMARK    2  A    between atoms: C_15  and  C_20
REMARK    3  A    between atoms: N_25  and  C_26
REMARK                            x       y       z     vdW  Elec       q    Type
REMARK                         _______ _______ _______ _____ _____    ______ ____
ROOT
ATOM      4  C   UNL     1      -3.514   2.770  25.020  0.00  0.00    +0.126 C 
ATOM      5  C   UNL     1      -4.330   2.830  24.912  0.00  0.00    +0.045 C 
ATOM      6  C   UNL     1      -4.623   2.075  24.759  0.00  0.00    +0.096 C 
ATOM      7  N   UNL     1      -3.989   1.547  24.772  0.00  0.00    -0.268 N 
ATOM      8  C   UNL     1      -3.303   1.978  24.934  0.00  0.00    +0.174 C 
ATOM      9  C   UNL     1      -2.528   1.702  25.004  0.00  0.00    +0.265 C 
ATOM     10  O   UNL     1      -1.959   2.276  25.170  0.00  0.00    -0.271 OA
ATOM     11  N   UNL     1      -2.248   0.930  24.931  0.00  0.00    -0.178 NA
ATOM     12  C   UNL     1      -2.673   0.242  24.768  0.00  0.00    +0.078 A 
ATOM     13  C   UNL     1      -2.178  -0.419  24.742  0.00  0.00    +0.017 A 
ATOM     14  C   UNL     1      -2.494  -1.165  24.587  0.00  0.00    +0.002 A 
ATOM     15  C   UNL     1      -3.305  -1.251  24.458  0.00  0.00    +0.006 A 
ATOM     16  C   UNL     1      -3.799  -0.590  24.485  0.00  0.00    +0.006 A 
ATOM     17  C   UNL     1      -3.483   0.156  24.640  0.00  0.00    +0.069 A 
ATOM     18  C   UNL     1      -4.068   0.737  24.642  0.00  0.00    +0.251 C 
ATOM     19  O   UNL     1      -4.835   0.473  24.493  0.00  0.00    -0.270 OA
ENDROOT
BRANCH  15  20
ATOM     20  C   UNL     1      -3.621  -1.997  24.303  0.00  0.00    +0.029 A 
ATOM     21  C   UNL     1      -4.193  -2.173  23.735  0.00  0.00    +0.007 A 
ATOM     22  C   UNL     1      -4.345  -2.982  23.770  0.00  0.00    +0.007 A 
ATOM     23  C   UNL     1      -3.868  -3.307  24.359  0.00  0.00    +0.035 A 
ATOM     24  S   UNL     1      -3.420  -2.698  24.689  0.00  0.00    -0.086 S 
ENDBRANCH  15  20
BRANCH   4   3
ATOM      1  O   UNL     1      -3.881   3.848  26.215  0.00  0.00    -0.249 OA
ATOM      2  C   UNL     1      -3.183   3.932  25.783  0.00  0.00    +0.339 C 
ATOM      3  N   UNL     1      -2.999   3.393  25.186  0.00  0.00    -0.187 NA
ATOM     25  N   UNL     1      -2.668   4.556  25.949  0.00  0.00    -0.189 NA
BRANCH  25  26
ATOM     26  C   UNL     1      -1.969   4.640  25.517  0.00  0.00    +0.097 C 
ATOM     27  C   UNL     1      -1.958   5.109  24.839  0.00  0.00    +0.022 C 
ATOM     28  C   UNL     1      -1.261   5.194  24.408  0.00  0.00    +0.002 C 
ATOM     29  C   UNL     1      -0.574   4.808  24.654  0.00  0.00    +0.000 C 
ATOM     30  C   UNL     1      -0.586   4.338  25.332  0.00  0.00    +0.002 C 
ATOM     31  C   UNL     1      -1.283   4.253  25.764  0.00  0.00    +0.022 C 
ENDBRANCH  25  26
ENDBRANCH   4   3
TORSDOF 3
ENDMDL
MODEL 2
REMARK VINA RESULT:     -12.6      1.272      2.162
REMARK  Name = 
REMARK  3 active torsions:
REMARK  status: ('A' for Active; 'I' for Inactive)
REMARK    1  A    between atoms: N_3  and  C_4
REMARK    2  A    between atoms: C_15  and  C_20
REMARK    3  A    between atoms: N_25  and  C_26
REMARK                            x       y       z     vdW  Elec       q    Type
REMARK                         _______ _______ _______ _____ _____    ______ ____
ROOT
ATOM      4  C   UNL     1      -0.749   1.791  24.844  0.00  0.00    +0.126 C 
ATOM      5  C   UNL     1      -0.090   1.339  24.637  0.00  0.00    +0.045 C 
ATOM      6  C   UNL     1      -0.346   0.569  24.486  0.00  0.00    +0.096 C 
ATOM      7  N   UNL     1      -1.164   0.546  24.599  0.00  0.00    -0.268 N 
ATOM      8  C   UNL     1      -1.412   1.302  24.820  0.00  0.00    +0.174 C 
ATOM      9  C   UNL     1      -2.176   1.560  24.995  0.00  0.00    +0.265 C 
ATOM     10  O   UNL     1      -2.244   2.357  25.200  0.00  0.00    -0.271 OA
ATOM     11  N   UNL     1      -2.878   1.130  24.992  0.00  0.00    -0.178 NA
ATOM     12  C   UNL     1      -2.993   0.332  24.813  0.00  0.00    +0.078 A 
ATOM     13  C   UNL     1      -3.788   0.119  24.876  0.00  0.00    +0.017 A 
ATOM     14  C   UNL     1      -4.021  -0.656  24.721  0.00  0.00    +0.002 A 
ATOM     15  C   UNL     1      -3.459  -1.220  24.501  0.00  0.00    +0.006 A 
ATOM     16  C   UNL     1      -2.664  -1.007  24.437  0.00  0.00    +0.006 A 
ATOM     17  C   UNL     1      -2.431  -0.231  24.594  0.00  0.00    +0.069 A 
ATOM     18  C   UNL     1      -1.618  -0.135  24.498  0.00  0.00    +0.251 C 
ATOM     19  O   UNL     1      -1.202  -0.811  24.273  0.00  0.00    -0.270 OA
ENDROOT
BRANCH  15  20
ATOM     20  C   UNL     1      -3.692  -1.995  24.345  0.00  0.00    +0.029 A 
ATOM     21  C   UNL     1      -4.225  -2.233  23.761  0.00  0.00    +0.007 A 
ATOM     22  C   UNL     1      -4.295  -3.054  23.801  0.00  0.00    +0.007 A 
ATOM     23  C   UNL     1      -3.807  -3.323  24.409  0.00  0.00    +0.035 A 
ATOM     24  S   UNL     1      -3.435  -2.669  24.745  0.00  0.00    -0.086 S 
ENDBRANCH  15  20
BRANCH   4   3
ATOM      1  O   UNL     1       0.383   2.378  25.891  0.00  0.00    -0.249 OA
ATOM      2  C   UNL     1      -0.179   2.886  25.563  0.00  0.00    +0.339 C 
ATOM      3  N   UNL     1      -0.745   2.592  25.039  0.00  0.00    -0.187 NA
ATOM     25  N   UNL     1      -0.175   3.688  25.759  0.00  0.00    -0.189 NA
BRANCH  25  26
ATOM     26  C   UNL     1      -0.736   4.195  25.431  0.00  0.00    +0.097 C 
ATOM     27  C   UNL     1      -0.588   4.561  24.707  0.00  0.00    +0.022 C 
ATOM     28  C   UNL     1      -1.149   5.068  24.378  0.00  0.00    +0.002 C 
ATOM     29  C   UNL     1      -1.859   5.210  24.774  0.00  0.00    +0.000 C 
ATOM     30  C   UNL     1      -2.007   4.845  25.499  0.00  0.00    +0.002 C 
ATOM     31  C   UNL     1      -1.446   4.337  25.828  0.00  0.00    +0.022 C 
ENDBRANCH  25  26
ENDBRANCH   4   3
TORSDOF 3
ENDMDL
MODEL 3
REMARK VINA RESULT:     -12.3      2.167      5.860
REMARK  Name = 
REMARK  3 active torsions:
REMARK  status: ('A' for Active; 'I' for Inactive)
REMARK    1  A    between atoms: N_3  and  C_4
REMARK    2  A    between atoms: C_15  and  C_20
REMARK    3  A    between atoms: N_25  and  C_26
REMARK                            x       y       z     vdW  Elec       q    Type
REMARK                         _______ _______ _______ _____ _____    ______ ____
ROOT
ATOM      4  C   UNL     1      -1.060  -0.346  24.492  0.00  0.00    +0.126 C 
ATOM      5  C   UNL     1      -0.294  -0.279  24.193  0.00  0.00    +0.045 C 
ATOM      6  C   UNL     1      -0.096   0.522  24.175  0.00  0.00    +0.096 C 
ATOM      7  N   UNL     1      -0.741   0.950  24.462  0.00  0.00    -0.268 N 
ATOM      8  C   UNL     1      -1.337   0.413  24.658  0.00  0.00    +0.174 C 
ATOM      9  C   UNL     1      -2.086   0.567  24.966  0.00  0.00    +0.265 C 
ATOM     10  O   UNL     1      -2.558  -0.095  25.104  0.00  0.00    -0.271 OA
ATOM     11  N   UNL     1      -2.425   1.294  25.155  0.00  0.00    -0.178 NA
ATOM     12  C   UNL     1      -2.099   2.049  25.082  0.00  0.00    +0.078 A 
ATOM     13  C   UNL     1      -2.627   2.632  25.334  0.00  0.00    +0.017 A 
ATOM     14  C   UNL     1      -2.408   3.426  25.307  0.00  0.00    +0.002 A 
ATOM     15  C   UNL     1      -1.661   3.639  25.027  0.00  0.00    +0.006 A 
ATOM     16  C   UNL     1      -1.133   3.056  24.774  0.00  0.00    +0.006 A 
ATOM     17  C   UNL     1      -1.353   2.261  24.802  0.00  0.00    +0.069 A 
ATOM     18  C   UNL     1      -0.749   1.772  24.526  0.00  0.00    +0.251 C 
ATOM     19  O   UNL     1      -0.061   2.156  24.283  0.00  0.00    -0.270 OA
ENDROOT
BRANCH  15  20
ATOM     20  C   UNL     1      -1.442   4.434  24.999  0.00  0.00    +0.029 A 
ATOM     21  C   UNL     1      -0.690   4.724  24.822  0.00  0.00    +0.007 A 
ATOM     22  C   UNL     1      -0.720   5.547  24.858  0.00  0.00    +0.007 A 
ATOM     23  C   UNL     1      -1.490   5.766  25.057  0.00  0.00    +0.035 A 
ATOM     24  S   UNL     1      -1.936   5.078  25.144  0.00  0.00    -0.086 S 
ENDBRANCH  15  20
BRANCH   4   3
ATOM      1  O   UNL     1      -0.292  -1.671  25.107  0.00  0.00    -0.249 OA
ATOM      2  C   UNL     1      -1.092  -1.711  24.912  0.00  0.00    +0.339 C 
ATOM      3  N   UNL     1      -1.477  -1.049  24.604  0.00  0.00    -0.187 NA
ATOM     25  N   UNL     1      -1.509  -2.415  25.025  0.00  0.00    -0.189 NA
BRANCH  25  26
ATOM     26  C   UNL     1      -2.310  -2.455  24.830  0.00  0.00    +0.097 C 
ATOM     27  C   UNL     1      -2.538  -2.608  24.052  0.00  0.00    +0.022 C 
ATOM     28  C   UNL     1      -3.338  -2.649  23.857  0.00  0.00    +0.002 C 
ATOM     29  C   UNL     1      -3.911  -2.537  24.440  0.00  0.00    +0.000 C 
ATOM     30  C   UNL     1      -3.683  -2.384  25.218  0.00  0.00    +0.002 C 
ATOM     31  C   UNL     1      -2.883  -2.343  25.414  0.00  0.00    +0.022 C 
ENDBRANCH  25  26
ENDBRANCH   4   3
TORSDOF 3
ENDMDL
MODEL 4
REMARK VINA RESULT:     -12.0      1.922      5.428
REMARK  Name = 
REMARK  3 active torsions:
REMARK  status: ('A' for Active; 'I' for Inactive)
REMARK    1  A    between atoms: N_3  and  C_4
REMARK    2  A    between atoms: C_15  and  C_20
REMARK    3  A    between atoms: N_25  and  C_26
REMARK                            x       y       z     vdW  Elec       q    Type
REMARK                         _______ _______ _______ _____ _____    ______ ____
ROOT
ATOM      4  C   UNL     1      -3.886   0.224  24.636  0.00  0.00    +0.126 C 
ATOM      5  C   UNL     1      -4.605   0.628  24.643  0.00  0.00    +0.045 C 
ATOM      6  C   UNL     1      -4.443   1.435  24.695  0.00  0.00    +0.096 C 
ATOM      7  N   UNL     1      -3.623   1.530  24.722  0.00  0.00    -0.268 N 
ATOM      8  C   UNL     1      -3.279   0.780  24.685  0.00  0.00    +0.174 C 
ATOM      9  C   UNL     1      -2.478   0.582  24.693  0.00  0.00    +0.265 C 
ATOM     10  O   UNL     1      -2.310  -0.225  24.649  0.00  0.00    -0.271 OA
ATOM     11  N   UNL     1      -1.825   1.082  24.740  0.00  0.00    -0.178 NA
ATOM     12  C   UNL     1      -1.809   1.906  24.790  0.00  0.00    +0.078 A 
ATOM     13  C   UNL     1      -1.036   2.191  24.827  0.00  0.00    +0.017 A 
ATOM     14  C   UNL     1      -0.898   3.003  24.879  0.00  0.00    +0.002 A 
ATOM     15  C   UNL     1      -1.534   3.529  24.895  0.00  0.00    +0.006 A 
ATOM     16  C   UNL     1      -2.307   3.243  24.858  0.00  0.00    +0.006 A 
ATOM     17  C   UNL     1      -2.445   2.431  24.806  0.00  0.00    +0.069 A 
ATOM     18  C   UNL     1      -3.252   2.264  24.775  0.00  0.00    +0.251 C 
ATOM     19  O   UNL     1      -3.754   2.918  24.802  0.00  0.00    -0.270 OA
ENDROOT
BRANCH  15  20
ATOM     20  C   UNL     1      -1.396   4.341  24.947  0.00  0.00    +0.029 A 
ATOM     21  C   UNL     1      -1.912   4.901  25.265  0.00  0.00    +0.007 A 
ATOM     22  C   UNL     1      -1.552   5.640  25.205  0.00  0.00    +0.007 A 
ATOM     23  C   UNL     1      -0.814   5.538  24.850  0.00  0.00    +0.035 A 
ATOM     24  S   UNL     1      -0.718   4.735  24.691  0.00  0.00    -0.086 S 
ENDBRANCH  15  20
BRANCH   4   3
ATOM      1  O   UNL     1      -5.049  -0.703  23.921  0.00  0.00    -0.249 OA
ATOM      2  C   UNL     1      -4.371  -1.058  24.232  0.00  0.00    +0.339 C 
ATOM      3  N   UNL     1      -3.790  -0.595  24.589  0.00  0.00    -0.187 NA
ATOM     25  N   UNL     1      -4.275  -1.876  24.185  0.00  0.00    -0.189 NA
BRANCH  25  26
ATOM     26  C   UNL     1      -3.598  -2.231  24.496  0.00  0.00    +0.097 C 
ATOM     27  C   UNL     1      -2.965  -2.415  24.000  0.00  0.00    +0.022 C 
ATOM     28  C   UNL     1      -2.288  -2.770  24.310  0.00  0.00    +0.002 C 
ATOM     29  C   UNL     1      -2.244  -2.940  25.116  0.00  0.00    +0.000 C 
ATOM     30  C   UNL     1      -2.878  -2.755  25.612  0.00  0.00    +0.002 C 
ATOM     31  C   UNL     1      -3.555  -2.401  25.302  0.00  0.00    +0.022 C 
ENDBRANCH  25  26
ENDBRANCH   4   3
TORSDOF 3
ENDMDL
MODEL 5
REMARK VINA RESULT:     -10.4      3.363      5.307
REMARK  Name = 
REMARK  3 active torsions:
REMARK  status: ('A' for Active; 'I' for Inactive)
REMARK    1  A    between atoms: N_3  and  C_4
REMARK    2  A    between atoms: C_15  and  C_20
REMARK    3  A    between atoms: N_25  and  C_26
REMARK                            x       y       z     vdW  Elec       q    Type
REMARK                         _______ _______ _______ _____ _____    ______ ____
ROOT
ATOM      4  C   UNL     1      -1.553   1.164  24.738  0.00  0.00    +0.126 C 
ATOM      5  C   UNL     1      -1.337   1.873  25.101  0.00  0.00    +0.045 C 
ATOM      6  C   UNL     1      -0.543   2.016  24.928  0.00  0.00    +0.096 C 
ATOM      7  N   UNL     1      -0.269   1.395  24.458  0.00  0.00    -0.268 N 
ATOM      8  C   UNL     1      -0.894   0.869  24.341  0.00  0.00    +0.174 C 
ATOM      9  C   UNL     1      -0.899   0.165  23.911  0.00  0.00    +0.265 C 
ATOM     10  O   UNL     1      -1.617  -0.241  23.898  0.00  0.00    -0.271 OA
ATOM     11  N   UNL     1      -0.282  -0.187  23.493  0.00  0.00    -0.178 NA
ATOM     12  C   UNL     1       0.494   0.078  23.400  0.00  0.00    +0.078 A 
ATOM     13  C   UNL     1       0.937  -0.441  22.936  0.00  0.00    +0.017 A 
ATOM     14  C   UNL     1       1.730  -0.278  22.776  0.00  0.00    +0.002 A 
ATOM     15  C   UNL     1       2.079   0.406  23.080  0.00  0.00    +0.006 A 
ATOM     16  C   UNL     1       1.636   0.925  23.544  0.00  0.00    +0.006 A 
ATOM     17  C   UNL     1       0.843   0.761  23.704  0.00  0.00    +0.069 A 
ATOM     18  C   UNL     1       0.504   1.347  24.174  0.00  0.00    +0.251 C 
ATOM     19  O   UNL     1       1.003   1.967  24.390  0.00  0.00    -0.270 OA
ENDROOT
BRANCH  15  20
ATOM     20  C   UNL     1       2.872   0.569  22.919  0.00  0.00    +0.029 A 
ATOM     21  C   UNL     1       3.185   1.307  22.722  0.00  0.00    +0.007 A 
ATOM     22  C   UNL     1       3.996   1.217  22.609  0.00  0.00    +0.007 A 
ATOM     23  C   UNL     1       4.186   0.424  22.737  0.00  0.00    +0.035 A 
ATOM     24  S   UNL     1       3.491   0.024  22.928  0.00  0.00    -0.086 S 
ENDBRANCH  15  20
BRANCH   4   3
ATOM      1  O   UNL     1      -2.900   2.099  24.934  0.00  0.00    -0.249 OA
ATOM      2  C   UNL     1      -2.972   1.280  24.865  0.00  0.00    +0.339 C 
ATOM      3  N   UNL     1      -2.299   0.812  24.768  0.00  0.00    -0.187 NA
ATOM     25  N   UNL     1      -3.718   0.928  24.895  0.00  0.00    -0.189 NA
BRANCH  25  26
ATOM     26  C   UNL     1      -3.791   0.109  24.826  0.00  0.00    +0.097 C 
ATOM     27  C   UNL     1      -3.994  -0.228  24.101  0.00  0.00    +0.022 C 
ATOM     28  C   UNL     1      -4.066  -1.046  24.032  0.00  0.00    +0.002 C 
ATOM     29  C   UNL     1      -3.936  -1.529  24.689  0.00  0.00    +0.000 C 
ATOM     30  C   UNL     1      -3.734  -1.192  25.414  0.00  0.00    +0.002 C 
ATOM     31  C   UNL     1      -3.661  -0.373  25.484  0.00  0.00    +0.022 C 
ENDBRANCH  25  26
ENDBRANCH   4   3
TORSDOF 3
ENDMDL
MODEL 6
REMARK VINA RESULT:     -10.2      2.322      4.000
REMARK  Name = 
REMARK  3 active torsions:
REMARK  status: ('A' for Active; 'I' for Inactive)
REMARK    1  A    between atoms: N_3  and  C_4
REMARK    2  A    between atoms: C_15  and  C_20
REMARK    3  A    between atoms: N_25  and  C_26
REMARK                            x       y       z     vdW  Elec       q    Type
REMARK                         _______ _______ _______ _____ _____    ______ ____
ROOT
ATOM      4  C   UNL     1      -2.791   3.128  24.994  0.00  0.00    +0.126 C 
ATOM      5  C   UNL     1      -2.346   3.822  24.958  0.00  0.00    +0.045 C 
ATOM      6  C   UNL     1      -1.594   3.628  24.680  0.00  0.00    +0.096 C 
ATOM      7  N   UNL     1      -1.574   2.814  24.545  0.00  0.00    -0.268 N 
ATOM      8  C   UNL     1      -2.315   2.505  24.739  0.00  0.00    +0.174 C 
ATOM      9  C   UNL     1      -2.571   1.722  24.699  0.00  0.00    +0.265 C 
ATOM     10  O   UNL     1      -3.351   1.590  24.934  0.00  0.00    -0.271 OA
ATOM     11  N   UNL     1      -2.152   1.055  24.456  0.00  0.00    -0.178 NA
ATOM     12  C   UNL     1      -1.371   1.006  24.192  0.00  0.00    +0.078 A 
ATOM     13  C   UNL     1      -1.166   0.229  24.002  0.00  0.00    +0.017 A 
ATOM     14  C   UNL     1      -0.408   0.059  23.726  0.00  0.00    +0.002 A 
ATOM     15  C   UNL     1       0.146   0.666  23.640  0.00  0.00    +0.006 A 
ATOM     16  C   UNL     1      -0.060   1.442  23.830  0.00  0.00    +0.006 A 
ATOM     17  C   UNL     1      -0.819   1.612  24.106  0.00  0.00    +0.069 A 
ATOM     18  C   UNL     1      -0.909   2.416  24.264  0.00  0.00    +0.251 C 
ATOM     19  O   UNL     1      -0.246   2.886  24.120  0.00  0.00    -0.270 OA
ENDROOT
BRANCH  15  20
ATOM     20  C   UNL     1       0.904   0.495  23.364  0.00  0.00    +0.029 A 
ATOM     21  C   UNL     1       1.598   0.890  23.576  0.00  0.00    +0.007 A 
ATOM     22  C   UNL     1       2.224   0.538  23.171  0.00  0.00    +0.007 A 
ATOM     23  C   UNL     1       1.918  -0.072  22.708  0.00  0.00    +0.035 A 
ATOM     24  S   UNL     1       1.103  -0.099  22.828  0.00  0.00    -0.086 S 
ENDBRANCH  15  20
BRANCH   4   3
ATOM      1  O   UNL     1      -3.382   4.175  26.125  0.00  0.00    -0.249 OA
ATOM      2  C   UNL     1      -3.871   3.591  25.808  0.00  0.00    +0.339 C 
ATOM      3  N   UNL     1      -3.576   3.067  25.242  0.00  0.00    -0.187 NA
ATOM     25  N   UNL     1      -4.656   3.530  26.056  0.00  0.00    -0.189 NA
BRANCH  25  26
ATOM     26  C   UNL     1      -5.145   2.946  25.738  0.00  0.00    +0.097 C 
ATOM     27  C   UNL     1      -5.318   2.270  26.178  0.00  0.00    +0.022 C 
ATOM     28  C   UNL     1      -5.807   1.686  25.861  0.00  0.00    +0.002 C 
ATOM     29  C   UNL     1      -6.123   1.778  25.104  0.00  0.00    +0.000 C 
ATOM     30  C   UNL     1      -5.950   2.455  24.665  0.00  0.00    +0.002 C 
ATOM     31  C   UNL     1      -5.461   3.039  24.982  0.00  0.00    +0.022 C 
ENDBRANCH  25  26
ENDBRANCH   4   3
TORSDOF 3
ENDMDL
MODEL 7
REMARK VINA RESULT:      -9.7     17.517     19.139
REMARK  Name = 
REMARK  3 active torsions:
REMARK  status: ('A' for Active; 'I' for Inactive)
REMARK    1  A    between atoms: N_3  and  C_4
REMARK    2  A    between atoms: C_15  and  C_20
REMARK    3  A    between atoms: N_25  and  C_26
REMARK                            x       y       z     vdW  Elec       q    Type
REMARK                         _______ _______ _______ _____ _____    ______ ____
ROOT
ATOM      4  C   UNL     1      13.829   7.235  20.413  0.00  0.00    +0.126 C 
ATOM      5  C   UNL     1      13.137   6.903  20.716  0.00  0.00    +0.045 C 
ATOM      6  C   UNL     1      12.528   7.050  20.179  0.00  0.00    +0.096 C 
ATOM      7  N   UNL     1      12.844   7.474  19.545  0.00  0.00    -0.268 N 
ATOM      8  C   UNL     1      13.649   7.587  19.690  0.00  0.00    +0.174 C 
ATOM      9  C   UNL     1      14.206   7.977  19.222  0.00  0.00    +0.265 C 
ATOM     10  O   UNL     1      14.974   7.997  19.523  0.00  0.00    -0.271 OA
ATOM     11  N   UNL     1      14.096   8.349  18.495  0.00  0.00    -0.178 NA
ATOM     12  C   UNL     1      13.403   8.424  18.054  0.00  0.00    +0.078 A 
ATOM     13  C   UNL     1      13.534   8.840  17.353  0.00  0.00    +0.017 A 
ATOM     14  C   UNL     1      12.910   8.976  16.831  0.00  0.00    +0.002 A 
ATOM     15  C   UNL     1      12.154   8.696  17.010  0.00  0.00    +0.006 A 
ATOM     16  C   UNL     1      12.023   8.280  17.711  0.00  0.00    +0.006 A 
ATOM     17  C   UNL     1      12.648   8.145  18.233  0.00  0.00    +0.069 A 
ATOM     18  C   UNL     1      12.399   7.722  18.896  0.00  0.00    +0.251 C 
ATOM     19  O   UNL     1      11.600   7.520  18.914  0.00  0.00    -0.270 OA
ENDROOT
BRANCH  15  20
ATOM     20  C   UNL     1      11.530   8.832  16.488  0.00  0.00    +0.029 A 
ATOM     21  C   UNL     1      10.727   8.829  16.681  0.00  0.00    +0.007 A 
ATOM     22  C   UNL     1      10.301   8.990  15.994  0.00  0.00    +0.007 A 
ATOM     23  C   UNL     1      10.839   9.092  15.377  0.00  0.00    +0.035 A 
ATOM     24  S   UNL     1      11.598   8.995  15.683  0.00  0.00    -0.086 S 
ENDBRANCH  15  20
BRANCH   4   3
ATOM      1  O   UNL     1      13.969   7.506  22.035  0.00  0.00    -0.249 OA
ATOM      2  C   UNL     1      14.642   7.353  21.583  0.00  0.00    +0.339 C 
ATOM      3  N   UNL     1      14.573   7.217  20.772  0.00  0.00    -0.187 NA
ATOM     25  N   UNL     1      15.386   7.335  21.942  0.00  0.00    -0.189 NA
BRANCH  25  26
ATOM     26  C   UNL     1      16.058   7.181  21.489  0.00  0.00    +0.097 C 
ATOM     27  C   UNL     1      16.545   7.803  21.251  0.00  0.00    +0.022 C 
ATOM     28  C   UNL     1      17.218   7.650  20.799  0.00  0.00    +0.002 C 
ATOM     29  C   UNL     1      17.404   6.875  20.585  0.00  0.00    +0.000 C 
ATOM     30  C   UNL     1      16.916   6.253  20.823  0.00  0.00    +0.002 C 
ATOM     31  C   UNL     1      16.244   6.406  21.276  0.00  0.00    +0.022 C 
ENDBRANCH  25  26
ENDBRANCH   4   3
TORSDOF 3
ENDMDL
MODEL 8
REMARK VINA RESULT:      -9.6      3.821      5.701
REMARK  Name = 
REMARK  3 active torsions:
REMARK  status: ('A' for Active; 'I' for Inactive)
REMARK    1  A    between atoms: N_3  and  C_4
REMARK    2  A    between atoms: C_15  and  C_20
REMARK    3  A    between atoms: N_25  and  C_26
REMARK                            x       y       z     vdW  Elec       q    Type
REMARK                         _______ _______ _______ _____ _____    ______ ____
ROOT
ATOM      4  C   UNL     1       0.784   0.266  23.507  0.00  0.00    +0.126 C 
ATOM      5  C   UNL     1       0.234  -0.343  23.585  0.00  0.00    +0.045 C 
ATOM      6  C   UNL     1      -0.444  -0.031  23.937  0.00  0.00    +0.096 C 
ATOM      7  N   UNL     1      -0.312   0.771  24.077  0.00  0.00    -0.268 N 
ATOM      8  C   UNL     1       0.448   0.955  23.812  0.00  0.00    +0.174 C 
ATOM      9  C   UNL     1       0.837   1.682  23.829  0.00  0.00    +0.265 C 
ATOM     10  O   UNL     1       1.601   1.686  23.518  0.00  0.00    -0.271 OA
ATOM     11  N   UNL     1       0.563   2.405  24.116  0.00  0.00    -0.178 NA
ATOM     12  C   UNL     1      -0.168   2.580  24.457  0.00  0.00    +0.078 A 
ATOM     13  C   UNL     1      -0.218   3.376  24.671  0.00  0.00    +0.017 A 
ATOM     14  C   UNL     1      -0.906   3.666  25.022  0.00  0.00    +0.002 A 
ATOM     15  C   UNL     1      -1.544   3.160  25.159  0.00  0.00    +0.006 A 
ATOM     16  C   UNL     1      -1.493   2.364  24.946  0.00  0.00    +0.006 A 
ATOM     17  C   UNL     1      -0.805   2.075  24.595  0.00  0.00    +0.069 A 
ATOM     18  C   UNL     1      -0.869   1.270  24.426  0.00  0.00    +0.251 C 
ATOM     19  O   UNL     1      -1.585   0.917  24.632  0.00  0.00    -0.270 OA
ENDROOT
BRANCH  15  20
ATOM     20  C   UNL     1      -2.231   3.450  25.511  0.00  0.00    +0.029 A 
ATOM     21  C   UNL     1      -2.317   3.669  26.302  0.00  0.00    +0.007 A 
ATOM     22  C   UNL     1      -3.092   3.926  26.412  0.00  0.00    +0.007 A 
ATOM     23  C   UNL     1      -3.486   3.867  25.689  0.00  0.00    +0.035 A 
ATOM     24  S   UNL     1      -2.954   3.573  25.133  0.00  0.00    -0.086 S 
ENDBRANCH  15  20
BRANCH   4   3
ATOM      1  O   UNL     1       0.982  -0.398  22.009  0.00  0.00    -0.249 OA
ATOM      2  C   UNL     1       1.638  -0.134  22.433  0.00  0.00    +0.339 C 
ATOM      3  N   UNL     1       1.540   0.199  23.182  0.00  0.00    -0.187 NA
ATOM     25  N   UNL     1       2.394  -0.201  22.108  0.00  0.00    -0.189 NA
BRANCH  25  26
ATOM     26  C   UNL     1       3.051   0.063  22.532  0.00  0.00    +0.097 C 
ATOM     27  C   UNL     1       3.373   0.805  22.372  0.00  0.00    +0.022 C 
ATOM     28  C   UNL     1       4.029   1.070  22.795  0.00  0.00    +0.002 C 
ATOM     29  C   UNL     1       4.364   0.593  23.380  0.00  0.00    +0.000 C 
ATOM     30  C   UNL     1       4.040  -0.149  23.540  0.00  0.00    +0.002 C 
ATOM     31  C   UNL     1       3.384  -0.415  23.117  0.00  0.00    +0.022 C 
ENDBRANCH  25  26
ENDBRANCH   4   3
TORSDOF 3
ENDMDL
MODEL 9
REMARK VINA RESULT:      -9.1      2.224      5.060
REMARK  Name = 
REMARK  3 active torsions:
REMARK  status: ('A' for Active; 'I' for Inactive)
REMARK    1  A    between atoms: N_3  and  C_4
REMARK    2  A    between atoms: C_15  and  C_20
REMARK    3  A    between atoms: N_25  and  C_26
REMARK                            x       y       z     vdW  Elec       q    Type
REMARK                         _______ _______ _______ _____ _____    ______ ____
ROOT
ATOM      4  C   UNL     1      -1.259   0.988  24.734  0.00  0.00    +0.126 C 
ATOM      5  C   UNL     1      -0.780   1.655  24.810  0.00  0.00    +0.045 C 
ATOM      6  C   UNL     1      -1.269   2.307  24.939  0.00  0.00    +0.096 C 
ATOM      7  N   UNL     1      -2.051   2.042  24.943  0.00  0.00    -0.268 N 
ATOM      8  C   UNL     1      -2.044   1.226  24.816  0.00  0.00    +0.174 C 
ATOM      9  C   UNL     1      -2.685   0.709  24.772  0.00  0.00    +0.265 C 
ATOM     10  O   UNL     1      -2.495  -0.083  24.638  0.00  0.00    -0.271 OA
ATOM     11  N   UNL     1      -3.489   0.877  24.844  0.00  0.00    -0.178 NA
ATOM     12  C   UNL     1      -3.852   1.606  24.978  0.00  0.00    +0.078 A 
ATOM     13  C   UNL     1      -4.673   1.531  25.013  0.00  0.00    +0.017 A 
ATOM     14  C   UNL     1      -5.143   2.197  25.143  0.00  0.00    +0.002 A 
ATOM     15  C   UNL     1      -4.790   2.938  25.238  0.00  0.00    +0.006 A 
ATOM     16  C   UNL     1      -3.969   3.012  25.203  0.00  0.00    +0.006 A 
ATOM     17  C   UNL     1      -3.500   2.345  25.072  0.00  0.00    +0.069 A 
ATOM     18  C   UNL     1      -2.699   2.540  25.057  0.00  0.00    +0.251 C 
ATOM     19  O   UNL     1      -2.521   3.337  25.171  0.00  0.00    -0.270 OA
ENDROOT
BRANCH  15  20
ATOM     20  C   UNL     1      -5.259   3.604  25.368  0.00  0.00    +0.029 A 
ATOM     21  C   UNL     1      -5.091   4.372  25.118  0.00  0.00    +0.007 A 
ATOM     22  C   UNL     1      -5.707   4.861  25.367  0.00  0.00    +0.007 A 
ATOM     23  C   UNL     1      -6.256   4.395  25.769  0.00  0.00    +0.035 A 
ATOM     24  S   UNL     1      -5.979   3.618  25.770  0.00  0.00    -0.086 S 
ENDBRANCH  15  20
BRANCH   4   3
ATOM      1  O   UNL     1       0.093   0.720  23.826  0.00  0.00    -0.249 OA
ATOM      2  C   UNL     1      -0.323   0.083  24.146  0.00  0.00    +0.339 C 
ATOM      3  N   UNL     1      -0.999   0.216  24.600  0.00  0.00    -0.187 NA
ATOM     25  N   UNL     1      -0.063  -0.689  24.011  0.00  0.00    -0.189 NA
BRANCH  25  26
ATOM     26  C   UNL     1      -0.478  -1.326  24.330  0.00  0.00    +0.097 C 
ATOM     27  C   UNL     1      -0.359  -1.544  25.117  0.00  0.00    +0.022 C 
ATOM     28  C   UNL     1      -0.774  -2.181  25.436  0.00  0.00    +0.002 C 
ATOM     29  C   UNL     1      -1.309  -2.600  24.969  0.00  0.00    +0.000 C 
ATOM     30  C   UNL     1      -1.429  -2.382  24.182  0.00  0.00    +0.002 C 
ATOM     31  C   UNL     1      -1.014  -1.745  23.862  0.00  0.00    +0.022 C 
ENDBRANCH  25  26
ENDBRANCH   4   3
TORSDOF 3
ENDMDL
