REMARK  Name = 
REMARK  6 active torsions:
REMARK  status: ('A' for Active; 'I' for Inactive)
REMARK    1  A    between atoms: O_2  and  C_3
REMARK    2  A    between atoms: C_3  and  C_4
REMARK    3  A    between atoms: C_4  and  N_5
REMARK    4  A    between atoms: C_11  and  C_13
REMARK    5  A    between atoms: C_13  and  C_14
REMARK    6  A    between atoms: C_32  and  N_35
REMARK                            x       y       z     vdW  Elec       q    Type
REMARK                         _______ _______ _______ _____ _____    ______ ____
ROOT
ATOM     14  C   UNL     1       7.934  -0.162   0.000  0.00  0.00    +0.012 C 
ATOM     15  C   UNL     1       8.157   0.632   0.000  0.00  0.00    +0.022 C 
ATOM     16  C   UNL     1       7.580   1.222   0.000  0.00  0.00    +0.093 C 
ATOM     17  N   UNL     1       6.802   1.092   0.000  0.00  0.00    -0.278 N 
ATOM     18  C   UNL     1       6.558   0.223   0.000  0.00  0.00    +0.093 C 
ATOM     19  C   UNL     1       6.893  -0.532   0.000  0.00  0.00    +0.021 C 
ATOM     20  C   UNL     1       6.278  -1.083   0.000  0.00  0.00    +0.006 C 
ATOM     21  C   UNL     1       5.565  -0.668   0.000  0.00  0.00    +0.047 C 
ATOM     22  C   UNL     1       4.674  -0.816   0.000  0.00  0.00    +0.205 C 
ATOM     23  O   UNL     1       4.281  -0.514   0.000  0.00  0.00    -0.476 OA
ATOM     24  C   UNL     1       4.380   0.582   0.000  0.00  0.00    +0.136 A 
ATOM     25  C   UNL     1       3.829   1.197   0.000  0.00  0.00    +0.030 A 
ATOM     26  C   UNL     1       4.085   1.981   0.000  0.00  0.00    +0.119 C 
ATOM     27  N   UNL     1       4.893   2.151   0.000  0.00  0.00    -0.204 NA
ATOM     28  C   UNL     1       5.444   1.536   0.000  0.00  0.00    +0.174 C 
ATOM     29  C   UNL     1       6.251   1.706   0.000  0.00  0.00    +0.243 C 
ATOM     30  O   UNL     1       6.507   2.490   0.000  0.00  0.00    -0.273 OA
ATOM     31  C   UNL     1       3.022   1.027   0.000  0.00  0.00    +0.015 A 
ATOM     32  C   UNL     1       2.765   0.243   0.000  0.00  0.00    +0.048 A 
ATOM     33  C   UNL     1       3.316  -0.372   0.000  0.00  0.00    +0.018 A 
ATOM     34  C   UNL     1       4.123  -0.202   0.000  0.00  0.00    +0.038 A 
ENDROOT
BRANCH  32  35
ATOM     35  N   UNL     1       1.958   0.073   0.000  0.00  0.00    -0.303 N 
ATOM     36  C   UNL     1       1.701  -0.711   0.000  0.00  0.00    +0.123 C 
ATOM     37  C   UNL     1       0.894  -0.881   0.000  0.00  0.00    +0.164 C 
ATOM     38  O   UNL     1       0.343  -0.267   0.000  0.00  0.00    -0.350 OA
ATOM     39  C   UNL     1       0.600   0.517   0.000  0.00  0.00    +0.164 C 
ATOM     40  C   UNL     1       1.407   0.687   0.000  0.00  0.00    +0.123 C 
ENDBRANCH  32  35
BRANCH  14  13
ATOM     13  C   UNL     1       8.537  -0.726   0.000  0.00  0.00    +0.085 C 
BRANCH  13  11
ATOM      5  N   UNL     1      11.135  -2.175   0.000  0.00  0.00    -0.268 NA
ATOM      6  C   UNL     1      10.346  -2.415   0.000  0.00  0.00    +0.094 C 
ATOM      7  C   UNL     1       9.743  -1.852   0.000  0.00  0.00    +0.111 C 
ATOM      8  N   UNL     1       9.929  -1.048   0.000  0.00  0.00    -0.277 N 
ATOM      9  C   UNL     1      10.719  -0.808   0.000  0.00  0.00    +0.111 C 
ATOM     10  C   UNL     1      11.321  -1.371   0.000  0.00  0.00    +0.094 C 
ATOM     11  C   UNL     1       9.327  -0.485   0.000  0.00  0.00    +0.226 C 
ATOM     12  O   UNL     1       9.513   0.319   0.000  0.00  0.00    -0.275 OA
BRANCH   5   4
ATOM      4  C   UNL     1      11.738  -2.738   0.000  0.00  0.00    +0.105 C 
BRANCH   4   3
ATOM      3  C   UNL     1      12.527  -2.497   0.000  0.00  0.00    +0.160 C 
BRANCH   3   2
ATOM      1  C   UNL     1      13.919  -2.820   0.000  0.00  0.00    +0.174 C 
ATOM      2  O   UNL     1      13.130  -3.061   0.000  0.00  0.00    -0.350 OA
ENDBRANCH   3   2
ENDBRANCH   4   3
ENDBRANCH   5   4
ENDBRANCH  13  11
ENDBRANCH  14  13
TORSDOF 6
