MODEL 1
REMARK VINA RESULT:     -11.4      0.000      0.000
REMARK  Name = 
REMARK  4 active torsions:
REMARK  status: ('A' for Active; 'I' for Inactive)
REMARK    1  A    between atoms: C_8  and  C_10
REMARK    2  A    between atoms: C_10  and  C_11
REMARK    3  A    between atoms: C_13  and  C_14
REMARK    4  A    between atoms: C_14  and  N_15
REMARK                            x       y       z     vdW  Elec       q    Type
REMARK                         _______ _______ _______ _____ _____    ______ ____
ROOT
ATOM     11  C   UNL     1      -4.756   1.318  24.916  0.00  0.00    +0.157 C 
ATOM     12  O   UNL     1      -4.111   1.818  25.039  0.00  0.00    -0.351 OA
ATOM     13  C   UNL     1      -4.402   2.569  25.215  0.00  0.00    +0.170 C 
ATOM     24  C   UNL     1      -5.226   2.533  25.201  0.00  0.00    +0.213 C 
ATOM     25  O   UNL     1      -5.741   3.162  25.347  0.00  0.00    -0.218 OA
ATOM     26  C   UNL     1      -5.445   1.760  25.016  0.00  0.00    +0.212 C 
ATOM     27  O   UNL     1      -6.217   1.478  24.945  0.00  0.00    -0.218 OA
ENDROOT
BRANCH  11  10
ATOM     10  C   UNL     1      -4.719   0.516  24.726  0.00  0.00    +0.117 C 
BRANCH  10   8
ATOM      1  C   UNL     1      -3.548  -3.018  24.062  0.00  0.00    +0.000 C 
ATOM      2  C   UNL     1      -3.725  -2.262  24.341  0.00  0.00    +0.003 C 
ATOM      3  C   UNL     1      -4.187  -1.752  23.887  0.00  0.00    +0.022 C 
ATOM      4  C   UNL     1      -4.365  -0.996  24.167  0.00  0.00    +0.093 C 
ATOM      5  N   UNL     1      -4.079  -0.751  24.900  0.00  0.00    -0.279 N 
ATOM      6  C   UNL     1      -3.617  -1.261  25.355  0.00  0.00    +0.093 C 
ATOM      7  C   UNL     1      -3.440  -2.016  25.076  0.00  0.00    +0.022 C 
ATOM      8  C   UNL     1      -4.256   0.005  25.180  0.00  0.00    +0.228 C 
ATOM      9  O   UNL     1      -3.971   0.251  25.915  0.00  0.00    -0.275 OA
ENDBRANCH  10   8
ENDBRANCH  11  10
BRANCH  13  14
ATOM     14  C   UNL     1      -3.948   3.239  25.377  0.00  0.00    +0.149 C 
BRANCH  14  15
ATOM     15  N   UNL     1      -3.166   3.280  25.118  0.00  0.00    -0.186 NA
ATOM     16  C   UNL     1      -2.702   3.935  25.310  0.00  0.00    +0.323 C 
ATOM     17  O   UNL     1      -3.020   4.549  25.759  0.00  0.00    -0.251 OA
ATOM     18  N   UNL     1      -1.920   3.975  25.051  0.00  0.00    -0.258 N 
ATOM     19  C   UNL     1      -1.456   4.630  25.242  0.00  0.00    +0.127 C 
ATOM     20  C   UNL     1      -0.674   4.671  24.985  0.00  0.00    +0.164 C 
ATOM     21  O   UNL     1      -0.354   4.057  24.535  0.00  0.00    -0.350 OA
ATOM     22  C   UNL     1      -0.819   3.402  24.344  0.00  0.00    +0.164 C 
ATOM     23  C   UNL     1      -1.601   3.362  24.602  0.00  0.00    +0.127 C 
ENDBRANCH  14  15
ENDBRANCH  13  14
TORSDOF 4
ENDMDL
MODEL 2
REMARK VINA RESULT:     -10.1      1.079      4.962
REMARK  Name = 
REMARK  4 active torsions:
REMARK  status: ('A' for Active; 'I' for Inactive)
REMARK    1  A    between atoms: C_8  and  C_10
REMARK    2  A    between atoms: C_10  and  C_11
REMARK    3  A    between atoms: C_13  and  C_14
REMARK    4  A    between atoms: C_14  and  N_15
REMARK                            x       y       z     vdW  Elec       q    Type
REMARK                         _______ _______ _______ _____ _____    ______ ____
ROOT
ATOM     11  C   UNL     1      -4.097   2.405  25.109  0.00  0.00    +0.157 C 
ATOM     12  O   UNL     1      -3.891   1.653  24.837  0.00  0.00    -0.351 OA
ATOM     13  C   UNL     1      -4.576   1.193  24.818  0.00  0.00    +0.170 C 
ATOM     24  C   UNL     1      -5.204   1.661  25.077  0.00  0.00    +0.213 C 
ATOM     25  O   UNL     1      -5.991   1.421  25.145  0.00  0.00    -0.218 OA
ATOM     26  C   UNL     1      -4.908   2.409  25.257  0.00  0.00    +0.212 C 
ATOM     27  O   UNL     1      -5.347   3.050  25.536  0.00  0.00    -0.218 OA
ENDROOT
BRANCH  11  10
ATOM     10  C   UNL     1      -3.581   3.040  25.213  0.00  0.00    +0.117 C 
BRANCH  10   8
ATOM      1  C   UNL     1      -0.629   5.381  24.897  0.00  0.00    +0.000 C 
ATOM      2  C   UNL     1      -1.165   4.762  24.998  0.00  0.00    +0.003 C 
ATOM      3  C   UNL     1      -1.974   4.897  24.909  0.00  0.00    +0.022 C 
ATOM      4  C   UNL     1      -2.510   4.278  25.011  0.00  0.00    +0.093 C 
ATOM      5  N   UNL     1      -2.236   3.524  25.201  0.00  0.00    -0.279 N 
ATOM      6  C   UNL     1      -1.428   3.387  25.290  0.00  0.00    +0.093 C 
ATOM      7  C   UNL     1      -0.892   4.007  25.189  0.00  0.00    +0.022 C 
ATOM      8  C   UNL     1      -2.772   2.905  25.302  0.00  0.00    +0.228 C 
ATOM      9  O   UNL     1      -2.499   2.149  25.493  0.00  0.00    -0.275 OA
ENDBRANCH  10   8
ENDBRANCH  11  10
BRANCH  13  14
ATOM     14  C   UNL     1      -4.624   0.404  24.580  0.00  0.00    +0.149 C 
BRANCH  14  15
ATOM     15  N   UNL     1      -3.978  -0.098  24.685  0.00  0.00    -0.186 NA
ATOM     16  C   UNL     1      -4.023  -0.884  24.438  0.00  0.00    +0.323 C 
ATOM     17  O   UNL     1      -4.713  -1.167  24.086  0.00  0.00    -0.251 OA
ATOM     18  N   UNL     1      -3.377  -1.386  24.542  0.00  0.00    -0.258 N 
ATOM     19  C   UNL     1      -3.421  -2.172  24.295  0.00  0.00    +0.127 C 
ATOM     20  C   UNL     1      -2.776  -2.674  24.398  0.00  0.00    +0.164 C 
ATOM     21  O   UNL     1      -2.085  -2.391  24.750  0.00  0.00    -0.350 OA
ATOM     22  C   UNL     1      -2.040  -1.605  24.997  0.00  0.00    +0.164 C 
ATOM     23  C   UNL     1      -2.686  -1.103  24.893  0.00  0.00    +0.127 C 
ENDBRANCH  14  15
ENDBRANCH  13  14
TORSDOF 4
ENDMDL
MODEL 3
REMARK VINA RESULT:     -10.1      2.372      6.053
REMARK  Name = 
REMARK  4 active torsions:
REMARK  status: ('A' for Active; 'I' for Inactive)
REMARK    1  A    between atoms: C_8  and  C_10
REMARK    2  A    between atoms: C_10  and  C_11
REMARK    3  A    between atoms: C_13  and  C_14
REMARK    4  A    between atoms: C_14  and  N_15
REMARK                            x       y       z     vdW  Elec       q    Type
REMARK                         _______ _______ _______ _____ _____    ______ ____
ROOT
ATOM     11  C   UNL     1      -0.207   1.111  24.448  0.00  0.00    +0.157 C 
ATOM     12  O   UNL     1      -0.717   0.532  24.742  0.00  0.00    -0.351 OA
ATOM     13  C   UNL     1      -0.499  -0.191  24.410  0.00  0.00    +0.170 C 
ATOM     24  C   UNL     1       0.145  -0.059  23.912  0.00  0.00    +0.213 C 
ATOM     25  O   UNL     1       0.540  -0.632  23.467  0.00  0.00    -0.218 OA
ATOM     26  C   UNL     1       0.325   0.745  23.935  0.00  0.00    +0.212 C 
ATOM     27  O   UNL     1       0.932   1.119  23.519  0.00  0.00    -0.218 OA
ENDROOT
BRANCH  11  10
ATOM     10  C   UNL     1      -0.227   1.914  24.635  0.00  0.00    +0.117 C 
BRANCH  10   8
ATOM      1  C   UNL     1      -1.675   5.363  25.187  0.00  0.00    +0.000 C 
ATOM      2  C   UNL     1      -1.445   4.571  25.191  0.00  0.00    +0.003 C 
ATOM      3  C   UNL     1      -0.915   4.291  24.623  0.00  0.00    +0.022 C 
ATOM      4  C   UNL     1      -0.686   3.499  24.627  0.00  0.00    +0.093 C 
ATOM      5  N   UNL     1      -0.986   2.986  25.198  0.00  0.00    -0.279 N 
ATOM      6  C   UNL     1      -1.516   3.264  25.766  0.00  0.00    +0.093 C 
ATOM      7  C   UNL     1      -1.746   4.056  25.762  0.00  0.00    +0.022 C 
ATOM      8  C   UNL     1      -0.757   2.193  25.202  0.00  0.00    +0.228 C 
ATOM      9  O   UNL     1      -1.057   1.679  25.774  0.00  0.00    -0.275 OA
ENDBRANCH  10   8
ENDBRANCH  11  10
BRANCH  13  14
ATOM     14  C   UNL     1      -0.862  -0.919  24.552  0.00  0.00    +0.149 C 
BRANCH  14  15
ATOM     15  N   UNL     1      -1.668  -1.012  24.406  0.00  0.00    -0.186 NA
ATOM     16  C   UNL     1      -2.024  -1.749  24.515  0.00  0.00    +0.323 C 
ATOM     17  O   UNL     1      -1.574  -2.391  24.771  0.00  0.00    -0.251 OA
ATOM     18  N   UNL     1      -2.830  -1.843  24.370  0.00  0.00    -0.258 N 
ATOM     19  C   UNL     1      -3.186  -2.580  24.479  0.00  0.00    +0.127 C 
ATOM     20  C   UNL     1      -3.992  -2.674  24.334  0.00  0.00    +0.164 C 
ATOM     21  O   UNL     1      -4.444  -2.032  24.078  0.00  0.00    -0.350 OA
ATOM     22  C   UNL     1      -4.088  -1.295  23.969  0.00  0.00    +0.164 C 
ATOM     23  C   UNL     1      -3.282  -1.202  24.114  0.00  0.00    +0.127 C 
ENDBRANCH  14  15
ENDBRANCH  13  14
TORSDOF 4
ENDMDL
MODEL 4
REMARK VINA RESULT:     -10.0      1.981      5.253
REMARK  Name = 
REMARK  4 active torsions:
REMARK  status: ('A' for Active; 'I' for Inactive)
REMARK    1  A    between atoms: C_8  and  C_10
REMARK    2  A    between atoms: C_10  and  C_11
REMARK    3  A    between atoms: C_13  and  C_14
REMARK    4  A    between atoms: C_14  and  N_15
REMARK                            x       y       z     vdW  Elec       q    Type
REMARK                         _______ _______ _______ _____ _____    ______ ____
ROOT
ATOM     11  C   UNL     1      -1.389   2.481  24.495  0.00  0.00    +0.157 C 
ATOM     12  O   UNL     1      -1.458   1.660  24.550  0.00  0.00    -0.351 OA
ATOM     13  C   UNL     1      -0.702   1.337  24.490  0.00  0.00    +0.170 C 
ATOM     24  C   UNL     1      -0.166   1.957  24.397  0.00  0.00    +0.213 C 
ATOM     25  O   UNL     1       0.652   1.883  24.315  0.00  0.00    -0.218 OA
ATOM     26  C   UNL     1      -0.591   2.664  24.400  0.00  0.00    +0.212 C 
ATOM     27  O   UNL     1      -0.273   3.422  24.321  0.00  0.00    -0.218 OA
ENDROOT
BRANCH  11  10
ATOM     10  C   UNL     1      -2.011   3.023  24.528  0.00  0.00    +0.117 C 
BRANCH  10   8
ATOM      1  C   UNL     1      -5.559   3.604  25.695  0.00  0.00    +0.000 C 
ATOM      2  C   UNL     1      -4.853   3.414  25.314  0.00  0.00    +0.003 C 
ATOM      3  C   UNL     1      -4.131   3.592  25.671  0.00  0.00    +0.022 C 
ATOM      4  C   UNL     1      -3.424   3.402  25.290  0.00  0.00    +0.093 C 
ATOM      5  N   UNL     1      -3.439   3.035  24.552  0.00  0.00    -0.279 N 
ATOM      6  C   UNL     1      -4.161   2.857  24.194  0.00  0.00    +0.093 C 
ATOM      7  C   UNL     1      -4.868   3.046  24.575  0.00  0.00    +0.022 C 
ATOM      8  C   UNL     1      -2.733   2.845  24.171  0.00  0.00    +0.228 C 
ATOM      9  O   UNL     1      -2.748   2.477  23.432  0.00  0.00    -0.275 OA
ENDBRANCH  10   8
ENDBRANCH  11  10
BRANCH  13  14
ATOM     14  C   UNL     1      -0.514   0.534  24.518  0.00  0.00    +0.149 C 
BRANCH  14  15
ATOM     15  N   UNL     1      -1.115  -0.029  24.570  0.00  0.00    -0.186 NA
ATOM     16  C   UNL     1      -0.932  -0.833  24.531  0.00  0.00    +0.323 C 
ATOM     17  O   UNL     1      -0.148  -1.073  24.441  0.00  0.00    -0.251 OA
ATOM     18  N   UNL     1      -1.533  -1.395  24.583  0.00  0.00    -0.258 N 
ATOM     19  C   UNL     1      -1.350  -2.199  24.544  0.00  0.00    +0.127 C 
ATOM     20  C   UNL     1      -1.950  -2.761  24.596  0.00  0.00    +0.164 C 
ATOM     21  O   UNL     1      -2.734  -2.521  24.687  0.00  0.00    -0.350 OA
ATOM     22  C   UNL     1      -2.917  -1.717  24.726  0.00  0.00    +0.164 C 
ATOM     23  C   UNL     1      -2.316  -1.155  24.674  0.00  0.00    +0.127 C 
ENDBRANCH  14  15
ENDBRANCH  13  14
TORSDOF 4
ENDMDL
MODEL 5
REMARK VINA RESULT:      -9.9      1.566      3.247
REMARK  Name = 
REMARK  4 active torsions:
REMARK  status: ('A' for Active; 'I' for Inactive)
REMARK    1  A    between atoms: C_8  and  C_10
REMARK    2  A    between atoms: C_10  and  C_11
REMARK    3  A    between atoms: C_13  and  C_14
REMARK    4  A    between atoms: C_14  and  N_15
REMARK                            x       y       z     vdW  Elec       q    Type
REMARK                         _______ _______ _______ _____ _____    ______ ____
ROOT
ATOM     11  C   UNL     1      -1.321   0.608  24.685  0.00  0.00    +0.157 C 
ATOM     12  O   UNL     1      -1.943   1.124  24.853  0.00  0.00    -0.351 OA
ATOM     13  C   UNL     1      -1.675   1.894  24.728  0.00  0.00    +0.170 C 
ATOM     24  C   UNL     1      -0.889   1.854  24.481  0.00  0.00    +0.213 C 
ATOM     25  O   UNL     1      -0.406   2.497  24.294  0.00  0.00    -0.218 OA
ATOM     26  C   UNL     1      -0.670   1.060  24.455  0.00  0.00    +0.212 C 
ATOM     27  O   UNL     1       0.070   0.767  24.236  0.00  0.00    -0.218 OA
ENDROOT
BRANCH  11  10
ATOM     10  C   UNL     1      -1.347  -0.215  24.737  0.00  0.00    +0.117 C 
BRANCH  10   8
ATOM      1  C   UNL     1      -3.817  -3.063  24.449  0.00  0.00    +0.000 C 
ATOM      2  C   UNL     1      -3.318  -2.442  24.663  0.00  0.00    +0.003 C 
ATOM      3  C   UNL     1      -2.843  -2.078  24.094  0.00  0.00    +0.022 C 
ATOM      4  C   UNL     1      -2.345  -1.457  24.308  0.00  0.00    +0.093 C 
ATOM      5  N   UNL     1      -2.320  -1.199  25.091  0.00  0.00    -0.279 N 
ATOM      6  C   UNL     1      -2.794  -1.562  25.661  0.00  0.00    +0.093 C 
ATOM      7  C   UNL     1      -3.293  -2.183  25.447  0.00  0.00    +0.022 C 
ATOM      8  C   UNL     1      -1.821  -0.578  25.305  0.00  0.00    +0.228 C 
ATOM      9  O   UNL     1      -1.797  -0.319  26.089  0.00  0.00    -0.275 OA
ENDBRANCH  10   8
ENDBRANCH  11  10
BRANCH  13  14
ATOM     14  C   UNL     1      -2.117   2.584  24.830  0.00  0.00    +0.149 C 
BRANCH  14  15
ATOM     15  N   UNL     1      -2.934   2.539  24.929  0.00  0.00    -0.186 NA
ATOM     16  C   UNL     1      -3.362   3.213  25.141  0.00  0.00    +0.323 C 
ATOM     17  O   UNL     1      -2.972   3.930  25.254  0.00  0.00    -0.251 OA
ATOM     18  N   UNL     1      -4.179   3.168  25.239  0.00  0.00    -0.258 N 
ATOM     19  C   UNL     1      -4.607   3.841  25.451  0.00  0.00    +0.127 C 
ATOM     20  C   UNL     1      -5.424   3.797  25.549  0.00  0.00    +0.164 C 
ATOM     21  O   UNL     1      -5.816   3.080  25.436  0.00  0.00    -0.350 OA
ATOM     22  C   UNL     1      -5.388   2.406  25.224  0.00  0.00    +0.164 C 
ATOM     23  C   UNL     1      -4.571   2.451  25.126  0.00  0.00    +0.127 C 
ENDBRANCH  14  15
ENDBRANCH  13  14
TORSDOF 4
ENDMDL
MODEL 6
REMARK VINA RESULT:      -8.8     16.518     19.095
REMARK  Name = 
REMARK  4 active torsions:
REMARK  status: ('A' for Active; 'I' for Inactive)
REMARK    1  A    between atoms: C_8  and  C_10
REMARK    2  A    between atoms: C_10  and  C_11
REMARK    3  A    between atoms: C_13  and  C_14
REMARK    4  A    between atoms: C_14  and  N_15
REMARK                            x       y       z     vdW  Elec       q    Type
REMARK                         _______ _______ _______ _____ _____    ______ ____
ROOT
ATOM     11  C   UNL     1      12.544   7.688  18.943  0.00  0.00    +0.157 C 
ATOM     12  O   UNL     1      13.284   7.432  19.204  0.00  0.00    -0.351 OA
ATOM     13  C   UNL     1      13.729   7.225  18.542  0.00  0.00    +0.170 C 
ATOM     24  C   UNL     1      13.265   7.353  17.872  0.00  0.00    +0.213 C 
ATOM     25  O   UNL     1      13.494   7.219  17.091  0.00  0.00    -0.218 OA
ATOM     26  C   UNL     1      12.533   7.639  18.120  0.00  0.00    +0.212 C 
ATOM     27  O   UNL     1      11.900   7.842  17.631  0.00  0.00    -0.218 OA
ENDROOT
BRANCH  11  10
ATOM     10  C   UNL     1      11.924   7.947  19.422  0.00  0.00    +0.117 C 
BRANCH  10   8
ATOM      1  C   UNL     1      10.497   9.037  22.750  0.00  0.00    +0.000 C 
ATOM      2  C   UNL     1      10.799   8.655  22.084  0.00  0.00    +0.003 C 
ATOM      3  C   UNL     1      11.019   9.094  21.421  0.00  0.00    +0.022 C 
ATOM      4  C   UNL     1      11.321   8.711  20.755  0.00  0.00    +0.093 C 
ATOM      5  N   UNL     1      11.402   7.891  20.751  0.00  0.00    -0.279 N 
ATOM      6  C   UNL     1      11.181   7.451  21.414  0.00  0.00    +0.093 C 
ATOM      7  C   UNL     1      10.880   7.834  22.080  0.00  0.00    +0.022 C 
ATOM      8  C   UNL     1      11.703   7.509  20.085  0.00  0.00    +0.228 C 
ATOM      9  O   UNL     1      11.784   6.687  20.082  0.00  0.00    -0.275 OA
ENDBRANCH  10   8
ENDBRANCH  11  10
BRANCH  13  14
ATOM     14  C   UNL     1      14.504   6.940  18.548  0.00  0.00    +0.149 C 
BRANCH  14  15
ATOM     15  N   UNL     1      14.981   7.058  19.210  0.00  0.00    -0.186 NA
ATOM     16  C   UNL     1      15.713   6.680  19.264  0.00  0.00    +0.323 C 
ATOM     17  O   UNL     1      15.966   6.184  18.655  0.00  0.00    -0.251 OA
ATOM     18  N   UNL     1      16.191   6.798  19.925  0.00  0.00    -0.258 N 
ATOM     19  C   UNL     1      16.922   6.420  19.979  0.00  0.00    +0.127 C 
ATOM     20  C   UNL     1      17.400   6.538  20.640  0.00  0.00    +0.164 C 
ATOM     21  O   UNL     1      17.147   7.034  21.249  0.00  0.00    -0.350 OA
ATOM     22  C   UNL     1      16.415   7.412  21.196  0.00  0.00    +0.164 C 
ATOM     23  C   UNL     1      15.938   7.294  20.534  0.00  0.00    +0.127 C 
ENDBRANCH  14  15
ENDBRANCH  13  14
TORSDOF 4
ENDMDL
MODEL 7
REMARK VINA RESULT:      -8.7     16.896     18.848
REMARK  Name = 
REMARK  4 active torsions:
REMARK  status: ('A' for Active; 'I' for Inactive)
REMARK    1  A    between atoms: C_8  and  C_10
REMARK    2  A    between atoms: C_10  and  C_11
REMARK    3  A    between atoms: C_13  and  C_14
REMARK    4  A    between atoms: C_14  and  N_15
REMARK                            x       y       z     vdW  Elec       q    Type
REMARK                         _______ _______ _______ _____ _____    ______ ____
ROOT
ATOM     11  C   UNL     1      12.763   7.465  20.588  0.00  0.00    +0.157 C 
ATOM     12  O   UNL     1      12.532   7.833  19.887  0.00  0.00    -0.351 OA
ATOM     13  C   UNL     1      11.712   7.915  19.900  0.00  0.00    +0.170 C 
ATOM     24  C   UNL     1      11.435   7.598  20.610  0.00  0.00    +0.213 C 
ATOM     25  O   UNL     1      10.647   7.565  20.852  0.00  0.00    -0.218 OA
ATOM     26  C   UNL     1      12.085   7.320  21.035  0.00  0.00    +0.212 C 
ATOM     27  O   UNL     1      12.061   6.959  21.777  0.00  0.00    -0.218 OA
ENDROOT
BRANCH  11  10
ATOM     10  C   UNL     1      13.536   7.275  20.805  0.00  0.00    +0.117 C 
BRANCH  10   8
ATOM      1  C   UNL     1      17.271   6.690  20.884  0.00  0.00    +0.000 C 
ATOM      2  C   UNL     1      16.462   6.743  20.729  0.00  0.00    +0.003 C 
ATOM      3  C   UNL     1      15.962   7.116  21.269  0.00  0.00    +0.022 C 
ATOM      4  C   UNL     1      15.153   7.169  21.114  0.00  0.00    +0.093 C 
ATOM      5  N   UNL     1      14.845   6.849  20.420  0.00  0.00    -0.279 N 
ATOM      6  C   UNL     1      15.344   6.476  19.879  0.00  0.00    +0.093 C 
ATOM      7  C   UNL     1      16.153   6.423  20.034  0.00  0.00    +0.022 C 
ATOM      8  C   UNL     1      14.036   6.902  20.265  0.00  0.00    +0.228 C 
ATOM      9  O   UNL     1      13.727   6.582  19.570  0.00  0.00    -0.275 OA
ENDBRANCH  10   8
ENDBRANCH  11  10
BRANCH  13  14
ATOM     14  C   UNL     1      11.248   8.256  19.308  0.00  0.00    +0.149 C 
BRANCH  14  15
ATOM     15  N   UNL     1      11.579   8.424  18.572  0.00  0.00    -0.186 NA
ATOM     16  C   UNL     1      11.090   8.588  17.928  0.00  0.00    +0.323 C 
ATOM     17  O   UNL     1      10.271   8.585  18.021  0.00  0.00    -0.251 OA
ATOM     18  N   UNL     1      11.421   8.757  17.191  0.00  0.00    -0.258 N 
ATOM     19  C   UNL     1      10.931   8.921  16.547  0.00  0.00    +0.127 C 
ATOM     20  C   UNL     1      11.261   9.089  15.811  0.00  0.00    +0.164 C 
ATOM     21  O   UNL     1      12.081   9.094  15.717  0.00  0.00    -0.350 OA
ATOM     22  C   UNL     1      12.571   8.929  16.361  0.00  0.00    +0.164 C 
ATOM     23  C   UNL     1      12.240   8.761  17.097  0.00  0.00    +0.127 C 
ENDBRANCH  14  15
ENDBRANCH  13  14
TORSDOF 4
ENDMDL
MODEL 8
REMARK VINA RESULT:      -8.0     16.292     18.942
REMARK  Name = 
REMARK  4 active torsions:
REMARK  status: ('A' for Active; 'I' for Inactive)
REMARK    1  A    between atoms: C_8  and  C_10
REMARK    2  A    between atoms: C_10  and  C_11
REMARK    3  A    between atoms: C_13  and  C_14
REMARK    4  A    between atoms: C_14  and  N_15
REMARK                            x       y       z     vdW  Elec       q    Type
REMARK                         _______ _______ _______ _____ _____    ______ ____
ROOT
ATOM     11  C   UNL     1      13.935   6.938  20.219  0.00  0.00    +0.157 C 
ATOM     12  O   UNL     1      13.715   7.311  19.517  0.00  0.00    -0.351 OA
ATOM     13  C   UNL     1      14.358   7.286  19.002  0.00  0.00    +0.170 C 
ATOM     24  C   UNL     1      14.977   6.897  19.386  0.00  0.00    +0.213 C 
ATOM     25  O   UNL     1      15.726   6.749  19.072  0.00  0.00    -0.218 OA
ATOM     26  C   UNL     1      14.715   6.682  20.137  0.00  0.00    +0.212 C 
ATOM     27  O   UNL     1      15.156   6.281  20.708  0.00  0.00    -0.218 OA
ENDROOT
BRANCH  11  10
ATOM     10  C   UNL     1      13.459   6.838  20.885  0.00  0.00    +0.117 C 
BRANCH  10   8
ATOM      1  C   UNL     1       9.937   7.230  22.204  0.00  0.00    +0.000 C 
ATOM      2  C   UNL     1      10.722   7.295  21.958  0.00  0.00    +0.003 C 
ATOM      3  C   UNL     1      11.104   6.645  21.623  0.00  0.00    +0.022 C 
ATOM      4  C   UNL     1      11.889   6.709  21.377  0.00  0.00    +0.093 C 
ATOM      5  N   UNL     1      12.292   7.423  21.466  0.00  0.00    -0.279 N 
ATOM      6  C   UNL     1      11.911   8.073  21.802  0.00  0.00    +0.093 C 
ATOM      7  C   UNL     1      11.126   8.009  22.048  0.00  0.00    +0.022 C 
ATOM      8  C   UNL     1      13.077   7.487  21.221  0.00  0.00    +0.228 C 
ATOM      9  O   UNL     1      13.481   8.202  21.310  0.00  0.00    -0.275 OA
ENDBRANCH  10   8
ENDBRANCH  11  10
BRANCH  13  14
ATOM     14  C   UNL     1      14.381   7.595  18.237  0.00  0.00    +0.149 C 
BRANCH  14  15
ATOM     15  N   UNL     1      13.692   7.889  17.891  0.00  0.00    -0.186 NA
ATOM     16  C   UNL     1      13.714   8.197  17.126  0.00  0.00    +0.323 C 
ATOM     17  O   UNL     1      14.424   8.211  16.708  0.00  0.00    -0.251 OA
ATOM     18  N   UNL     1      13.025   8.491  16.780  0.00  0.00    -0.258 N 
ATOM     19  C   UNL     1      13.047   8.800  16.015  0.00  0.00    +0.127 C 
ATOM     20  C   UNL     1      12.360   9.094  15.669  0.00  0.00    +0.164 C 
ATOM     21  O   UNL     1      11.648   9.080  16.087  0.00  0.00    -0.350 OA
ATOM     22  C   UNL     1      11.626   8.772  16.853  0.00  0.00    +0.164 C 
ATOM     23  C   UNL     1      12.315   8.478  17.198  0.00  0.00    +0.127 C 
ENDBRANCH  14  15
ENDBRANCH  13  14
TORSDOF 4
ENDMDL
