REMARK  Name = 
REMARK  5 active torsions:
REMARK  status: ('A' for Active; 'I' for Inactive)
REMARK    1  A    between atoms: S_2  and  C_3
REMARK    2  A    between atoms: C_3  and  C_4
REMARK    3  A    between atoms: N_6  and  C_7
REMARK    4  A    between atoms: C_18  and  C_21
REMARK    5  A    between atoms: C_23  and  C_27
REMARK                            x       y       z     vdW  Elec       q    Type
REMARK                         _______ _______ _______ _____ _____    ______ ____
ROOT
ATOM      7  C   UNL     1       5.559   0.496   0.000  0.00  0.00    +0.124 C 
ATOM      8  C   UNL     1       5.875   1.258   0.000  0.00  0.00    +0.045 C 
ATOM      9  C   UNL     1       5.248   1.794   0.000  0.00  0.00    +0.096 C 
ATOM     10  N   UNL     1       4.544   1.363   0.000  0.00  0.00    -0.268 N 
ATOM     11  C   UNL     1       4.737   0.560   0.000  0.00  0.00    +0.174 C 
ATOM     12  C   UNL     1       4.229  -0.090   0.000  0.00  0.00    +0.265 C 
ATOM     13  O   UNL     1       4.596  -0.829   0.000  0.00  0.00    -0.271 OA
ATOM     14  N   UNL     1       3.405  -0.099   0.000  0.00  0.00    -0.178 NA
ATOM     15  C   UNL     1       2.883   0.540   0.000  0.00  0.00    +0.078 A 
ATOM     16  C   UNL     1       3.058   1.346   0.000  0.00  0.00    +0.069 A 
ATOM     17  C   UNL     1       2.447   1.901   0.000  0.00  0.00    +0.006 A 
ATOM     18  C   UNL     1       1.661   1.649   0.000  0.00  0.00    +0.000 A 
ATOM     19  C   UNL     1       1.486   0.842   0.000  0.00  0.00    +0.001 A 
ATOM     20  C   UNL     1       2.097   0.288   0.000  0.00  0.00    +0.017 A 
ATOM     31  C   UNL     1       3.797   1.712   0.000  0.00  0.00    +0.251 C 
ATOM     32  O   UNL     1       3.788   2.537   0.000  0.00  0.00    -0.270 OA
ENDROOT
BRANCH  18  21
ATOM     21  C   UNL     1       1.050   2.203   0.000  0.00  0.00    -0.000 A 
ATOM     22  C   UNL     1       0.264   1.951   0.000  0.00  0.00    +0.004 A 
ATOM     23  C   UNL     1      -0.347   2.505   0.000  0.00  0.00    +0.071 A 
ATOM     24  C   UNL     1      -0.172   3.312   0.000  0.00  0.00    +0.004 A 
ATOM     25  C   UNL     1       0.614   3.563   0.000  0.00  0.00    -0.000 A 
ATOM     26  C   UNL     1       1.225   3.009   0.000  0.00  0.00    -0.000 A 
BRANCH  23  27
ATOM     27  C   UNL     1      -1.132   2.253   0.000  0.00  0.00    +0.419 C 
ATOM     28  F   UNL     1      -1.918   2.001   0.000  0.00  0.00    -0.166 F 
ATOM     29  F   UNL     1      -1.384   3.039   0.000  0.00  0.00    -0.166 F 
ATOM     30  F   UNL     1      -0.880   1.468   0.000  0.00  0.00    -0.166 F 
ENDBRANCH  23  27
ENDBRANCH  18  21
BRANCH   7   6
ATOM      4  C   UNL     1       6.815  -0.186   0.000  0.00  0.00    +0.252 C 
ATOM      5  O   UNL     1       7.209   0.539   0.000  0.00  0.00    -0.272 OA
ATOM      6  N   UNL     1       5.990  -0.208   0.000  0.00  0.00    -0.204 NA
BRANCH   4   3
ATOM      3  C   UNL     1       7.246  -0.890   0.000  0.00  0.00    +0.144 C 
BRANCH   3   2
ATOM      1  C   UNL     1       8.502  -1.571   0.000  0.00  0.00    +0.070 C 
ATOM      2  S   UNL     1       8.071  -0.868   0.000  0.00  0.00    -0.130 S 
ENDBRANCH   3   2
ENDBRANCH   4   3
ENDBRANCH   7   6
TORSDOF 5
