MODEL 1
REMARK VINA RESULT:     -11.5      0.000      0.000
REMARK  Name = 
REMARK  6 active torsions:
REMARK  status: ('A' for Active; 'I' for Inactive)
REMARK    1  A    between atoms: C_2  and  N_3
REMARK    2  A    between atoms: C_9  and  C_10
REMARK    3  A    between atoms: C_10  and  C_11
REMARK    4  A    between atoms: C_14  and  C_15
REMARK    5  A    between atoms: C_15  and  C_16
REMARK    6  A    between atoms: C_23  and  C_26
REMARK                            x       y       z     vdW  Elec       q    Type
REMARK                         _______ _______ _______ _____ _____    ______ ____
ROOT
ATOM      3  N   UNL     1       1.369   0.454  23.084  0.00  0.00    -0.188 NA
ATOM      4  C   UNL     1       0.600   0.269  23.318  0.00  0.00    +0.323 C 
ATOM      5  O   UNL     1       0.203  -0.364  22.967  0.00  0.00    -0.251 OA
ATOM      6  N   UNL     1       0.227   0.717  23.903  0.00  0.00    -0.263 N 
ATOM      7  C   UNL     1       0.624   1.349  24.253  0.00  0.00    +0.095 C 
ATOM      8  C   UNL     1       0.252   1.797  24.837  0.00  0.00    +0.022 C 
ATOM      9  C   UNL     1      -0.517   1.612  25.070  0.00  0.00    +0.015 C 
ATOM     14  C   UNL     1      -0.914   0.981  24.720  0.00  0.00    +0.026 C 
ATOM     30  C   UNL     1      -0.542   0.532  24.136  0.00  0.00    +0.095 C 
ENDROOT
BRANCH   3   2
ATOM      1  C   UNL     1       2.550   0.096  22.364  0.00  0.00    +0.025 C 
ATOM      2  C   UNL     1       1.741   0.006  22.500  0.00  0.00    +0.117 C 
ENDBRANCH   3   2
BRANCH   9  10
ATOM     10  C   UNL     1      -0.889   2.061  25.655  0.00  0.00    +0.114 C 
BRANCH  10  11
ATOM     11  C   UNL     1      -0.465   2.637  26.066  0.00  0.00    +0.365 C 
ATOM     12  O   UNL     1      -0.471   3.419  25.802  0.00  0.00    -0.246 OA
ATOM     13  O   UNL     1      -0.036   2.431  26.740  0.00  0.00    -0.246 OA
ENDBRANCH  10  11
ENDBRANCH   9  10
BRANCH  14  15
ATOM     15  C   UNL     1      -1.684   0.796  24.954  0.00  0.00    +0.047 C 
BRANCH  15  16
ATOM     16  C   UNL     1      -2.303   0.843  24.411  0.00  0.00    +0.053 C 
ATOM     17  N   UNL     1      -2.355   1.490  23.901  0.00  0.00    -0.274 NA
ATOM     18  C   UNL     1      -2.974   1.538  23.357  0.00  0.00    +0.130 C 
ATOM     19  C   UNL     1      -3.541   0.938  23.324  0.00  0.00    +0.053 C 
ATOM     20  C   UNL     1      -3.488   0.291  23.834  0.00  0.00    -0.019 A 
ATOM     21  C   UNL     1      -2.869   0.244  24.378  0.00  0.00    +0.009 A 
ATOM     22  C   UNL     1      -2.816  -0.402  24.887  0.00  0.00    -0.003 A 
ATOM     23  C   UNL     1      -3.382  -1.001  24.854  0.00  0.00    -0.023 A 
ATOM     24  C   UNL     1      -4.002  -0.953  24.310  0.00  0.00    -0.005 A 
ATOM     25  C   UNL     1      -4.054  -0.307  23.801  0.00  0.00    -0.004 A 
BRANCH  23  26
ATOM     26  C   UNL     1      -3.330  -1.648  25.364  0.00  0.00    +0.019 C 
ATOM     27  C   UNL     1      -3.278  -2.294  25.873  0.00  0.00    +0.004 C 
ATOM     28  C   UNL     1      -3.054  -2.115  24.742  0.00  0.00    +0.004 C 
ATOM     29  C   UNL     1      -3.606  -1.179  25.985  0.00  0.00    +0.004 C 
ENDBRANCH  23  26
ENDBRANCH  15  16
ENDBRANCH  14  15
TORSDOF 6
ENDMDL
MODEL 2
REMARK VINA RESULT:     -11.3      2.341      4.450
REMARK  Name = 
REMARK  6 active torsions:
REMARK  status: ('A' for Active; 'I' for Inactive)
REMARK    1  A    between atoms: C_2  and  N_3
REMARK    2  A    between atoms: C_9  and  C_10
REMARK    3  A    between atoms: C_10  and  C_11
REMARK    4  A    between atoms: C_14  and  C_15
REMARK    5  A    between atoms: C_15  and  C_16
REMARK    6  A    between atoms: C_23  and  C_26
REMARK                            x       y       z     vdW  Elec       q    Type
REMARK                         _______ _______ _______ _____ _____    ______ ____
ROOT
ATOM      3  N   UNL     1      -3.830  -1.750  24.642  0.00  0.00    -0.188 NA
ATOM      4  C   UNL     1      -3.387  -1.056  24.598  0.00  0.00    +0.323 C 
ATOM      5  O   UNL     1      -2.577  -1.093  24.441  0.00  0.00    -0.251 OA
ATOM      6  N   UNL     1      -3.753  -0.325  24.710  0.00  0.00    -0.263 N 
ATOM      7  C   UNL     1      -4.561  -0.289  24.866  0.00  0.00    +0.095 C 
ATOM      8  C   UNL     1      -4.928   0.442  24.978  0.00  0.00    +0.022 C 
ATOM      9  C   UNL     1      -4.485   1.136  24.933  0.00  0.00    +0.015 C 
ATOM     14  C   UNL     1      -3.676   1.099  24.777  0.00  0.00    +0.026 C 
ATOM     30  C   UNL     1      -3.310   0.369  24.665  0.00  0.00    +0.095 C 
ENDROOT
BRANCH   3   2
ATOM      1  C   UNL     1      -3.897  -3.118  24.235  0.00  0.00    +0.025 C 
ATOM      2  C   UNL     1      -3.464  -2.482  24.530  0.00  0.00    +0.117 C 
ENDBRANCH   3   2
BRANCH   9  10
ATOM     10  C   UNL     1      -4.851   1.867  25.045  0.00  0.00    +0.114 C 
BRANCH  10  11
ATOM     11  C   UNL     1      -5.634   1.901  25.304  0.00  0.00    +0.365 C 
ATOM     12  O   UNL     1      -6.250   1.884  24.755  0.00  0.00    -0.246 OA
ATOM     13  O   UNL     1      -5.800   1.951  26.111  0.00  0.00    -0.246 OA
ENDBRANCH  10  11
ENDBRANCH   9  10
BRANCH  14  15
ATOM     15  C   UNL     1      -3.233   1.794  24.733  0.00  0.00    +0.047 C 
BRANCH  15  16
ATOM     16  C   UNL     1      -2.759   1.940  24.073  0.00  0.00    +0.053 C 
ATOM     17  N   UNL     1      -3.060   1.819  23.314  0.00  0.00    -0.274 NA
ATOM     18  C   UNL     1      -2.585   1.965  22.654  0.00  0.00    +0.130 C 
ATOM     19  C   UNL     1      -1.811   2.231  22.754  0.00  0.00    +0.053 C 
ATOM     20  C   UNL     1      -1.510   2.352  23.513  0.00  0.00    -0.019 A 
ATOM     21  C   UNL     1      -1.984   2.206  24.173  0.00  0.00    +0.009 A 
ATOM     22  C   UNL     1      -1.684   2.327  24.931  0.00  0.00    -0.003 A 
ATOM     23  C   UNL     1      -0.910   2.593  25.031  0.00  0.00    -0.023 A 
ATOM     24  C   UNL     1      -0.435   2.738  24.371  0.00  0.00    -0.005 A 
ATOM     25  C   UNL     1      -0.736   2.618  23.613  0.00  0.00    -0.004 A 
BRANCH  23  26
ATOM     26  C   UNL     1      -0.609   2.714  25.789  0.00  0.00    +0.019 C 
ATOM     27  C   UNL     1      -0.308   2.835  26.547  0.00  0.00    +0.004 C 
ATOM     28  C   UNL     1      -0.244   1.974  25.763  0.00  0.00    +0.004 C 
ATOM     29  C   UNL     1      -0.973   3.454  25.815  0.00  0.00    +0.004 C 
ENDBRANCH  23  26
ENDBRANCH  15  16
ENDBRANCH  14  15
TORSDOF 6
ENDMDL
MODEL 3
REMARK VINA RESULT:     -11.0      1.987      3.076
REMARK  Name = 
REMARK  6 active torsions:
REMARK  status: ('A' for Active; 'I' for Inactive)
REMARK    1  A    between atoms: C_2  and  N_3
REMARK    2  A    between atoms: C_9  and  C_10
REMARK    3  A    between atoms: C_10  and  C_11
REMARK    4  A    between atoms: C_14  and  C_15
REMARK    5  A    between atoms: C_15  and  C_16
REMARK    6  A    between atoms: C_23  and  C_26
REMARK                            x       y       z     vdW  Elec       q    Type
REMARK                         _______ _______ _______ _____ _____    ______ ____
ROOT
ATOM      3  N   UNL     1      -1.385  -1.380  24.924  0.00  0.00    -0.188 NA
ATOM      4  C   UNL     1      -1.848  -0.709  24.794  0.00  0.00    +0.323 C 
ATOM      5  O   UNL     1      -2.592  -0.782  24.446  0.00  0.00    -0.251 OA
ATOM      6  N   UNL     1      -1.565   0.035  25.013  0.00  0.00    -0.263 N 
ATOM      7  C   UNL     1      -0.822   0.108  25.361  0.00  0.00    +0.095 C 
ATOM      8  C   UNL     1      -0.540   0.851  25.580  0.00  0.00    +0.022 C 
ATOM      9  C   UNL     1      -1.002   1.522  25.450  0.00  0.00    +0.015 C 
ATOM     14  C   UNL     1      -1.745   1.449  25.102  0.00  0.00    +0.026 C 
ATOM     30  C   UNL     1      -2.028   0.706  24.883  0.00  0.00    +0.095 C 
ENDROOT
BRANCH   3   2
ATOM      1  C   UNL     1      -1.167  -2.779  24.734  0.00  0.00    +0.025 C 
ATOM      2  C   UNL     1      -1.667  -2.124  24.705  0.00  0.00    +0.117 C 
ENDBRANCH   3   2
BRANCH   9  10
ATOM     10  C   UNL     1      -0.720   2.266  25.669  0.00  0.00    +0.114 C 
BRANCH  10  11
ATOM     11  C   UNL     1      -0.006   2.333  26.078  0.00  0.00    +0.365 C 
ATOM     12  O   UNL     1       0.706   2.357  25.662  0.00  0.00    -0.246 OA
ATOM     13  O   UNL     1      -0.006   2.375  26.902  0.00  0.00    -0.246 OA
ENDBRANCH  10  11
ENDBRANCH   9  10
BRANCH  14  15
ATOM     15  C   UNL     1      -2.208   2.120  24.972  0.00  0.00    +0.047 C 
BRANCH  15  16
ATOM     16  C   UNL     1      -2.521   2.267  24.223  0.00  0.00    +0.053 C 
ATOM     17  N   UNL     1      -2.051   2.163  23.553  0.00  0.00    -0.274 NA
ATOM     18  C   UNL     1      -2.364   2.310  22.802  0.00  0.00    +0.130 C 
ATOM     19  C   UNL     1      -3.146   2.562  22.724  0.00  0.00    +0.053 C 
ATOM     20  C   UNL     1      -3.616   2.666  23.395  0.00  0.00    -0.019 A 
ATOM     21  C   UNL     1      -3.303   2.519  24.145  0.00  0.00    +0.009 A 
ATOM     22  C   UNL     1      -3.772   2.623  24.815  0.00  0.00    -0.003 A 
ATOM     23  C   UNL     1      -4.553   2.874  24.736  0.00  0.00    -0.023 A 
ATOM     24  C   UNL     1      -4.866   3.022  23.986  0.00  0.00    -0.005 A 
ATOM     25  C   UNL     1      -4.397   2.917  23.316  0.00  0.00    -0.004 A 
BRANCH  23  26
ATOM     26  C   UNL     1      -5.023   2.979  25.406  0.00  0.00    +0.019 C 
ATOM     27  C   UNL     1      -5.492   3.084  26.076  0.00  0.00    +0.004 C 
ATOM     28  C   UNL     1      -5.342   2.226  25.300  0.00  0.00    +0.004 C 
ATOM     29  C   UNL     1      -4.703   3.733  25.512  0.00  0.00    +0.004 C 
ENDBRANCH  23  26
ENDBRANCH  15  16
ENDBRANCH  14  15
TORSDOF 6
ENDMDL
MODEL 4
REMARK VINA RESULT:     -10.9      2.263      3.632
REMARK  Name = 
REMARK  6 active torsions:
REMARK  status: ('A' for Active; 'I' for Inactive)
REMARK    1  A    between atoms: C_2  and  N_3
REMARK    2  A    between atoms: C_9  and  C_10
REMARK    3  A    between atoms: C_10  and  C_11
REMARK    4  A    between atoms: C_14  and  C_15
REMARK    5  A    between atoms: C_15  and  C_16
REMARK    6  A    between atoms: C_23  and  C_26
REMARK                            x       y       z     vdW  Elec       q    Type
REMARK                         _______ _______ _______ _____ _____    ______ ____
ROOT
ATOM      3  N   UNL     1      -2.021   4.087  24.916  0.00  0.00    -0.188 NA
ATOM      4  C   UNL     1      -1.990   3.275  24.776  0.00  0.00    +0.323 C 
ATOM      5  O   UNL     1      -1.286   2.926  24.525  0.00  0.00    -0.251 OA
ATOM      6  N   UNL     1      -2.664   2.811  24.888  0.00  0.00    -0.263 N 
ATOM      7  C   UNL     1      -3.367   3.160  25.139  0.00  0.00    +0.095 C 
ATOM      8  C   UNL     1      -4.040   2.697  25.250  0.00  0.00    +0.022 C 
ATOM      9  C   UNL     1      -4.009   1.885  25.110  0.00  0.00    +0.015 C 
ATOM     14  C   UNL     1      -3.306   1.536  24.859  0.00  0.00    +0.026 C 
ATOM     30  C   UNL     1      -2.632   1.999  24.748  0.00  0.00    +0.095 C 
ENDROOT
BRANCH   3   2
ATOM      1  C   UNL     1      -1.350   5.344  25.034  0.00  0.00    +0.025 C 
ATOM      2  C   UNL     1      -1.347   4.551  24.805  0.00  0.00    +0.117 C 
ENDBRANCH   3   2
BRANCH   9  10
ATOM     10  C   UNL     1      -4.683   1.421  25.222  0.00  0.00    +0.114 C 
BRANCH  10  11
ATOM     11  C   UNL     1      -5.421   1.779  25.307  0.00  0.00    +0.365 C 
ATOM     12  O   UNL     1      -5.896   1.906  24.645  0.00  0.00    -0.246 OA
ATOM     13  O   UNL     1      -5.683   2.010  26.055  0.00  0.00    -0.246 OA
ENDBRANCH  10  11
ENDBRANCH   9  10
BRANCH  14  15
ATOM     15  C   UNL     1      -3.275   0.723  24.719  0.00  0.00    +0.047 C 
BRANCH  15  16
ATOM     16  C   UNL     1      -2.651   0.276  25.022  0.00  0.00    +0.053 C 
ATOM     17  N   UNL     1      -2.031   0.648  25.419  0.00  0.00    -0.274 NA
ATOM     18  C   UNL     1      -1.407   0.200  25.722  0.00  0.00    +0.130 C 
ATOM     19  C   UNL     1      -1.405  -0.620  25.628  0.00  0.00    +0.053 C 
ATOM     20  C   UNL     1      -2.025  -0.992  25.231  0.00  0.00    -0.019 A 
ATOM     21  C   UNL     1      -2.649  -0.544  24.927  0.00  0.00    +0.009 A 
ATOM     22  C   UNL     1      -3.268  -0.916  24.531  0.00  0.00    -0.003 A 
ATOM     23  C   UNL     1      -3.265  -1.735  24.437  0.00  0.00    -0.023 A 
ATOM     24  C   UNL     1      -2.641  -2.183  24.740  0.00  0.00    -0.005 A 
ATOM     25  C   UNL     1      -2.022  -1.811  25.137  0.00  0.00    -0.004 A 
BRANCH  23  26
ATOM     26  C   UNL     1      -3.885  -2.108  24.039  0.00  0.00    +0.019 C 
ATOM     27  C   UNL     1      -4.504  -2.481  23.643  0.00  0.00    +0.004 C 
ATOM     28  C   UNL     1      -3.895  -1.499  23.483  0.00  0.00    +0.004 C 
ATOM     29  C   UNL     1      -3.875  -2.717  24.597  0.00  0.00    +0.004 C 
ENDBRANCH  23  26
ENDBRANCH  15  16
ENDBRANCH  14  15
TORSDOF 6
ENDMDL
MODEL 5
REMARK VINA RESULT:     -10.8      1.361      3.097
REMARK  Name = 
REMARK  6 active torsions:
REMARK  status: ('A' for Active; 'I' for Inactive)
REMARK    1  A    between atoms: C_2  and  N_3
REMARK    2  A    between atoms: C_9  and  C_10
REMARK    3  A    between atoms: C_10  and  C_11
REMARK    4  A    between atoms: C_14  and  C_15
REMARK    5  A    between atoms: C_15  and  C_16
REMARK    6  A    between atoms: C_23  and  C_26
REMARK                            x       y       z     vdW  Elec       q    Type
REMARK                         _______ _______ _______ _____ _____    ______ ____
ROOT
ATOM      3  N   UNL     1      -0.950   3.337  24.710  0.00  0.00    -0.188 NA
ATOM      4  C   UNL     1      -1.323   2.607  24.803  0.00  0.00    +0.323 C 
ATOM      5  O   UNL     1      -2.047   2.561  25.196  0.00  0.00    -0.251 OA
ATOM      6  N   UNL     1      -0.972   1.923  24.503  0.00  0.00    -0.263 N 
ATOM      7  C   UNL     1      -0.248   1.969  24.111  0.00  0.00    +0.095 C 
ATOM      8  C   UNL     1       0.103   1.286  23.811  0.00  0.00    +0.022 C 
ATOM      9  C   UNL     1      -0.270   0.556  23.903  0.00  0.00    +0.015 C 
ATOM     14  C   UNL     1      -0.994   0.510  24.295  0.00  0.00    +0.026 C 
ATOM     30  C   UNL     1      -1.345   1.193  24.596  0.00  0.00    +0.095 C 
ENDROOT
BRANCH   3   2
ATOM      1  C   UNL     1      -0.917   4.747  24.939  0.00  0.00    +0.025 C 
ATOM      2  C   UNL     1      -1.301   4.021  25.011  0.00  0.00    +0.117 C 
ENDBRANCH   3   2
BRANCH   9  10
ATOM     10  C   UNL     1       0.081  -0.128  23.603  0.00  0.00    +0.114 C 
BRANCH  10  11
ATOM     11  C   UNL     1       0.720  -0.070  23.084  0.00  0.00    +0.365 C 
ATOM     12  O   UNL     1       1.485   0.019  23.381  0.00  0.00    -0.246 OA
ATOM     13  O   UNL     1       0.593  -0.100  22.269  0.00  0.00    -0.246 OA
ENDBRANCH  10  11
ENDBRANCH   9  10
BRANCH  14  15
ATOM     15  C   UNL     1      -1.367  -0.220  24.388  0.00  0.00    +0.047 C 
BRANCH  15  16
ATOM     16  C   UNL     1      -1.554  -0.496  25.143  0.00  0.00    +0.053 C 
ATOM     17  N   UNL     1      -1.048  -0.338  25.775  0.00  0.00    -0.274 NA
ATOM     18  C   UNL     1      -1.235  -0.614  26.531  0.00  0.00    +0.130 C 
ATOM     19  C   UNL     1      -1.927  -1.047  26.653  0.00  0.00    +0.053 C 
ATOM     20  C   UNL     1      -2.432  -1.204  26.020  0.00  0.00    -0.019 A 
ATOM     21  C   UNL     1      -2.246  -0.929  25.264  0.00  0.00    +0.009 A 
ATOM     22  C   UNL     1      -2.751  -1.086  24.632  0.00  0.00    -0.003 A 
ATOM     23  C   UNL     1      -3.442  -1.518  24.754  0.00  0.00    -0.023 A 
ATOM     24  C   UNL     1      -3.629  -1.794  25.510  0.00  0.00    -0.005 A 
ATOM     25  C   UNL     1      -3.124  -1.637  26.142  0.00  0.00    -0.004 A 
BRANCH  23  26
ATOM     26  C   UNL     1      -3.948  -1.676  24.121  0.00  0.00    +0.019 C 
ATOM     27  C   UNL     1      -4.453  -1.833  23.489  0.00  0.00    +0.004 C 
ATOM     28  C   UNL     1      -3.620  -2.430  24.047  0.00  0.00    +0.004 C 
ATOM     29  C   UNL     1      -4.275  -0.922  24.196  0.00  0.00    +0.004 C 
ENDBRANCH  23  26
ENDBRANCH  15  16
ENDBRANCH  14  15
TORSDOF 6
ENDMDL
MODEL 6
REMARK VINA RESULT:     -10.8      2.723      4.256
REMARK  Name = 
REMARK  6 active torsions:
REMARK  status: ('A' for Active; 'I' for Inactive)
REMARK    1  A    between atoms: C_2  and  N_3
REMARK    2  A    between atoms: C_9  and  C_10
REMARK    3  A    between atoms: C_10  and  C_11
REMARK    4  A    between atoms: C_14  and  C_15
REMARK    5  A    between atoms: C_15  and  C_16
REMARK    6  A    between atoms: C_23  and  C_26
REMARK                            x       y       z     vdW  Elec       q    Type
REMARK                         _______ _______ _______ _____ _____    ______ ____
ROOT
ATOM      3  N   UNL     1      -5.171   3.029  25.138  0.00  0.00    -0.188 NA
ATOM      4  C   UNL     1      -4.791   2.297  25.170  0.00  0.00    +0.323 C 
ATOM      5  O   UNL     1      -4.954   1.774  25.787  0.00  0.00    -0.251 OA
ATOM      6  N   UNL     1      -4.248   2.088  24.585  0.00  0.00    -0.263 N 
ATOM      7  C   UNL     1      -4.085   2.611  23.969  0.00  0.00    +0.095 C 
ATOM      8  C   UNL     1      -3.543   2.403  23.383  0.00  0.00    +0.022 C 
ATOM      9  C   UNL     1      -3.163   1.671  23.416  0.00  0.00    +0.015 C 
ATOM     14  C   UNL     1      -3.326   1.148  24.032  0.00  0.00    +0.026 C 
ATOM     30  C   UNL     1      -3.869   1.356  24.617  0.00  0.00    +0.095 C 
ENDROOT
BRANCH   3   2
ATOM      1  C   UNL     1      -6.021   4.003  25.747  0.00  0.00    +0.025 C 
ATOM      2  C   UNL     1      -5.714   3.238  25.724  0.00  0.00    +0.117 C 
ENDBRANCH   3   2
BRANCH   9  10
ATOM     10  C   UNL     1      -2.620   1.462  22.830  0.00  0.00    +0.114 C 
BRANCH  10  11
ATOM     11  C   UNL     1      -2.276   2.046  22.359  0.00  0.00    +0.365 C 
ATOM     12  O   UNL     1      -1.629   2.473  22.640  0.00  0.00    -0.246 OA
ATOM     13  O   UNL     1      -2.580   2.201  21.608  0.00  0.00    -0.246 OA
ENDBRANCH  10  11
ENDBRANCH   9  10
BRANCH  14  15
ATOM     15  C   UNL     1      -2.946   0.416  24.063  0.00  0.00    +0.047 C 
BRANCH  15  16
ATOM     16  C   UNL     1      -3.391  -0.278  24.105  0.00  0.00    +0.053 C 
ATOM     17  N   UNL     1      -4.176  -0.280  23.853  0.00  0.00    -0.274 NA
ATOM     18  C   UNL     1      -4.621  -0.974  23.894  0.00  0.00    +0.130 C 
ATOM     19  C   UNL     1      -4.279  -1.666  24.187  0.00  0.00    +0.053 C 
ATOM     20  C   UNL     1      -3.494  -1.664  24.439  0.00  0.00    -0.019 A 
ATOM     21  C   UNL     1      -3.049  -0.969  24.398  0.00  0.00    +0.009 A 
ATOM     22  C   UNL     1      -2.264  -0.967  24.650  0.00  0.00    -0.003 A 
ATOM     23  C   UNL     1      -1.923  -1.658  24.942  0.00  0.00    -0.023 A 
ATOM     24  C   UNL     1      -2.368  -2.353  24.984  0.00  0.00    -0.005 A 
ATOM     25  C   UNL     1      -3.152  -2.355  24.732  0.00  0.00    -0.004 A 
BRANCH  23  26
ATOM     26  C   UNL     1      -1.137  -1.656  25.195  0.00  0.00    +0.019 C 
ATOM     27  C   UNL     1      -0.352  -1.655  25.447  0.00  0.00    +0.004 C 
ATOM     28  C   UNL     1      -0.910  -2.021  24.490  0.00  0.00    +0.004 C 
ATOM     29  C   UNL     1      -1.365  -1.292  25.899  0.00  0.00    +0.004 C 
ENDBRANCH  23  26
ENDBRANCH  15  16
ENDBRANCH  14  15
TORSDOF 6
ENDMDL
MODEL 7
REMARK VINA RESULT:     -10.7      1.707      3.445
REMARK  Name = 
REMARK  6 active torsions:
REMARK  status: ('A' for Active; 'I' for Inactive)
REMARK    1  A    between atoms: C_2  and  N_3
REMARK    2  A    between atoms: C_9  and  C_10
REMARK    3  A    between atoms: C_10  and  C_11
REMARK    4  A    between atoms: C_14  and  C_15
REMARK    5  A    between atoms: C_15  and  C_16
REMARK    6  A    between atoms: C_23  and  C_26
REMARK                            x       y       z     vdW  Elec       q    Type
REMARK                         _______ _______ _______ _____ _____    ______ ____
ROOT
ATOM      3  N   UNL     1       1.095  -0.082  23.101  0.00  0.00    -0.188 NA
ATOM      4  C   UNL     1       0.577   0.462  23.441  0.00  0.00    +0.323 C 
ATOM      5  O   UNL     1       0.692   1.270  23.327  0.00  0.00    -0.251 OA
ATOM      6  N   UNL     1      -0.059   0.196  23.897  0.00  0.00    -0.263 N 
ATOM      7  C   UNL     1      -0.174  -0.612  24.011  0.00  0.00    +0.095 C 
ATOM      8  C   UNL     1      -0.809  -0.878  24.466  0.00  0.00    +0.022 C 
ATOM      9  C   UNL     1      -1.328  -0.335  24.806  0.00  0.00    +0.015 C 
ATOM     14  C   UNL     1      -1.212   0.473  24.691  0.00  0.00    +0.026 C 
ATOM     30  C   UNL     1      -0.578   0.739  24.237  0.00  0.00    +0.095 C 
ENDROOT
BRANCH   3   2
ATOM      1  C   UNL     1       2.227  -0.360  22.275  0.00  0.00    +0.025 C 
ATOM      2  C   UNL     1       1.731   0.184  22.646  0.00  0.00    +0.117 C 
ENDBRANCH   3   2
BRANCH   9  10
ATOM     10  C   UNL     1      -1.963  -0.601  25.261  0.00  0.00    +0.114 C 
BRANCH  10  11
ATOM     11  C   UNL     1      -2.281  -1.350  25.128  0.00  0.00    +0.365 C 
ATOM     12  O   UNL     1      -1.969  -2.006  25.521  0.00  0.00    -0.246 OA
ATOM     13  O   UNL     1      -2.911  -1.444  24.603  0.00  0.00    -0.246 OA
ENDBRANCH  10  11
ENDBRANCH   9  10
BRANCH  14  15
ATOM     15  C   UNL     1      -1.732   1.017  25.032  0.00  0.00    +0.047 C 
BRANCH  15  16
ATOM     16  C   UNL     1      -1.438   1.699  25.392  0.00  0.00    +0.053 C 
ATOM     17  N   UNL     1      -0.711   1.679  25.780  0.00  0.00    -0.274 NA
ATOM     18  C   UNL     1      -0.417   2.362  26.140  0.00  0.00    +0.130 C 
ATOM     19  C   UNL     1      -0.851   3.063  26.111  0.00  0.00    +0.053 C 
ATOM     20  C   UNL     1      -1.579   3.083  25.722  0.00  0.00    -0.019 A 
ATOM     21  C   UNL     1      -1.873   2.400  25.362  0.00  0.00    +0.009 A 
ATOM     22  C   UNL     1      -2.600   2.419  24.974  0.00  0.00    -0.003 A 
ATOM     23  C   UNL     1      -3.033   3.120  24.944  0.00  0.00    -0.023 A 
ATOM     24  C   UNL     1      -2.739   3.803  25.304  0.00  0.00    -0.005 A 
ATOM     25  C   UNL     1      -2.012   3.783  25.693  0.00  0.00    -0.004 A 
BRANCH  23  26
ATOM     26  C   UNL     1      -3.761   3.140  24.556  0.00  0.00    +0.019 C 
ATOM     27  C   UNL     1      -4.488   3.160  24.168  0.00  0.00    +0.004 C 
ATOM     28  C   UNL     1      -3.376   3.302  23.844  0.00  0.00    +0.004 C 
ATOM     29  C   UNL     1      -4.145   2.978  25.268  0.00  0.00    +0.004 C 
ENDBRANCH  23  26
ENDBRANCH  15  16
ENDBRANCH  14  15
TORSDOF 6
ENDMDL
MODEL 8
REMARK VINA RESULT:     -10.2      1.946      3.513
REMARK  Name = 
REMARK  6 active torsions:
REMARK  status: ('A' for Active; 'I' for Inactive)
REMARK    1  A    between atoms: C_2  and  N_3
REMARK    2  A    between atoms: C_9  and  C_10
REMARK    3  A    between atoms: C_10  and  C_11
REMARK    4  A    between atoms: C_14  and  C_15
REMARK    5  A    between atoms: C_15  and  C_16
REMARK    6  A    between atoms: C_23  and  C_26
REMARK                            x       y       z     vdW  Elec       q    Type
REMARK                         _______ _______ _______ _____ _____    ______ ____
ROOT
ATOM      3  N   UNL     1       0.002   1.928  26.264  0.00  0.00    -0.188 NA
ATOM      4  C   UNL     1      -0.723   2.012  25.881  0.00  0.00    +0.323 C 
ATOM      5  O   UNL     1      -1.064   2.759  25.802  0.00  0.00    -0.251 OA
ATOM      6  N   UNL     1      -1.108   1.348  25.577  0.00  0.00    -0.263 N 
ATOM      7  C   UNL     1      -0.767   0.602  25.656  0.00  0.00    +0.095 C 
ATOM      8  C   UNL     1      -1.151  -0.062  25.352  0.00  0.00    +0.022 C 
ATOM      9  C   UNL     1      -1.877   0.022  24.969  0.00  0.00    +0.015 C 
ATOM     14  C   UNL     1      -2.218   0.768  24.890  0.00  0.00    +0.026 C 
ATOM     30  C   UNL     1      -1.834   1.431  25.194  0.00  0.00    +0.095 C 
ENDROOT
BRANCH   3   2
ATOM      1  C   UNL     1       0.810   2.536  27.274  0.00  0.00    +0.025 C 
ATOM      2  C   UNL     1       0.387   2.592  26.568  0.00  0.00    +0.117 C 
ENDBRANCH   3   2
BRANCH   9  10
ATOM     10  C   UNL     1      -2.261  -0.643  24.665  0.00  0.00    +0.114 C 
BRANCH  10  11
ATOM     11  C   UNL     1      -1.992  -1.399  24.856  0.00  0.00    +0.365 C 
ATOM     12  O   UNL     1      -1.407  -1.756  24.397  0.00  0.00    -0.246 OA
ATOM     13  O   UNL     1      -2.308  -1.797  25.506  0.00  0.00    -0.246 OA
ENDBRANCH  10  11
ENDBRANCH   9  10
BRANCH  14  15
ATOM     15  C   UNL     1      -2.944   0.851  24.506  0.00  0.00    +0.047 C 
BRANCH  15  16
ATOM     16  C   UNL     1      -3.050   1.451  23.951  0.00  0.00    +0.053 C 
ATOM     17  N   UNL     1      -2.517   1.535  23.327  0.00  0.00    -0.274 NA
ATOM     18  C   UNL     1      -2.623   2.136  22.770  0.00  0.00    +0.130 C 
ATOM     19  C   UNL     1      -3.264   2.652  22.839  0.00  0.00    +0.053 C 
ATOM     20  C   UNL     1      -3.797   2.569  23.463  0.00  0.00    -0.019 A 
ATOM     21  C   UNL     1      -3.691   1.968  24.019  0.00  0.00    +0.009 A 
ATOM     22  C   UNL     1      -4.223   1.884  24.643  0.00  0.00    -0.003 A 
ATOM     23  C   UNL     1      -4.863   2.400  24.711  0.00  0.00    -0.023 A 
ATOM     24  C   UNL     1      -4.969   3.001  24.155  0.00  0.00    -0.005 A 
ATOM     25  C   UNL     1      -4.436   3.085  23.531  0.00  0.00    -0.004 A 
BRANCH  23  26
ATOM     26  C   UNL     1      -5.396   2.317  25.335  0.00  0.00    +0.019 C 
ATOM     27  C   UNL     1      -5.930   2.233  25.958  0.00  0.00    +0.004 C 
ATOM     28  C   UNL     1      -5.020   2.930  25.739  0.00  0.00    +0.004 C 
ATOM     29  C   UNL     1      -5.772   1.703  24.930  0.00  0.00    +0.004 C 
ENDBRANCH  23  26
ENDBRANCH  15  16
ENDBRANCH  14  15
TORSDOF 6
ENDMDL
