MODEL 1
REMARK VINA RESULT:      -8.9      0.000      0.000
REMARK  Name = 
REMARK  11 active torsions:
REMARK  status: ('A' for Active; 'I' for Inactive)
REMARK    1  A    between atoms: O_2  and  C_3
REMARK    2  A    between atoms: C_3  and  C_4
REMARK    3  A    between atoms: C_4  and  N_5
REMARK    4  A    between atoms: N_5  and  C_6
REMARK    5  A    between atoms: C_6  and  C_7
REMARK    6  A    between atoms: C_7  and  O_8
REMARK    7  A    between atoms: C_10  and  C_12
REMARK    8  A    between atoms: C_12  and  C_14
REMARK    9  A    between atoms: C_21  and  N_22
REMARK   10  A    between atoms: C_23  and  C_25
REMARK   11  A    between atoms: C_25  and  C_26
REMARK                            x       y       z     vdW  Elec       q    Type
REMARK                         _______ _______ _______ _____ _____    ______ ____
ROOT
ATOM     14  C   UNL     1      -1.543   0.853  24.813  0.00  0.00    +0.039 C 
ATOM     15  C   UNL     1      -1.394   1.628  25.054  0.00  0.00    +0.003 C 
ATOM     16  C   UNL     1      -0.678   1.990  24.861  0.00  0.00    +0.000 C 
ATOM     17  C   UNL     1      -0.112   1.578  24.427  0.00  0.00    +0.002 C 
ATOM     18  C   UNL     1       0.037   2.353  24.668  0.00  0.00    +0.000 C 
ATOM     19  C   UNL     1       0.605   1.941  24.234  0.00  0.00    +0.002 C 
ATOM     20  C   UNL     1       1.172   1.527  23.800  0.00  0.00    +0.022 C 
ATOM     21  C   UNL     1       1.024   0.753  23.559  0.00  0.00    +0.095 C 
ATOM     32  C   UNL     1       0.308   0.390  23.752  0.00  0.00    +0.022 C 
ATOM     33  C   UNL     1       0.160  -0.385  23.511  0.00  0.00    +0.002 C 
ATOM     34  C   UNL     1      -0.259   0.803  24.186  0.00  0.00    +0.032 C 
ATOM     35  C   UNL     1      -0.975   0.440  24.379  0.00  0.00    +0.152 C 
ATOM     36  O   UNL     1      -1.123  -0.334  24.138  0.00  0.00    -0.223 OA
ENDROOT
BRANCH  21  22
ATOM     22  N   UNL     1       1.591   0.340  23.125  0.00  0.00    -0.207 NA
ATOM     23  C   UNL     1       2.357   0.637  23.058  0.00  0.00    +0.246 C 
ATOM     24  O   UNL     1       2.558   1.349  23.426  0.00  0.00    -0.273 OA
BRANCH  23  25
ATOM     25  C   UNL     1       2.925   0.223  22.624  0.00  0.00    +0.113 C 
BRANCH  25  26
ATOM     26  C   UNL     1       3.682   0.115  22.933  0.00  0.00    -0.013 A 
ATOM     27  C   UNL     1       4.252   0.706  22.847  0.00  0.00    -0.004 A 
ATOM     28  C   UNL     1       5.008   0.598  23.156  0.00  0.00    -0.000 A 
ATOM     29  C   UNL     1       5.196  -0.102  23.552  0.00  0.00    -0.000 A 
ATOM     30  C   UNL     1       4.626  -0.692  23.638  0.00  0.00    -0.000 A 
ATOM     31  C   UNL     1       3.870  -0.584  23.329  0.00  0.00    -0.004 A 
ENDBRANCH  25  26
ENDBRANCH  23  25
ENDBRANCH  21  22
BRANCH  14  12
ATOM     12  C   UNL     1      -2.257   0.491  25.006  0.00  0.00    +0.079 C 
ATOM     13  C   UNL     1      -2.260  -0.229  25.409  0.00  0.00    +0.010 C 
BRANCH  12  10
ATOM      5  N   UNL     1      -3.646   0.388  24.686  0.00  0.00    -0.274 N 
ATOM     10  C   UNL     1      -2.971   0.848  24.797  0.00  0.00    +0.225 C 
ATOM     11  O   UNL     1      -3.008   1.667  24.699  0.00  0.00    -0.275 OA
BRANCH   5   4
ATOM      4  C   UNL     1      -4.360   0.747  24.477  0.00  0.00    +0.125 C 
BRANCH   4   3
ATOM      3  C   UNL     1      -4.851   1.058  25.062  0.00  0.00    +0.164 C 
BRANCH   3   2
ATOM      1  C   UNL     1      -5.992   1.838  25.426  0.00  0.00    +0.174 C 
ATOM      2  O   UNL     1      -5.550   1.443  24.852  0.00  0.00    -0.349 OA
ENDBRANCH   3   2
ENDBRANCH   4   3
ENDBRANCH   5   4
BRANCH   5   6
ATOM      6  C   UNL     1      -3.609  -0.429  24.785  0.00  0.00    +0.125 C 
BRANCH   6   7
ATOM      7  C   UNL     1      -4.079  -0.923  24.320  0.00  0.00    +0.164 C 
BRANCH   7   8
ATOM      8  O   UNL     1      -4.079  -1.738  24.453  0.00  0.00    -0.349 OA
ATOM      9  C   UNL     1      -4.311  -2.254  23.852  0.00  0.00    +0.174 C 
ENDBRANCH   7   8
ENDBRANCH   6   7
ENDBRANCH   5   6
ENDBRANCH  12  10
ENDBRANCH  14  12
TORSDOF 11
ENDMDL
MODEL 2
REMARK VINA RESULT:      -8.6      1.579      2.725
REMARK  Name = 
REMARK  11 active torsions:
REMARK  status: ('A' for Active; 'I' for Inactive)
REMARK    1  A    between atoms: O_2  and  C_3
REMARK    2  A    between atoms: C_3  and  C_4
REMARK    3  A    between atoms: C_4  and  N_5
REMARK    4  A    between atoms: N_5  and  C_6
REMARK    5  A    between atoms: C_6  and  C_7
REMARK    6  A    between atoms: C_7  and  O_8
REMARK    7  A    between atoms: C_10  and  C_12
REMARK    8  A    between atoms: C_12  and  C_14
REMARK    9  A    between atoms: C_21  and  N_22
REMARK   10  A    between atoms: C_23  and  C_25
REMARK   11  A    between atoms: C_25  and  C_26
REMARK                            x       y       z     vdW  Elec       q    Type
REMARK                         _______ _______ _______ _____ _____    ______ ____
ROOT
ATOM     14  C   UNL     1      -1.266   1.334  24.975  0.00  0.00    +0.039 C 
ATOM     15  C   UNL     1      -1.534   0.565  25.108  0.00  0.00    +0.003 C 
ATOM     16  C   UNL     1      -1.142  -0.074  24.764  0.00  0.00    +0.000 C 
ATOM     17  C   UNL     1      -0.482   0.056  24.287  0.00  0.00    +0.002 C 
ATOM     18  C   UNL     1      -0.749  -0.713  24.420  0.00  0.00    +0.000 C 
ATOM     19  C   UNL     1      -0.089  -0.584  23.943  0.00  0.00    +0.002 C 
ATOM     20  C   UNL     1       0.571  -0.454  23.465  0.00  0.00    +0.022 C 
ATOM     21  C   UNL     1       0.839   0.315  23.331  0.00  0.00    +0.095 C 
ATOM     32  C   UNL     1       0.446   0.954  23.676  0.00  0.00    +0.022 C 
ATOM     33  C   UNL     1       0.714   1.723  23.542  0.00  0.00    +0.002 C 
ATOM     34  C   UNL     1      -0.214   0.825  24.153  0.00  0.00    +0.032 C 
ATOM     35  C   UNL     1      -0.606   1.464  24.497  0.00  0.00    +0.152 C 
ATOM     36  O   UNL     1      -0.339   2.233  24.364  0.00  0.00    -0.223 OA
ENDROOT
BRANCH  21  22
ATOM     22  N   UNL     1       1.499   0.445  22.854  0.00  0.00    -0.207 NA
ATOM     23  C   UNL     1       2.147  -0.062  22.898  0.00  0.00    +0.246 C 
ATOM     24  O   UNL     1       2.137  -0.701  23.421  0.00  0.00    -0.273 OA
BRANCH  23  25
ATOM     25  C   UNL     1       2.807   0.069  22.421  0.00  0.00    +0.113 C 
BRANCH  25  26
ATOM     26  C   UNL     1       3.553   0.157  22.763  0.00  0.00    -0.013 A 
ATOM     27  C   UNL     1       3.923  -0.490  23.119  0.00  0.00    -0.004 A 
ATOM     28  C   UNL     1       4.668  -0.401  23.461  0.00  0.00    -0.000 A 
ATOM     29  C   UNL     1       5.043   0.334  23.448  0.00  0.00    -0.000 A 
ATOM     30  C   UNL     1       4.673   0.980  23.093  0.00  0.00    -0.000 A 
ATOM     31  C   UNL     1       3.928   0.891  22.751  0.00  0.00    -0.004 A 
ENDBRANCH  25  26
ENDBRANCH  23  25
ENDBRANCH  21  22
BRANCH  14  12
ATOM     12  C   UNL     1      -1.658   1.972  25.319  0.00  0.00    +0.079 C 
ATOM     13  C   UNL     1      -1.292   2.408  25.917  0.00  0.00    +0.010 C 
BRANCH  12  10
ATOM      5  N   UNL     1      -2.676   2.957  25.126  0.00  0.00    -0.274 N 
ATOM     10  C   UNL     1      -2.416   2.176  25.066  0.00  0.00    +0.225 C 
ATOM     11  O   UNL     1      -2.916   1.598  24.752  0.00  0.00    -0.275 OA
BRANCH   5   4
ATOM      4  C   UNL     1      -3.434   3.160  24.873  0.00  0.00    +0.125 C 
BRANCH   4   3
ATOM      3  C   UNL     1      -4.064   3.144  25.405  0.00  0.00    +0.164 C 
BRANCH   3   2
ATOM      1  C   UNL     1      -5.458   3.308  25.677  0.00  0.00    +0.174 C 
ATOM      2  O   UNL     1      -4.819   3.367  25.158  0.00  0.00    -0.349 OA
ENDBRANCH   3   2
ENDBRANCH   4   3
ENDBRANCH   5   4
BRANCH   5   6
ATOM      6  C   UNL     1      -2.177   3.534  25.440  0.00  0.00    +0.125 C 
BRANCH   6   7
ATOM      7  C   UNL     1      -2.215   4.309  25.159  0.00  0.00    +0.164 C 
BRANCH   7   8
ATOM      8  O   UNL     1      -1.748   4.896  25.503  0.00  0.00    -0.349 OA
ATOM      9  C   UNL     1      -1.478   5.528  25.047  0.00  0.00    +0.174 C 
ENDBRANCH   7   8
ENDBRANCH   6   7
ENDBRANCH   5   6
ENDBRANCH  12  10
ENDBRANCH  14  12
TORSDOF 11
ENDMDL
MODEL 3
REMARK VINA RESULT:      -8.4      1.810      6.341
REMARK  Name = 
REMARK  11 active torsions:
REMARK  status: ('A' for Active; 'I' for Inactive)
REMARK    1  A    between atoms: O_2  and  C_3
REMARK    2  A    between atoms: C_3  and  C_4
REMARK    3  A    between atoms: C_4  and  N_5
REMARK    4  A    between atoms: N_5  and  C_6
REMARK    5  A    between atoms: C_6  and  C_7
REMARK    6  A    between atoms: C_7  and  O_8
REMARK    7  A    between atoms: C_10  and  C_12
REMARK    8  A    between atoms: C_12  and  C_14
REMARK    9  A    between atoms: C_21  and  N_22
REMARK   10  A    between atoms: C_23  and  C_25
REMARK   11  A    between atoms: C_25  and  C_26
REMARK                            x       y       z     vdW  Elec       q    Type
REMARK                         _______ _______ _______ _____ _____    ______ ____
ROOT
ATOM     14  C   UNL     1      -0.591   2.121  24.923  0.00  0.00    +0.039 C 
ATOM     15  C   UNL     1      -0.212   2.829  25.112  0.00  0.00    +0.003 C 
ATOM     16  C   UNL     1      -0.651   3.524  25.190  0.00  0.00    +0.000 C 
ATOM     17  C   UNL     1      -1.467   3.510  25.079  0.00  0.00    +0.002 C 
ATOM     18  C   UNL     1      -1.089   4.218  25.267  0.00  0.00    +0.000 C 
ATOM     19  C   UNL     1      -1.906   4.206  25.156  0.00  0.00    +0.002 C 
ATOM     20  C   UNL     1      -2.724   4.191  25.045  0.00  0.00    +0.022 C 
ATOM     21  C   UNL     1      -3.103   3.484  24.856  0.00  0.00    +0.095 C 
ATOM     32  C   UNL     1      -2.664   2.789  24.778  0.00  0.00    +0.022 C 
ATOM     33  C   UNL     1      -3.043   2.081  24.589  0.00  0.00    +0.002 C 
ATOM     34  C   UNL     1      -1.847   2.802  24.889  0.00  0.00    +0.032 C 
ATOM     35  C   UNL     1      -1.409   2.108  24.812  0.00  0.00    +0.152 C 
ATOM     36  O   UNL     1      -1.787   1.400  24.623  0.00  0.00    -0.223 OA
ENDROOT
BRANCH  21  22
ATOM     22  N   UNL     1      -3.920   3.470  24.745  0.00  0.00    -0.207 NA
ATOM     23  C   UNL     1      -4.426   3.635  25.374  0.00  0.00    +0.246 C 
ATOM     24  O   UNL     1      -4.114   3.814  26.118  0.00  0.00    -0.273 OA
BRANCH  23  25
ATOM     25  C   UNL     1      -5.243   3.621  25.263  0.00  0.00    +0.113 C 
BRANCH  25  26
ATOM     26  C   UNL     1      -5.677   2.952  25.478  0.00  0.00    -0.013 A 
ATOM     27  C   UNL     1      -5.821   2.792  26.275  0.00  0.00    -0.004 A 
ATOM     28  C   UNL     1      -6.254   2.125  26.489  0.00  0.00    -0.000 A 
ATOM     29  C   UNL     1      -6.544   1.616  25.907  0.00  0.00    -0.000 A 
ATOM     30  C   UNL     1      -6.399   1.776  25.111  0.00  0.00    -0.000 A 
ATOM     31  C   UNL     1      -5.966   2.443  24.896  0.00  0.00    -0.004 A 
ENDBRANCH  25  26
ENDBRANCH  23  25
ENDBRANCH  21  22
BRANCH  14  12
ATOM     12  C   UNL     1      -0.153   1.427  24.846  0.00  0.00    +0.079 C 
ATOM     13  C   UNL     1      -0.106   0.896  25.476  0.00  0.00    +0.010 C 
BRANCH  12  10
ATOM      5  N   UNL     1       0.329   0.482  23.888  0.00  0.00    -0.274 N 
ATOM     10  C   UNL     1       0.239   1.263  24.138  0.00  0.00    +0.225 C 
ATOM     11  O   UNL     1       0.540   1.881  23.681  0.00  0.00    -0.275 OA
BRANCH   5   4
ATOM      4  C   UNL     1       0.721   0.319  23.181  0.00  0.00    +0.125 C 
BRANCH   4   3
ATOM      3  C   UNL     1       1.540   0.213  23.178  0.00  0.00    +0.164 C 
BRANCH   3   2
ATOM      1  C   UNL     1       2.753   0.070  22.436  0.00  0.00    +0.174 C 
ATOM      2  O   UNL     1       1.930   0.027  22.475  0.00  0.00    -0.349 OA
ENDBRANCH   3   2
ENDBRANCH   4   3
ENDBRANCH   5   4
BRANCH   5   6
ATOM      6  C   UNL     1       0.028  -0.135  24.345  0.00  0.00    +0.125 C 
BRANCH   6   7
ATOM      7  C   UNL     1      -0.259  -0.816  23.980  0.00  0.00    +0.164 C 
BRANCH   7   8
ATOM      8  O   UNL     1      -0.499  -1.460  24.437  0.00  0.00    -0.349 OA
ATOM      9  C   UNL     1      -1.124  -1.936  24.185  0.00  0.00    +0.174 C 
ENDBRANCH   7   8
ENDBRANCH   6   7
ENDBRANCH   5   6
ENDBRANCH  12  10
ENDBRANCH  14  12
TORSDOF 11
ENDMDL
MODEL 4
REMARK VINA RESULT:      -7.7      3.306      5.210
REMARK  Name = 
REMARK  11 active torsions:
REMARK  status: ('A' for Active; 'I' for Inactive)
REMARK    1  A    between atoms: O_2  and  C_3
REMARK    2  A    between atoms: C_3  and  C_4
REMARK    3  A    between atoms: C_4  and  N_5
REMARK    4  A    between atoms: N_5  and  C_6
REMARK    5  A    between atoms: C_6  and  C_7
REMARK    6  A    between atoms: C_7  and  O_8
REMARK    7  A    between atoms: C_10  and  C_12
REMARK    8  A    between atoms: C_12  and  C_14
REMARK    9  A    between atoms: C_21  and  N_22
REMARK   10  A    between atoms: C_23  and  C_25
REMARK   11  A    between atoms: C_25  and  C_26
REMARK                            x       y       z     vdW  Elec       q    Type
REMARK                         _______ _______ _______ _____ _____    ______ ____
ROOT
ATOM     14  C   UNL     1      -4.170   0.448  24.270  0.00  0.00    +0.039 C 
ATOM     15  C   UNL     1      -4.838   0.403  24.752  0.00  0.00    +0.003 C 
ATOM     16  C   UNL     1      -5.104   1.072  25.154  0.00  0.00    +0.000 C 
ATOM     17  C   UNL     1      -4.702   1.787  25.075  0.00  0.00    +0.002 C 
ATOM     18  C   UNL     1      -5.370   1.741  25.557  0.00  0.00    +0.000 C 
ATOM     19  C   UNL     1      -4.968   2.457  25.478  0.00  0.00    +0.002 C 
ATOM     20  C   UNL     1      -4.565   3.173  25.398  0.00  0.00    +0.022 C 
ATOM     21  C   UNL     1      -3.897   3.219  24.917  0.00  0.00    +0.095 C 
ATOM     32  C   UNL     1      -3.631   2.549  24.514  0.00  0.00    +0.022 C 
ATOM     33  C   UNL     1      -2.963   2.596  24.032  0.00  0.00    +0.002 C 
ATOM     34  C   UNL     1      -4.033   1.834  24.593  0.00  0.00    +0.032 C 
ATOM     35  C   UNL     1      -3.768   1.165  24.191  0.00  0.00    +0.152 C 
ATOM     36  O   UNL     1      -3.100   1.210  23.709  0.00  0.00    -0.223 OA
ENDROOT
BRANCH  21  22
ATOM     22  N   UNL     1      -3.494   3.935  24.837  0.00  0.00    -0.207 NA
ATOM     23  C   UNL     1      -3.087   4.254  25.480  0.00  0.00    +0.246 C 
ATOM     24  O   UNL     1      -3.083   3.857  26.204  0.00  0.00    -0.273 OA
BRANCH  23  25
ATOM     25  C   UNL     1      -2.684   4.969  25.400  0.00  0.00    +0.113 C 
BRANCH  25  26
ATOM     26  C   UNL     1      -1.877   4.971  25.231  0.00  0.00    -0.013 A 
ATOM     27  C   UNL     1      -1.558   5.553  24.740  0.00  0.00    -0.004 A 
ATOM     28  C   UNL     1      -0.752   5.555  24.572  0.00  0.00    -0.000 A 
ATOM     29  C   UNL     1      -0.262   4.973  24.894  0.00  0.00    -0.000 A 
ATOM     30  C   UNL     1      -0.580   4.392  25.385  0.00  0.00    -0.000 A 
ATOM     31  C   UNL     1      -1.387   4.390  25.553  0.00  0.00    -0.004 A 
ENDBRANCH  25  26
ENDBRANCH  23  25
ENDBRANCH  21  22
BRANCH  14  12
ATOM     12  C   UNL     1      -3.905  -0.220  23.868  0.00  0.00    +0.079 C 
ATOM     13  C   UNL     1      -3.502  -0.139  23.152  0.00  0.00    +0.010 C 
BRANCH  12  10
ATOM      5  N   UNL     1      -3.406  -1.445  24.409  0.00  0.00    -0.274 N 
ATOM     10  C   UNL     1      -4.041  -0.971  24.181  0.00  0.00    +0.225 C 
ATOM     11  O   UNL     1      -4.815  -1.249  24.265  0.00  0.00    -0.275 OA
BRANCH   5   4
ATOM      4  C   UNL     1      -3.543  -2.196  24.722  0.00  0.00    +0.125 C 
BRANCH   4   3
ATOM      3  C   UNL     1      -3.615  -2.846  24.218  0.00  0.00    +0.164 C 
BRANCH   3   2
ATOM      1  C   UNL     1      -3.836  -4.246  24.037  0.00  0.00    +0.174 C 
ATOM      2  O   UNL     1      -3.665  -3.607  24.530  0.00  0.00    -0.349 OA
ENDBRANCH   3   2
ENDBRANCH   4   3
ENDBRANCH   5   4
BRANCH   5   6
ATOM      6  C   UNL     1      -2.634  -1.168  24.325  0.00  0.00    +0.125 C 
BRANCH   6   7
ATOM      7  C   UNL     1      -2.035  -1.463  24.809  0.00  0.00    +0.164 C 
BRANCH   7   8
ATOM      8  O   UNL     1      -1.246  -1.283  24.646  0.00  0.00    -0.349 OA
ATOM      9  C   UNL     1      -0.693  -1.256  25.258  0.00  0.00    +0.174 C 
ENDBRANCH   7   8
ENDBRANCH   6   7
ENDBRANCH   5   6
ENDBRANCH  12  10
ENDBRANCH  14  12
TORSDOF 11
ENDMDL
MODEL 5
REMARK VINA RESULT:      -7.6      1.366      6.555
REMARK  Name = 
REMARK  11 active torsions:
REMARK  status: ('A' for Active; 'I' for Inactive)
REMARK    1  A    between atoms: O_2  and  C_3
REMARK    2  A    between atoms: C_3  and  C_4
REMARK    3  A    between atoms: C_4  and  N_5
REMARK    4  A    between atoms: N_5  and  C_6
REMARK    5  A    between atoms: C_6  and  C_7
REMARK    6  A    between atoms: C_7  and  O_8
REMARK    7  A    between atoms: C_10  and  C_12
REMARK    8  A    between atoms: C_12  and  C_14
REMARK    9  A    between atoms: C_21  and  N_22
REMARK   10  A    between atoms: C_23  and  C_25
REMARK   11  A    between atoms: C_25  and  C_26
REMARK                            x       y       z     vdW  Elec       q    Type
REMARK                         _______ _______ _______ _____ _____    ______ ____
ROOT
ATOM     14  C   UNL     1      -1.459  -0.967  24.602  0.00  0.00    +0.039 C 
ATOM     15  C   UNL     1      -1.736  -1.646  24.224  0.00  0.00    +0.003 C 
ATOM     16  C   UNL     1      -2.546  -1.798  24.188  0.00  0.00    +0.000 C 
ATOM     17  C   UNL     1      -3.079  -1.272  24.531  0.00  0.00    +0.002 C 
ATOM     18  C   UNL     1      -3.356  -1.951  24.153  0.00  0.00    +0.000 C 
ATOM     19  C   UNL     1      -3.890  -1.424  24.495  0.00  0.00    +0.002 C 
ATOM     20  C   UNL     1      -4.424  -0.897  24.839  0.00  0.00    +0.022 C 
ATOM     21  C   UNL     1      -4.149  -0.218  25.217  0.00  0.00    +0.095 C 
ATOM     32  C   UNL     1      -3.338  -0.065  25.252  0.00  0.00    +0.022 C 
ATOM     33  C   UNL     1      -3.062   0.614  25.631  0.00  0.00    +0.002 C 
ATOM     34  C   UNL     1      -2.804  -0.592  24.909  0.00  0.00    +0.032 C 
ATOM     35  C   UNL     1      -1.994  -0.440  24.945  0.00  0.00    +0.152 C 
ATOM     36  O   UNL     1      -1.718   0.239  25.323  0.00  0.00    -0.223 OA
ENDROOT
BRANCH  21  22
ATOM     22  N   UNL     1      -4.683   0.310  25.560  0.00  0.00    -0.207 NA
ATOM     23  C   UNL     1      -5.196   0.746  25.084  0.00  0.00    +0.246 C 
ATOM     24  O   UNL     1      -5.176   0.655  24.264  0.00  0.00    -0.273 OA
BRANCH  23  25
ATOM     25  C   UNL     1      -5.730   1.273  25.427  0.00  0.00    +0.113 C 
BRANCH  25  26
ATOM     26  C   UNL     1      -5.580   2.084  25.404  0.00  0.00    -0.013 A 
ATOM     27  C   UNL     1      -5.594   2.527  26.100  0.00  0.00    -0.004 A 
ATOM     28  C   UNL     1      -5.445   3.337  26.076  0.00  0.00    -0.000 A 
ATOM     29  C   UNL     1      -5.281   3.706  25.356  0.00  0.00    -0.000 A 
ATOM     30  C   UNL     1      -5.267   3.263  24.660  0.00  0.00    -0.000 A 
ATOM     31  C   UNL     1      -5.417   2.453  24.684  0.00  0.00    -0.004 A 
ENDBRANCH  25  26
ENDBRANCH  23  25
ENDBRANCH  21  22
BRANCH  14  12
ATOM     12  C   UNL     1      -0.650  -0.815  24.637  0.00  0.00    +0.079 C 
ATOM     13  C   UNL     1      -0.281  -0.710  25.368  0.00  0.00    +0.010 C 
BRANCH  12  10
ATOM      5  N   UNL     1       0.222  -0.084  23.773  0.00  0.00    -0.274 N 
ATOM     10  C   UNL     1      -0.208  -0.767  23.942  0.00  0.00    +0.225 C 
ATOM     11  O   UNL     1      -0.197  -1.404  23.416  0.00  0.00    -0.275 OA
BRANCH   5   4
ATOM      4  C   UNL     1       0.664  -0.038  23.077  0.00  0.00    +0.125 C 
BRANCH   4   3
ATOM      3  C   UNL     1       1.480  -0.160  23.098  0.00  0.00    +0.164 C 
BRANCH   3   2
ATOM      1  C   UNL     1       2.721   0.037  22.418  0.00  0.00    +0.174 C 
ATOM      2  O   UNL     1       1.917  -0.148  22.399  0.00  0.00    -0.349 OA
ENDBRANCH   3   2
ENDBRANCH   4   3
ENDBRANCH   5   4
BRANCH   5   6
ATOM      6  C   UNL     1       0.211   0.551  24.298  0.00  0.00    +0.125 C 
BRANCH   6   7
ATOM      7  C   UNL     1       0.290   1.322  24.014  0.00  0.00    +0.164 C 
BRANCH   7   8
ATOM      8  O   UNL     1       0.432   1.943  24.540  0.00  0.00    -0.349 OA
ATOM      9  C   UNL     1       0.121   2.692  24.387  0.00  0.00    +0.174 C 
ENDBRANCH   7   8
ENDBRANCH   6   7
ENDBRANCH   5   6
ENDBRANCH  12  10
ENDBRANCH  14  12
TORSDOF 11
ENDMDL
MODEL 6
REMARK VINA RESULT:      -7.4      2.454      4.972
REMARK  Name = 
REMARK  11 active torsions:
REMARK  status: ('A' for Active; 'I' for Inactive)
REMARK    1  A    between atoms: O_2  and  C_3
REMARK    2  A    between atoms: C_3  and  C_4
REMARK    3  A    between atoms: C_4  and  N_5
REMARK    4  A    between atoms: N_5  and  C_6
REMARK    5  A    between atoms: C_6  and  C_7
REMARK    6  A    between atoms: C_7  and  O_8
REMARK    7  A    between atoms: C_10  and  C_12
REMARK    8  A    between atoms: C_12  and  C_14
REMARK    9  A    between atoms: C_21  and  N_22
REMARK   10  A    between atoms: C_23  and  C_25
REMARK   11  A    between atoms: C_25  and  C_26
REMARK                            x       y       z     vdW  Elec       q    Type
REMARK                         _______ _______ _______ _____ _____    ______ ____
ROOT
ATOM     14  C   UNL     1      -0.293   2.063  25.094  0.00  0.00    +0.039 C 
ATOM     15  C   UNL     1       0.210   2.089  24.440  0.00  0.00    +0.003 C 
ATOM     16  C   UNL     1       0.372   1.400  24.016  0.00  0.00    +0.000 C 
ATOM     17  C   UNL     1       0.031   0.686  24.246  0.00  0.00    +0.002 C 
ATOM     18  C   UNL     1       0.534   0.711  23.592  0.00  0.00    +0.000 C 
ATOM     19  C   UNL     1       0.193  -0.004  23.822  0.00  0.00    +0.002 C 
ATOM     20  C   UNL     1      -0.148  -0.720  24.052  0.00  0.00    +0.022 C 
ATOM     21  C   UNL     1      -0.650  -0.746  24.705  0.00  0.00    +0.095 C 
ATOM     32  C   UNL     1      -0.812  -0.056  25.130  0.00  0.00    +0.022 C 
ATOM     33  C   UNL     1      -1.315  -0.084  25.783  0.00  0.00    +0.002 C 
ATOM     34  C   UNL     1      -0.472   0.658  24.900  0.00  0.00    +0.032 C 
ATOM     35  C   UNL     1      -0.634   1.347  25.324  0.00  0.00    +0.152 C 
ATOM     36  O   UNL     1      -1.136   1.321  25.977  0.00  0.00    -0.223 OA
ENDROOT
BRANCH  21  22
ATOM     22  N   UNL     1      -0.991  -1.462  24.935  0.00  0.00    -0.207 NA
ATOM     23  C   UNL     1      -1.415  -1.911  24.390  0.00  0.00    +0.246 C 
ATOM     24  O   UNL     1      -1.499  -1.646  23.612  0.00  0.00    -0.273 OA
BRANCH  23  25
ATOM     25  C   UNL     1      -1.756  -2.627  24.620  0.00  0.00    +0.113 C 
BRANCH  25  26
ATOM     26  C   UNL     1      -2.568  -2.743  24.533  0.00  0.00    -0.013 A 
ATOM     27  C   UNL     1      -2.870  -3.023  23.817  0.00  0.00    -0.004 A 
ATOM     28  C   UNL     1      -3.681  -3.139  23.730  0.00  0.00    -0.000 A 
ATOM     29  C   UNL     1      -4.192  -2.975  24.358  0.00  0.00    -0.000 A 
ATOM     30  C   UNL     1      -3.890  -2.696  25.072  0.00  0.00    -0.000 A 
ATOM     31  C   UNL     1      -3.078  -2.580  25.160  0.00  0.00    -0.004 A 
ENDBRANCH  25  26
ENDBRANCH  23  25
ENDBRANCH  21  22
BRANCH  14  12
ATOM     12  C   UNL     1      -0.455   2.752  25.517  0.00  0.00    +0.079 C 
ATOM     13  C   UNL     1      -0.494   2.729  26.342  0.00  0.00    +0.010 C 
BRANCH  12  10
ATOM      5  N   UNL     1      -1.302   3.852  25.181  0.00  0.00    -0.274 N 
ATOM     10  C   UNL     1      -0.577   3.463  25.118  0.00  0.00    +0.225 C 
ATOM     11  O   UNL     1       0.026   3.785  24.655  0.00  0.00    -0.275 OA
BRANCH   5   4
ATOM      4  C   UNL     1      -1.423   4.564  24.782  0.00  0.00    +0.125 C 
BRANCH   4   3
ATOM      3  C   UNL     1      -1.349   5.280  25.184  0.00  0.00    +0.164 C 
BRANCH   3   2
ATOM      1  C   UNL     1      -1.811   6.613  24.952  0.00  0.00    +0.174 C 
ATOM      2  O   UNL     1      -1.307   5.988  24.763  0.00  0.00    -0.349 OA
ENDBRANCH   3   2
ENDBRANCH   4   3
ENDBRANCH   5   4
BRANCH   5   6
ATOM      6  C   UNL     1      -1.904   3.531  25.644  0.00  0.00    +0.125 C 
BRANCH   6   7
ATOM      7  C   UNL     1      -2.692   3.712  25.479  0.00  0.00    +0.164 C 
BRANCH   7   8
ATOM      8  O   UNL     1      -3.292   3.424  25.968  0.00  0.00    -0.349 OA
ATOM      9  C   UNL     1      -4.082   3.510  25.745  0.00  0.00    +0.174 C 
ENDBRANCH   7   8
ENDBRANCH   6   7
ENDBRANCH   5   6
ENDBRANCH  12  10
ENDBRANCH  14  12
TORSDOF 11
ENDMDL
MODEL 7
REMARK VINA RESULT:      -7.4      3.436      5.897
REMARK  Name = 
REMARK  11 active torsions:
REMARK  status: ('A' for Active; 'I' for Inactive)
REMARK    1  A    between atoms: O_2  and  C_3
REMARK    2  A    between atoms: C_3  and  C_4
REMARK    3  A    between atoms: C_4  and  N_5
REMARK    4  A    between atoms: N_5  and  C_6
REMARK    5  A    between atoms: C_6  and  C_7
REMARK    6  A    between atoms: C_7  and  O_8
REMARK    7  A    between atoms: C_10  and  C_12
REMARK    8  A    between atoms: C_12  and  C_14
REMARK    9  A    between atoms: C_21  and  N_22
REMARK   10  A    between atoms: C_23  and  C_25
REMARK   11  A    between atoms: C_25  and  C_26
REMARK                            x       y       z     vdW  Elec       q    Type
REMARK                         _______ _______ _______ _____ _____    ______ ____
ROOT
ATOM     14  C   UNL     1      -3.504   3.175  25.160  0.00  0.00    +0.039 C 
ATOM     15  C   UNL     1      -4.202   3.312  25.579  0.00  0.00    +0.003 C 
ATOM     16  C   UNL     1      -4.799   2.742  25.584  0.00  0.00    +0.000 C 
ATOM     17  C   UNL     1      -4.699   2.037  25.170  0.00  0.00    +0.002 C 
ATOM     18  C   UNL     1      -5.396   2.173  25.589  0.00  0.00    +0.000 C 
ATOM     19  C   UNL     1      -5.296   1.467  25.175  0.00  0.00    +0.002 C 
ATOM     20  C   UNL     1      -5.195   0.760  24.760  0.00  0.00    +0.022 C 
ATOM     21  C   UNL     1      -4.499   0.623  24.341  0.00  0.00    +0.095 C 
ATOM     32  C   UNL     1      -3.901   1.193  24.337  0.00  0.00    +0.022 C 
ATOM     33  C   UNL     1      -3.204   1.056  23.917  0.00  0.00    +0.002 C 
ATOM     34  C   UNL     1      -4.001   1.899  24.751  0.00  0.00    +0.032 C 
ATOM     35  C   UNL     1      -3.404   2.468  24.746  0.00  0.00    +0.152 C 
ATOM     36  O   UNL     1      -2.707   2.332  24.327  0.00  0.00    -0.223 OA
ENDROOT
BRANCH  21  22
ATOM     22  N   UNL     1      -4.398  -0.083  23.927  0.00  0.00    -0.207 NA
ATOM     23  C   UNL     1      -4.342  -0.797  24.335  0.00  0.00    +0.246 C 
ATOM     24  O   UNL     1      -4.386  -0.806  25.160  0.00  0.00    -0.273 OA
BRANCH  23  25
ATOM     25  C   UNL     1      -4.241  -1.503  23.921  0.00  0.00    +0.113 C 
BRANCH  25  26
ATOM     26  C   UNL     1      -3.687  -2.057  24.179  0.00  0.00    -0.013 A 
ATOM     27  C   UNL     1      -3.936  -2.735  24.579  0.00  0.00    -0.004 A 
ATOM     28  C   UNL     1      -3.382  -3.288  24.837  0.00  0.00    -0.000 A 
ATOM     29  C   UNL     1      -2.578  -3.165  24.696  0.00  0.00    -0.000 A 
ATOM     30  C   UNL     1      -2.330  -2.487  24.296  0.00  0.00    -0.000 A 
ATOM     31  C   UNL     1      -2.883  -1.934  24.038  0.00  0.00    -0.004 A 
ENDBRANCH  25  26
ENDBRANCH  23  25
ENDBRANCH  21  22
BRANCH  14  12
ATOM     12  C   UNL     1      -2.908   3.744  25.155  0.00  0.00    +0.079 C 
ATOM     13  C   UNL     1      -2.920   4.350  24.595  0.00  0.00    +0.010 C 
BRANCH  12  10
ATOM      5  N   UNL     1      -1.519   3.840  25.476  0.00  0.00    -0.274 N 
ATOM     10  C   UNL     1      -2.299   3.708  25.710  0.00  0.00    +0.225 C 
ATOM     11  O   UNL     1      -2.470   3.541  26.500  0.00  0.00    -0.275 OA
BRANCH   5   4
ATOM      4  C   UNL     1      -0.910   3.804  26.032  0.00  0.00    +0.125 C 
BRANCH   4   3
ATOM      3  C   UNL     1      -0.534   3.086  26.186  0.00  0.00    +0.164 C 
BRANCH   3   2
ATOM      1  C   UNL     1       0.459   2.334  26.887  0.00  0.00    +0.174 C 
ATOM      2  O   UNL     1       0.105   3.058  26.706  0.00  0.00    -0.349 OA
ENDBRANCH   3   2
ENDBRANCH   4   3
ENDBRANCH   5   4
BRANCH   5   6
ATOM      6  C   UNL     1      -1.348   4.008  24.687  0.00  0.00    +0.125 C 
BRANCH   6   7
ATOM      7  C   UNL     1      -0.684   4.458  24.496  0.00  0.00    +0.164 C 
BRANCH   7   8
ATOM      8  O   UNL     1      -0.319   4.364  23.761  0.00  0.00    -0.349 OA
ATOM      9  C   UNL     1       0.099   4.991  23.425  0.00  0.00    +0.174 C 
ENDBRANCH   7   8
ENDBRANCH   6   7
ENDBRANCH   5   6
ENDBRANCH  12  10
ENDBRANCH  14  12
TORSDOF 11
ENDMDL
