MODEL 1
REMARK VINA RESULT:     -11.3      0.000      0.000
REMARK  Name = 
REMARK  5 active torsions:
REMARK  status: ('A' for Active; 'I' for Inactive)
REMARK    1  A    between atoms: O_2  and  C_3
REMARK    2  A    between atoms: C_8  and  C_9
REMARK    3  A    between atoms: C_9  and  C_10
REMARK    4  A    between atoms: N_12  and  C_13
REMARK    5  A    between atoms: C_25  and  C_27
REMARK                            x       y       z     vdW  Elec       q    Type
REMARK                         _______ _______ _______ _____ _____    ______ ____
ROOT
ATOM     13  C   UNL     1      -4.308   0.508  24.820  0.00  0.00    +0.117 C 
ATOM     14  C   UNL     1      -4.943   0.965  25.085  0.00  0.00    +0.053 C 
ATOM     15  C   UNL     1      -4.675   1.739  25.185  0.00  0.00    +0.155 C 
ATOM     16  N   UNL     1      -3.875   1.761  24.982  0.00  0.00    -0.270 N 
ATOM     17  C   UNL     1      -3.649   1.000  24.756  0.00  0.00    +0.115 C 
ATOM     18  C   UNL     1      -3.359   2.405  24.988  0.00  0.00    +0.246 C 
ATOM     19  O   UNL     1      -2.585   2.247  24.752  0.00  0.00    -0.273 OA
ATOM     20  C   UNL     1      -3.516   3.187  25.200  0.00  0.00    +0.172 C 
ATOM     21  C   UNL     1      -4.227   3.518  25.458  0.00  0.00    +0.124 C 
ATOM     22  C   UNL     1      -4.099   4.320  25.600  0.00  0.00    +0.045 C 
ATOM     23  C   UNL     1      -3.308   4.486  25.430  0.00  0.00    +0.096 C 
ATOM     24  N   UNL     1      -2.948   3.785  25.183  0.00  0.00    -0.268 N 
ATOM     25  C   UNL     1      -2.160   3.698  24.959  0.00  0.00    +0.255 C 
ATOM     26  O   UNL     1      -1.877   2.960  24.723  0.00  0.00    -0.269 OA
ATOM     32  N   UNL     1      -4.957   3.148  25.567  0.00  0.00    -0.204 NA
ATOM     33  C   UNL     1      -5.156   2.356  25.445  0.00  0.00    +0.260 C 
ATOM     34  O   UNL     1      -5.940   2.156  25.606  0.00  0.00    -0.272 OA
ENDROOT
BRANCH  25  27
ATOM     27  C   UNL     1      -1.653   4.350  24.969  0.00  0.00    +0.083 A 
ATOM     28  C   UNL     1      -1.884   5.142  24.988  0.00  0.00    +0.012 A 
ATOM     29  C   UNL     1      -1.200   5.605  24.993  0.00  0.00    +0.008 A 
ATOM     30  C   UNL     1      -0.549   5.099  24.978  0.00  0.00    +0.036 A 
ATOM     31  S   UNL     1      -0.830   4.323  24.964  0.00  0.00    -0.082 S 
ENDBRANCH  25  27
BRANCH  13  12
ATOM     10  C   UNL     1      -3.980  -0.838  25.166  0.00  0.00    +0.246 C 
ATOM     11  O   UNL     1      -3.609  -0.571  25.853  0.00  0.00    -0.273 OA
ATOM     12  N   UNL     1      -4.330  -0.298  24.650  0.00  0.00    -0.205 NA
BRANCH  10   9
ATOM      9  C   UNL     1      -4.001  -1.646  24.996  0.00  0.00    +0.116 C 
BRANCH   9   8
ATOM      3  C   UNL     1      -3.342  -2.691  24.279  0.00  0.00    +0.135 A 
ATOM      4  C   UNL     1      -2.650  -3.087  24.070  0.00  0.00    +0.037 A 
ATOM      5  C   UNL     1      -1.924  -2.836  24.369  0.00  0.00    +0.003 A 
ATOM      6  C   UNL     1      -1.890  -2.187  24.878  0.00  0.00    -0.000 A 
ATOM      7  C   UNL     1      -2.582  -1.790  25.087  0.00  0.00    -0.001 A 
ATOM      8  C   UNL     1      -3.308  -2.042  24.788  0.00  0.00    +0.021 A 
BRANCH   3   2
ATOM      1  C   UNL     1      -4.104  -3.600  23.482  0.00  0.00    +0.252 C 
ATOM      2  O   UNL     1      -4.069  -2.943  23.979  0.00  0.00    -0.472 OA
ENDBRANCH   3   2
ENDBRANCH   9   8
ENDBRANCH  10   9
ENDBRANCH  13  12
TORSDOF 5
ENDMDL
MODEL 2
REMARK VINA RESULT:     -10.1      2.404      6.402
REMARK  Name = 
REMARK  5 active torsions:
REMARK  status: ('A' for Active; 'I' for Inactive)
REMARK    1  A    between atoms: O_2  and  C_3
REMARK    2  A    between atoms: C_8  and  C_9
REMARK    3  A    between atoms: C_9  and  C_10
REMARK    4  A    between atoms: N_12  and  C_13
REMARK    5  A    between atoms: C_25  and  C_27
REMARK                            x       y       z     vdW  Elec       q    Type
REMARK                         _______ _______ _______ _____ _____    ______ ____
ROOT
ATOM     13  C   UNL     1      -0.701   1.737  24.441  0.00  0.00    +0.117 C 
ATOM     14  C   UNL     1      -0.047   1.270  24.254  0.00  0.00    +0.053 C 
ATOM     15  C   UNL     1      -0.296   0.484  24.219  0.00  0.00    +0.155 C 
ATOM     16  N   UNL     1      -1.105   0.465  24.384  0.00  0.00    -0.270 N 
ATOM     17  C   UNL     1      -1.355   1.240  24.521  0.00  0.00    +0.115 C 
ATOM     18  C   UNL     1      -1.608  -0.187  24.416  0.00  0.00    +0.246 C 
ATOM     19  O   UNL     1      -2.396  -0.023  24.597  0.00  0.00    -0.273 OA
ATOM     20  C   UNL     1      -1.428  -0.982  24.291  0.00  0.00    +0.172 C 
ATOM     21  C   UNL     1      -0.699  -1.322  24.102  0.00  0.00    +0.124 C 
ATOM     22  C   UNL     1      -0.807  -2.136  24.035  0.00  0.00    +0.045 C 
ATOM     23  C   UNL     1      -1.603  -2.302  24.181  0.00  0.00    +0.096 C 
ATOM     24  N   UNL     1      -1.986  -1.588  24.339  0.00  0.00    -0.268 N 
ATOM     25  C   UNL     1      -2.786  -1.496  24.515  0.00  0.00    +0.255 C 
ATOM     26  O   UNL     1      -3.093  -0.745  24.661  0.00  0.00    -0.269 OA
ATOM     32  N   UNL     1       0.029  -0.948  23.993  0.00  0.00    -0.204 NA
ATOM     33  C   UNL     1       0.208  -0.145  24.045  0.00  0.00    +0.260 C 
ATOM     34  O   UNL     1       0.996   0.056  23.904  0.00  0.00    -0.272 OA
ENDROOT
BRANCH  25  27
ATOM     27  C   UNL     1      -3.281  -2.157  24.544  0.00  0.00    +0.083 A 
ATOM     28  C   UNL     1      -3.317  -2.709  25.157  0.00  0.00    +0.012 A 
ATOM     29  C   UNL     1      -3.884  -3.274  24.956  0.00  0.00    +0.008 A 
ATOM     30  C   UNL     1      -4.197  -3.072  24.221  0.00  0.00    +0.036 A 
ATOM     31  S   UNL     1      -3.824  -2.381  23.966  0.00  0.00    -0.082 S 
ENDBRANCH  25  27
BRANCH  13  12
ATOM     10  C   UNL     1      -0.733   2.887  25.287  0.00  0.00    +0.246 C 
ATOM     11  O   UNL     1      -0.763   2.398  25.951  0.00  0.00    -0.273 OA
ATOM     12  N   UNL     1      -0.702   2.557  24.532  0.00  0.00    -0.205 NA
BRANCH  10   9
ATOM      9  C   UNL     1      -0.734   3.708  25.379  0.00  0.00    +0.116 C 
BRANCH   9   8
ATOM      3  C   UNL     1      -1.538   4.883  25.264  0.00  0.00    +0.135 A 
ATOM      4  C   UNL     1      -2.245   5.282  25.410  0.00  0.00    +0.037 A 
ATOM      5  C   UNL     1      -2.855   4.905  25.817  0.00  0.00    +0.003 A 
ATOM      6  C   UNL     1      -2.759   4.129  26.077  0.00  0.00    -0.000 A 
ATOM      7  C   UNL     1      -2.051   3.729  25.932  0.00  0.00    -0.001 A 
ATOM      8  C   UNL     1      -1.441   4.106  25.525  0.00  0.00    +0.021 A 
BRANCH   3   2
ATOM      1  C   UNL     1      -1.010   6.049  24.627  0.00  0.00    +0.252 C 
ATOM      2  O   UNL     1      -0.927   5.261  24.858  0.00  0.00    -0.472 OA
ENDBRANCH   3   2
ENDBRANCH   9   8
ENDBRANCH  10   9
ENDBRANCH  13  12
TORSDOF 5
ENDMDL
MODEL 3
REMARK VINA RESULT:     -10.0      2.851      4.533
REMARK  Name = 
REMARK  5 active torsions:
REMARK  status: ('A' for Active; 'I' for Inactive)
REMARK    1  A    between atoms: O_2  and  C_3
REMARK    2  A    between atoms: C_8  and  C_9
REMARK    3  A    between atoms: C_9  and  C_10
REMARK    4  A    between atoms: N_12  and  C_13
REMARK    5  A    between atoms: C_25  and  C_27
REMARK                            x       y       z     vdW  Elec       q    Type
REMARK                         _______ _______ _______ _____ _____    ______ ____
ROOT
ATOM     13  C   UNL     1      -0.605   2.846  24.283  0.00  0.00    +0.117 C 
ATOM     14  C   UNL     1      -0.696   3.565  24.676  0.00  0.00    +0.053 C 
ATOM     15  C   UNL     1      -1.482   3.623  24.922  0.00  0.00    +0.155 C 
ATOM     16  N   UNL     1      -1.876   2.938  24.680  0.00  0.00    -0.270 N 
ATOM     17  C   UNL     1      -1.333   2.458  24.285  0.00  0.00    +0.115 C 
ATOM     18  C   UNL     1      -2.667   2.733  24.793  0.00  0.00    +0.246 C 
ATOM     19  O   UNL     1      -2.895   2.004  24.483  0.00  0.00    -0.273 OA
ATOM     20  C   UNL     1      -3.260   3.161  25.175  0.00  0.00    +0.172 C 
ATOM     21  C   UNL     1      -3.208   3.900  25.539  0.00  0.00    +0.124 C 
ATOM     22  C   UNL     1      -3.952   4.088  25.840  0.00  0.00    +0.045 C 
ATOM     23  C   UNL     1      -4.465   3.466  25.663  0.00  0.00    +0.096 C 
ATOM     24  N   UNL     1      -4.036   2.893  25.252  0.00  0.00    -0.268 N 
ATOM     25  C   UNL     1      -4.332   2.178  24.967  0.00  0.00    +0.255 C 
ATOM     26  O   UNL     1      -3.836   1.657  24.564  0.00  0.00    -0.269 OA
ATOM     32  N   UNL     1      -2.550   4.393  25.611  0.00  0.00    -0.204 NA
ATOM     33  C   UNL     1      -1.782   4.270  25.336  0.00  0.00    +0.260 C 
ATOM     34  O   UNL     1      -1.243   4.873  25.496  0.00  0.00    -0.272 OA
ENDROOT
BRANCH  25  27
ATOM     27  C   UNL     1      -5.125   1.983  25.086  0.00  0.00    +0.083 A 
ATOM     28  C   UNL     1      -5.756   2.201  24.600  0.00  0.00    +0.012 A 
ATOM     29  C   UNL     1      -6.447   1.889  24.926  0.00  0.00    +0.008 A 
ATOM     30  C   UNL     1      -6.244   1.478  25.611  0.00  0.00    +0.036 A 
ATOM     31  S   UNL     1      -5.427   1.537  25.710  0.00  0.00    -0.082 S 
ENDBRANCH  25  27
BRANCH  13  12
ATOM     10  C   UNL     1       0.475   1.910  24.277  0.00  0.00    +0.246 C 
ATOM     11  O   UNL     1       0.160   1.542  24.944  0.00  0.00    -0.273 OA
ATOM     12  N   UNL     1       0.093   2.563  23.946  0.00  0.00    -0.205 NA
BRANCH  10   9
ATOM      9  C   UNL     1       1.173   1.626  23.941  0.00  0.00    +0.116 C 
BRANCH   9   8
ATOM      3  C   UNL     1       1.858   0.656  23.145  0.00  0.00    +0.135 A 
ATOM      4  C   UNL     1       1.858  -0.058  22.734  0.00  0.00    +0.037 A 
ATOM      5  C   UNL     1       1.174  -0.518  22.706  0.00  0.00    +0.003 A 
ATOM      6  C   UNL     1       0.490  -0.264  23.090  0.00  0.00    -0.000 A 
ATOM      7  C   UNL     1       0.490   0.452  23.502  0.00  0.00    -0.001 A 
ATOM      8  C   UNL     1       1.173   0.912  23.529  0.00  0.00    +0.021 A 
BRANCH   3   2
ATOM      1  C   UNL     1       3.231   0.854  22.802  0.00  0.00    +0.252 C 
ATOM      2  O   UNL     1       2.542   1.117  23.173  0.00  0.00    -0.472 OA
ENDBRANCH   3   2
ENDBRANCH   9   8
ENDBRANCH  10   9
ENDBRANCH  13  12
TORSDOF 5
ENDMDL
MODEL 4
REMARK VINA RESULT:     -10.0      2.849      5.216
REMARK  Name = 
REMARK  5 active torsions:
REMARK  status: ('A' for Active; 'I' for Inactive)
REMARK    1  A    between atoms: O_2  and  C_3
REMARK    2  A    between atoms: C_8  and  C_9
REMARK    3  A    between atoms: C_9  and  C_10
REMARK    4  A    between atoms: N_12  and  C_13
REMARK    5  A    between atoms: C_25  and  C_27
REMARK                            x       y       z     vdW  Elec       q    Type
REMARK                         _______ _______ _______ _____ _____    ______ ____
ROOT
ATOM     13  C   UNL     1      -2.557   1.385  24.878  0.00  0.00    +0.117 C 
ATOM     14  C   UNL     1      -2.582   0.635  25.222  0.00  0.00    +0.053 C 
ATOM     15  C   UNL     1      -1.913   0.220  24.974  0.00  0.00    +0.155 C 
ATOM     16  N   UNL     1      -1.475   0.713  24.477  0.00  0.00    -0.270 N 
ATOM     17  C   UNL     1      -1.874   1.433  24.418  0.00  0.00    +0.115 C 
ATOM     18  C   UNL     1      -0.765   0.554  24.090  0.00  0.00    +0.246 C 
ATOM     19  O   UNL     1      -0.463   1.167  23.628  0.00  0.00    -0.273 OA
ATOM     20  C   UNL     1      -0.316  -0.138  24.104  0.00  0.00    +0.172 C 
ATOM     21  C   UNL     1      -0.466  -0.842  24.509  0.00  0.00    +0.124 C 
ATOM     22  C   UNL     1       0.148  -1.367  24.344  0.00  0.00    +0.045 C 
ATOM     23  C   UNL     1       0.679  -0.988  23.838  0.00  0.00    +0.096 C 
ATOM     24  N   UNL     1       0.392  -0.229  23.690  0.00  0.00    -0.268 N 
ATOM     25  C   UNL     1       0.749   0.340  23.211  0.00  0.00    +0.255 C 
ATOM     26  O   UNL     1       0.397   1.079  23.114  0.00  0.00    -0.269 OA
ATOM     32  N   UNL     1      -1.104  -1.026  24.999  0.00  0.00    -0.204 NA
ATOM     33  C   UNL     1      -1.748  -0.554  25.206  0.00  0.00    +0.260 C 
ATOM     34  O   UNL     1      -2.299  -0.902  25.712  0.00  0.00    -0.272 OA
ENDROOT
BRANCH  25  27
ATOM     27  C   UNL     1       1.461   0.169  22.829  0.00  0.00    +0.083 A 
ATOM     28  C   UNL     1       1.542  -0.235  22.114  0.00  0.00    +0.012 A 
ATOM     29  C   UNL     1       2.348  -0.281  21.938  0.00  0.00    +0.008 A 
ATOM     30  C   UNL     1       2.762   0.093  22.544  0.00  0.00    +0.036 A 
ATOM     31  S   UNL     1       2.214   0.371  23.094  0.00  0.00    -0.082 S 
ENDBRANCH  25  27
BRANCH  13  12
ATOM     10  C   UNL     1      -3.764   2.030  24.465  0.00  0.00    +0.246 C 
ATOM     11  O   UNL     1      -3.849   1.480  23.856  0.00  0.00    -0.273 OA
ATOM     12  N   UNL     1      -3.118   1.982  24.977  0.00  0.00    -0.205 NA
BRANCH  10   9
ATOM      9  C   UNL     1      -4.325   2.627  24.563  0.00  0.00    +0.116 C 
BRANCH   9   8
ATOM      3  C   UNL     1      -5.432   3.037  25.368  0.00  0.00    +0.135 A 
ATOM      4  C   UNL     1      -6.156   2.869  25.726  0.00  0.00    +0.037 A 
ATOM      5  C   UNL     1      -6.498   2.124  25.636  0.00  0.00    +0.003 A 
ATOM      6  C   UNL     1      -6.115   1.547  25.189  0.00  0.00    -0.000 A 
ATOM      7  C   UNL     1      -5.391   1.714  24.831  0.00  0.00    -0.001 A 
ATOM      8  C   UNL     1      -5.049   2.459  24.921  0.00  0.00    +0.021 A 
BRANCH   3   2
ATOM      1  C   UNL     1      -5.560   4.431  25.660  0.00  0.00    +0.252 C 
ATOM      2  O   UNL     1      -5.089   3.783  25.458  0.00  0.00    -0.472 OA
ENDBRANCH   3   2
ENDBRANCH   9   8
ENDBRANCH  10   9
ENDBRANCH  13  12
TORSDOF 5
ENDMDL
MODEL 5
REMARK VINA RESULT:      -9.5      4.074      5.331
REMARK  Name = 
REMARK  5 active torsions:
REMARK  status: ('A' for Active; 'I' for Inactive)
REMARK    1  A    between atoms: O_2  and  C_3
REMARK    2  A    between atoms: C_8  and  C_9
REMARK    3  A    between atoms: C_9  and  C_10
REMARK    4  A    between atoms: N_12  and  C_13
REMARK    5  A    between atoms: C_25  and  C_27
REMARK                            x       y       z     vdW  Elec       q    Type
REMARK                         _______ _______ _______ _____ _____    ______ ____
ROOT
ATOM     13  C   UNL     1       0.529  -0.250  23.364  0.00  0.00    +0.117 C 
ATOM     14  C   UNL     1       0.233  -0.703  23.987  0.00  0.00    +0.053 C 
ATOM     15  C   UNL     1      -0.446  -0.330  24.272  0.00  0.00    +0.155 C 
ATOM     16  N   UNL     1      -0.569   0.353  23.826  0.00  0.00    -0.270 N 
ATOM     17  C   UNL     1       0.034   0.402  23.264  0.00  0.00    +0.115 C 
ATOM     18  C   UNL     1      -1.172   0.912  23.895  0.00  0.00    +0.246 C 
ATOM     19  O   UNL     1      -1.142   1.540  23.361  0.00  0.00    -0.273 OA
ATOM     20  C   UNL     1      -1.801   0.925  24.429  0.00  0.00    +0.172 C 
ATOM     21  C   UNL     1      -1.983   0.383  25.025  0.00  0.00    +0.124 C 
ATOM     22  C   UNL     1      -2.666   0.643  25.406  0.00  0.00    +0.045 C 
ATOM     23  C   UNL     1      -2.908   1.346  25.046  0.00  0.00    +0.096 C 
ATOM     24  N   UNL     1      -2.372   1.520  24.442  0.00  0.00    -0.268 N 
ATOM     25  C   UNL     1      -2.404   2.173  23.941  0.00  0.00    +0.255 C 
ATOM     26  O   UNL     1      -1.828   2.275  23.359  0.00  0.00    -0.269 OA
ATOM     32  N   UNL     1      -1.579  -0.306  25.234  0.00  0.00    -0.204 NA
ATOM     33  C   UNL     1      -0.895  -0.623  24.899  0.00  0.00    +0.260 C 
ATOM     34  O   UNL     1      -0.626  -1.327  25.235  0.00  0.00    -0.272 OA
ENDROOT
BRANCH  25  27
ATOM     27  C   UNL     1      -3.012   2.726  24.020  0.00  0.00    +0.083 A 
ATOM     28  C   UNL     1      -3.743   2.700  23.637  0.00  0.00    +0.012 A 
ATOM     29  C   UNL     1      -4.178   3.360  23.877  0.00  0.00    +0.008 A 
ATOM     30  C   UNL     1      -3.717   3.791  24.407  0.00  0.00    +0.036 A 
ATOM     31  S   UNL     1      -2.997   3.399  24.495  0.00  0.00    -0.082 S 
ENDBRANCH  25  27
BRANCH  13  12
ATOM     10  C   UNL     1       1.881   0.041  23.006  0.00  0.00    +0.246 C 
ATOM     11  O   UNL     1       1.886   0.670  23.539  0.00  0.00    -0.273 OA
ATOM     12  N   UNL     1       1.202  -0.420  22.918  0.00  0.00    -0.205 NA
BRANCH  10   9
ATOM      9  C   UNL     1       2.555  -0.128  22.560  0.00  0.00    +0.116 C 
BRANCH   9   8
ATOM      3  C   UNL     1       3.878  -0.230  23.091  0.00  0.00    +0.135 A 
ATOM      4  C   UNL     1       4.598   0.121  23.284  0.00  0.00    +0.037 A 
ATOM      5  C   UNL     1       4.719   0.924  23.139  0.00  0.00    +0.003 A 
ATOM      6  C   UNL     1       4.118   1.376  22.801  0.00  0.00    -0.000 A 
ATOM      7  C   UNL     1       3.396   1.026  22.608  0.00  0.00    -0.001 A 
ATOM      8  C   UNL     1       3.276   0.223  22.753  0.00  0.00    +0.021 A 
BRANCH   3   2
ATOM      1  C   UNL     1       4.323  -1.466  23.652  0.00  0.00    +0.252 C 
ATOM      2  O   UNL     1       3.756  -1.033  23.237  0.00  0.00    -0.472 OA
ENDBRANCH   3   2
ENDBRANCH   9   8
ENDBRANCH  10   9
ENDBRANCH  13  12
TORSDOF 5
ENDMDL
MODEL 6
REMARK VINA RESULT:      -9.4      3.277      4.840
REMARK  Name = 
REMARK  5 active torsions:
REMARK  status: ('A' for Active; 'I' for Inactive)
REMARK    1  A    between atoms: O_2  and  C_3
REMARK    2  A    between atoms: C_8  and  C_9
REMARK    3  A    between atoms: C_9  and  C_10
REMARK    4  A    between atoms: N_12  and  C_13
REMARK    5  A    between atoms: C_25  and  C_27
REMARK                            x       y       z     vdW  Elec       q    Type
REMARK                         _______ _______ _______ _____ _____    ______ ____
ROOT
ATOM     13  C   UNL     1      -0.516   0.090  24.524  0.00  0.00    +0.117 C 
ATOM     14  C   UNL     1      -0.900  -0.636  24.606  0.00  0.00    +0.053 C 
ATOM     15  C   UNL     1      -1.702  -0.488  24.731  0.00  0.00    +0.155 C 
ATOM     16  N   UNL     1      -1.814   0.331  24.726  0.00  0.00    -0.270 N 
ATOM     17  C   UNL     1      -1.080   0.687  24.598  0.00  0.00    +0.115 C 
ATOM     18  C   UNL     1      -2.514   0.755  24.827  0.00  0.00    +0.246 C 
ATOM     19  O   UNL     1      -2.443   1.576  24.793  0.00  0.00    -0.273 OA
ATOM     20  C   UNL     1      -3.276   0.466  24.958  0.00  0.00    +0.172 C 
ATOM     21  C   UNL     1      -3.526  -0.318  25.020  0.00  0.00    +0.124 C 
ATOM     22  C   UNL     1      -4.340  -0.317  25.151  0.00  0.00    +0.045 C 
ATOM     23  C   UNL     1      -4.594   0.468  25.170  0.00  0.00    +0.096 C 
ATOM     24  N   UNL     1      -3.936   0.952  25.050  0.00  0.00    -0.268 N 
ATOM     25  C   UNL     1      -3.938   1.776  25.028  0.00  0.00    +0.255 C 
ATOM     26  O   UNL     1      -3.234   2.187  24.903  0.00  0.00    -0.269 OA
ATOM     32  N   UNL     1      -3.074  -1.007  24.966  0.00  0.00    -0.204 NA
ATOM     33  C   UNL     1      -2.263  -1.083  24.838  0.00  0.00    +0.260 C 
ATOM     34  O   UNL     1      -1.975  -1.855  24.813  0.00  0.00    -0.272 OA
ENDROOT
BRANCH  25  27
ATOM     27  C   UNL     1      -4.645   2.190  25.130  0.00  0.00    +0.083 A 
ATOM     28  C   UNL     1      -5.300   2.161  24.629  0.00  0.00    +0.012 A 
ATOM     29  C   UNL     1      -5.881   2.659  24.941  0.00  0.00    +0.008 A 
ATOM     30  C   UNL     1      -5.584   2.993  25.633  0.00  0.00    +0.036 A 
ATOM     31  S   UNL     1      -4.821   2.703  25.750  0.00  0.00    -0.082 S 
ENDBRANCH  25  27
BRANCH  13  12
ATOM     10  C   UNL     1       0.553   0.483  23.662  0.00  0.00    +0.246 C 
ATOM     11  O   UNL     1       0.009   0.655  23.067  0.00  0.00    -0.273 OA
ATOM     12  N   UNL     1       0.290   0.200  24.391  0.00  0.00    -0.205 NA
BRANCH  10   9
ATOM      9  C   UNL     1       1.360   0.593  23.528  0.00  0.00    +0.116 C 
BRANCH   9   8
ATOM      3  C   UNL     1       2.503   0.450  22.682  0.00  0.00    +0.135 A 
ATOM      4  C   UNL     1       2.856   0.136  22.007  0.00  0.00    +0.037 A 
ATOM      5  C   UNL     1       2.422  -0.350  21.502  0.00  0.00    +0.003 A 
ATOM      6  C   UNL     1       1.634  -0.522  21.672  0.00  0.00    -0.000 A 
ATOM      7  C   UNL     1       1.280  -0.208  22.348  0.00  0.00    -0.001 A 
ATOM      8  C   UNL     1       1.714   0.278  22.853  0.00  0.00    +0.021 A 
BRANCH   3   2
ATOM      1  C   UNL     1       3.740   1.067  23.046  0.00  0.00    +0.252 C 
ATOM      2  O   UNL     1       2.937   0.937  23.188  0.00  0.00    -0.472 OA
ENDBRANCH   3   2
ENDBRANCH   9   8
ENDBRANCH  10   9
ENDBRANCH  13  12
TORSDOF 5
ENDMDL
MODEL 7
REMARK VINA RESULT:      -9.2     14.550     16.877
REMARK  Name = 
REMARK  5 active torsions:
REMARK  status: ('A' for Active; 'I' for Inactive)
REMARK    1  A    between atoms: O_2  and  C_3
REMARK    2  A    between atoms: C_8  and  C_9
REMARK    3  A    between atoms: C_9  and  C_10
REMARK    4  A    between atoms: N_12  and  C_13
REMARK    5  A    between atoms: C_25  and  C_27
REMARK                            x       y       z     vdW  Elec       q    Type
REMARK                         _______ _______ _______ _____ _____    ______ ____
ROOT
ATOM     13  C   UNL     1      -4.093 -10.711  12.816  0.00  0.00    +0.117 C 
ATOM     14  C   UNL     1      -3.446 -10.754  13.327  0.00  0.00    +0.053 C 
ATOM     15  C   UNL     1      -3.725 -10.655  14.098  0.00  0.00    +0.155 C 
ATOM     16  N   UNL     1      -4.543 -10.550  14.063  0.00  0.00    -0.270 N 
ATOM     17  C   UNL     1      -4.770 -10.585  13.270  0.00  0.00    +0.115 C 
ATOM     18  C   UNL     1      -5.073 -10.431  14.683  0.00  0.00    +0.246 C 
ATOM     19  O   UNL     1      -5.865 -10.345  14.465  0.00  0.00    -0.273 OA
ATOM     20  C   UNL     1      -4.917 -10.385  15.491  0.00  0.00    +0.172 C 
ATOM     21  C   UNL     1      -4.191 -10.448  15.880  0.00  0.00    +0.124 C 
ATOM     22  C   UNL     1      -4.327 -10.365  16.689  0.00  0.00    +0.045 C 
ATOM     23  C   UNL     1      -5.137 -10.250  16.801  0.00  0.00    +0.096 C 
ATOM     24  N   UNL     1      -5.501 -10.263  16.061  0.00  0.00    -0.268 N 
ATOM     25  C   UNL     1      -6.307 -10.169  15.915  0.00  0.00    +0.255 C 
ATOM     26  O   UNL     1      -6.593 -10.195  15.142  0.00  0.00    -0.269 OA
ATOM     32  N   UNL     1      -3.443 -10.573  15.555  0.00  0.00    -0.204 NA
ATOM     33  C   UNL     1      -3.235 -10.664  14.762  0.00  0.00    +0.260 C 
ATOM     34  O   UNL     1      -2.433 -10.781  14.613  0.00  0.00    -0.272 OA
ENDROOT
BRANCH  25  27
ATOM     27  C   UNL     1      -6.829 -10.050  16.544  0.00  0.00    +0.083 A 
ATOM     28  C   UNL     1      -7.053  -9.319  16.857  0.00  0.00    +0.012 A 
ATOM     29  C   UNL     1      -7.580  -9.459  17.476  0.00  0.00    +0.008 A 
ATOM     30  C   UNL     1      -7.682 -10.274  17.546  0.00  0.00    +0.036 A 
ATOM     31  S   UNL     1      -7.217 -10.639  16.970  0.00  0.00    -0.082 S 
ENDBRANCH  25  27
BRANCH  13  12
ATOM     10  C   UNL     1      -3.842 -10.135  11.533  0.00  0.00    +0.246 C 
ATOM     11  O   UNL     1      -3.644  -9.420  11.892  0.00  0.00    -0.273 OA
ATOM     12  N   UNL     1      -4.067 -10.781  11.994  0.00  0.00    -0.205 NA
BRANCH  10   9
ATOM      9  C   UNL     1      -3.816 -10.204  10.710  0.00  0.00    +0.116 C 
BRANCH   9   8
ATOM      3  C   UNL     1      -4.386  -9.846   9.450  0.00  0.00    +0.135 A 
ATOM      4  C   UNL     1      -4.788  -9.304   8.977  0.00  0.00    +0.037 A 
ATOM      5  C   UNL     1      -5.021  -8.577   9.288  0.00  0.00    +0.003 A 
ATOM      6  C   UNL     1      -4.852  -8.392  10.074  0.00  0.00    -0.000 A 
ATOM      7  C   UNL     1      -4.450  -8.935  10.548  0.00  0.00    -0.001 A 
ATOM      8  C   UNL     1      -4.217  -9.662  10.237  0.00  0.00    +0.021 A 
BRANCH   3   2
ATOM      1  C   UNL     1      -4.369 -10.781   8.369  0.00  0.00    +0.252 C 
ATOM      2  O   UNL     1      -4.153 -10.574   9.139  0.00  0.00    -0.472 OA
ENDBRANCH   3   2
ENDBRANCH   9   8
ENDBRANCH  10   9
ENDBRANCH  13  12
TORSDOF 5
ENDMDL
MODEL 8
REMARK VINA RESULT:      -8.8     14.455     16.524
REMARK  Name = 
REMARK  5 active torsions:
REMARK  status: ('A' for Active; 'I' for Inactive)
REMARK    1  A    between atoms: O_2  and  C_3
REMARK    2  A    between atoms: C_8  and  C_9
REMARK    3  A    between atoms: C_9  and  C_10
REMARK    4  A    between atoms: N_12  and  C_13
REMARK    5  A    between atoms: C_25  and  C_27
REMARK                            x       y       z     vdW  Elec       q    Type
REMARK                         _______ _______ _______ _____ _____    ______ ____
ROOT
ATOM     13  C   UNL     1      -5.389 -10.562  13.290  0.00  0.00    +0.117 C 
ATOM     14  C   UNL     1      -4.810 -10.590  13.877  0.00  0.00    +0.053 C 
ATOM     15  C   UNL     1      -5.167 -10.398  14.596  0.00  0.00    +0.155 C 
ATOM     16  N   UNL     1      -5.967 -10.251  14.453  0.00  0.00    -0.270 N 
ATOM     17  C   UNL     1      -6.103 -10.353  13.645  0.00  0.00    +0.115 C 
ATOM     18  C   UNL     1      -6.555 -10.039  14.990  0.00  0.00    +0.246 C 
ATOM     19  O   UNL     1      -7.309  -9.930  14.672  0.00  0.00    -0.273 OA
ATOM     20  C   UNL     1      -6.490  -9.921  15.804  0.00  0.00    +0.172 C 
ATOM     21  C   UNL     1      -5.820  -9.985  16.281  0.00  0.00    +0.124 C 
ATOM     22  C   UNL     1      -6.041  -9.813  17.056  0.00  0.00    +0.045 C 
ATOM     23  C   UNL     1      -6.849  -9.641  17.059  0.00  0.00    +0.096 C 
ATOM     24  N   UNL     1      -7.126  -9.708  16.284  0.00  0.00    -0.268 N 
ATOM     25  C   UNL     1      -7.901  -9.583  16.034  0.00  0.00    +0.255 C 
ATOM     26  O   UNL     1      -8.098  -9.671  15.238  0.00  0.00    -0.269 OA
ATOM     32  N   UNL     1      -5.049 -10.185  16.062  0.00  0.00    -0.204 NA
ATOM     33  C   UNL     1      -4.759 -10.368  15.312  0.00  0.00    +0.260 C 
ATOM     34  O   UNL     1      -3.954 -10.545  15.273  0.00  0.00    -0.272 OA
ENDROOT
BRANCH  25  27
ATOM     27  C   UNL     1      -8.482  -9.371  16.581  0.00  0.00    +0.083 A 
ATOM     28  C   UNL     1      -8.674  -8.602  16.811  0.00  0.00    +0.012 A 
ATOM     29  C   UNL     1      -9.284  -8.647  17.366  0.00  0.00    +0.008 A 
ATOM     30  C   UNL     1      -9.467  -9.442  17.480  0.00  0.00    +0.036 A 
ATOM     31  S   UNL     1      -8.971  -9.890  16.995  0.00  0.00    -0.082 S 
ENDBRANCH  25  27
BRANCH  13  12
ATOM     10  C   UNL     1      -5.144 -10.094  11.963  0.00  0.00    +0.246 C 
ATOM     11  O   UNL     1      -5.130  -9.317  12.239  0.00  0.00    -0.273 OA
ATOM     12  N   UNL     1      -5.274 -10.717  12.488  0.00  0.00    -0.205 NA
BRANCH  10   9
ATOM      9  C   UNL     1      -5.029 -10.247  11.160  0.00  0.00    +0.116 C 
BRANCH   9   8
ATOM      3  C   UNL     1      -4.493  -9.632   9.987  0.00  0.00    +0.135 A 
ATOM      4  C   UNL     1      -3.859  -9.288   9.588  0.00  0.00    +0.037 A 
ATOM      5  C   UNL     1      -3.126  -9.216   9.960  0.00  0.00    +0.003 A 
ATOM      6  C   UNL     1      -3.028  -9.487  10.732  0.00  0.00    -0.000 A 
ATOM      7  C   UNL     1      -3.662  -9.831  11.132  0.00  0.00    -0.001 A 
ATOM      8  C   UNL     1      -4.395  -9.904  10.760  0.00  0.00    +0.021 A 
BRANCH   3   2
ATOM      1  C   UNL     1      -5.305  -9.502   8.818  0.00  0.00    +0.252 C 
ATOM      2  O   UNL     1      -5.226  -9.704   9.615  0.00  0.00    -0.472 OA
ENDBRANCH   3   2
ENDBRANCH   9   8
ENDBRANCH  10   9
ENDBRANCH  13  12
TORSDOF 5
ENDMDL
MODEL 9
REMARK VINA RESULT:      -8.4     14.417     16.389
REMARK  Name = 
REMARK  5 active torsions:
REMARK  status: ('A' for Active; 'I' for Inactive)
REMARK    1  A    between atoms: O_2  and  C_3
REMARK    2  A    between atoms: C_8  and  C_9
REMARK    3  A    between atoms: C_9  and  C_10
REMARK    4  A    between atoms: N_12  and  C_13
REMARK    5  A    between atoms: C_25  and  C_27
REMARK                            x       y       z     vdW  Elec       q    Type
REMARK                         _______ _______ _______ _____ _____    ______ ____
ROOT
ATOM     13  C   UNL     1      -6.699 -10.319  14.737  0.00  0.00    +0.117 C 
ATOM     14  C   UNL     1      -7.328 -10.007  14.304  0.00  0.00    +0.053 C 
ATOM     15  C   UNL     1      -7.053  -9.829  13.547  0.00  0.00    +0.155 C 
ATOM     16  N   UNL     1      -6.253 -10.031  13.512  0.00  0.00    -0.270 N 
ATOM     17  C   UNL     1      -6.035 -10.334  14.248  0.00  0.00    +0.115 C 
ATOM     18  C   UNL     1      -5.731  -9.960  12.877  0.00  0.00    +0.246 C 
ATOM     19  O   UNL     1      -4.959 -10.213  13.018  0.00  0.00    -0.273 OA
ATOM     20  C   UNL     1      -5.879  -9.668  12.120  0.00  0.00    +0.172 C 
ATOM     21  C   UNL     1      -6.587  -9.376  11.810  0.00  0.00    +0.124 C 
ATOM     22  C   UNL     1      -6.450  -9.153  11.029  0.00  0.00    +0.045 C 
ATOM     23  C   UNL     1      -5.658  -9.306  10.854  0.00  0.00    +0.096 C 
ATOM     24  N   UNL     1      -5.306  -9.625  11.530  0.00  0.00    -0.268 N 
ATOM     25  C   UNL     1      -4.518  -9.859  11.601  0.00  0.00    +0.255 C 
ATOM     26  O   UNL     1      -4.243 -10.170  12.313  0.00  0.00    -0.269 OA
ATOM     32  N   UNL     1      -7.320  -9.304  12.182  0.00  0.00    -0.204 NA
ATOM     33  C   UNL     1      -7.527  -9.505  12.955  0.00  0.00    +0.260 C 
ATOM     34  O   UNL     1      -8.313  -9.365  13.163  0.00  0.00    -0.272 OA
ENDROOT
BRANCH  25  27
ATOM     27  C   UNL     1      -4.005  -9.783  10.958  0.00  0.00    +0.083 A 
ATOM     28  C   UNL     1      -3.516  -9.136  10.803  0.00  0.00    +0.012 A 
ATOM     29  C   UNL     1      -3.100  -9.294  10.107  0.00  0.00    +0.008 A 
ATOM     30  C   UNL     1      -3.332 -10.036   9.834  0.00  0.00    +0.036 A 
ATOM     31  S   UNL     1      -3.891 -10.338  10.360  0.00  0.00    -0.082 S 
ENDBRANCH  25  27
BRANCH  13  12
ATOM     10  C   UNL     1      -6.435 -10.088  16.122  0.00  0.00    +0.246 C 
ATOM     11  O   UNL     1      -6.111  -9.353  15.937  0.00  0.00    -0.273 OA
ATOM     12  N   UNL     1      -6.729 -10.572  15.522  0.00  0.00    -0.205 NA
BRANCH  10   9
ATOM      9  C   UNL     1      -6.464 -10.341  16.907  0.00  0.00    +0.116 C 
BRANCH   9   8
ATOM      3  C   UNL     1      -5.786 -10.602  18.138  0.00  0.00    +0.135 A 
ATOM      4  C   UNL     1      -5.088 -10.749  18.551  0.00  0.00    +0.037 A 
ATOM      5  C   UNL     1      -4.369 -10.781  18.148  0.00  0.00    +0.003 A 
ATOM      6  C   UNL     1      -4.348 -10.667  17.332  0.00  0.00    -0.000 A 
ATOM      7  C   UNL     1      -5.047 -10.520  16.918  0.00  0.00    -0.001 A 
ATOM      8  C   UNL     1      -5.766 -10.487  17.320  0.00  0.00    +0.021 A 
BRANCH   3   2
ATOM      1  C   UNL     1      -6.537 -10.752  19.345  0.00  0.00    +0.252 C 
ATOM      2  O   UNL     1      -6.506 -10.570  18.540  0.00  0.00    -0.472 OA
ENDBRANCH   3   2
ENDBRANCH   9   8
ENDBRANCH  10   9
ENDBRANCH  13  12
TORSDOF 5
ENDMDL
MODEL 10
REMARK VINA RESULT:      -8.3      1.649      2.770
REMARK  Name = 
REMARK  5 active torsions:
REMARK  status: ('A' for Active; 'I' for Inactive)
REMARK    1  A    between atoms: O_2  and  C_3
REMARK    2  A    between atoms: C_8  and  C_9
REMARK    3  A    between atoms: C_9  and  C_10
REMARK    4  A    between atoms: N_12  and  C_13
REMARK    5  A    between atoms: C_25  and  C_27
REMARK                            x       y       z     vdW  Elec       q    Type
REMARK                         _______ _______ _______ _____ _____    ______ ____
ROOT
ATOM     13  C   UNL     1      -1.543   0.507  24.911  0.00  0.00    +0.117 C 
ATOM     14  C   UNL     1      -0.976   1.054  25.153  0.00  0.00    +0.053 C 
ATOM     15  C   UNL     1      -1.358   1.773  25.290  0.00  0.00    +0.155 C 
ATOM     16  N   UNL     1      -2.162   1.669  25.132  0.00  0.00    -0.270 N 
ATOM     17  C   UNL     1      -2.276   0.886  24.898  0.00  0.00    +0.115 C 
ATOM     18  C   UNL     1      -2.772   2.221  25.186  0.00  0.00    +0.246 C 
ATOM     19  O   UNL     1      -3.524   1.944  24.989  0.00  0.00    -0.273 OA
ATOM     20  C   UNL     1      -2.730   3.014  25.411  0.00  0.00    +0.172 C 
ATOM     21  C   UNL     1      -2.067   3.450  25.638  0.00  0.00    +0.124 C 
ATOM     22  C   UNL     1      -2.313   4.218  25.810  0.00  0.00    +0.045 C 
ATOM     23  C   UNL     1      -3.129   4.257  25.690  0.00  0.00    +0.096 C 
ATOM     24  N   UNL     1      -3.386   3.512  25.443  0.00  0.00    -0.268 N 
ATOM     25  C   UNL     1      -4.163   3.304  25.261  0.00  0.00    +0.255 C 
ATOM     26  O   UNL     1      -4.338   2.534  25.021  0.00  0.00    -0.269 OA
ATOM     32  N   UNL     1      -1.282   3.201  25.695  0.00  0.00    -0.204 NA
ATOM     33  C   UNL     1      -0.966   2.455  25.540  0.00  0.00    +0.260 C 
ATOM     34  O   UNL     1      -0.153   2.380  25.650  0.00  0.00    -0.272 OA
ENDROOT
BRANCH  25  27
ATOM     27  C   UNL     1      -4.765   3.865  25.319  0.00  0.00    +0.083 A 
ATOM     28  C   UNL     1      -4.832   4.553  24.868  0.00  0.00    +0.012 A 
ATOM     29  C   UNL     1      -5.515   4.949  25.109  0.00  0.00    +0.008 A 
ATOM     30  C   UNL     1      -5.869   4.507  25.707  0.00  0.00    +0.036 A 
ATOM     31  S   UNL     1      -5.406   3.836  25.837  0.00  0.00    -0.082 S 
ENDBRANCH  25  27
BRANCH  13  12
ATOM     10  C   UNL     1      -1.648  -0.883  25.227  0.00  0.00    +0.246 C 
ATOM     11  O   UNL     1      -2.032  -0.694  25.932  0.00  0.00    -0.273 OA
ATOM     12  N   UNL     1      -1.404  -0.283  24.716  0.00  0.00    -0.205 NA
BRANCH  10   9
ATOM      9  C   UNL     1      -1.508  -1.673  25.033  0.00  0.00    +0.116 C 
BRANCH   9   8
ATOM      3  C   UNL     1      -2.063  -2.763  24.295  0.00  0.00    +0.135 A 
ATOM      4  C   UNL     1      -2.695  -3.266  24.131  0.00  0.00    +0.037 A 
ATOM      5  C   UNL     1      -3.406  -3.184  24.542  0.00  0.00    +0.003 A 
ATOM      6  C   UNL     1      -3.483  -2.597  25.117  0.00  0.00    -0.000 A 
ATOM      7  C   UNL     1      -2.851  -2.093  25.280  0.00  0.00    -0.001 A 
ATOM      8  C   UNL     1      -2.141  -2.176  24.870  0.00  0.00    +0.021 A 
BRANCH   3   2
ATOM      1  C   UNL     1      -1.285  -3.412  23.286  0.00  0.00    +0.252 C 
ATOM      2  O   UNL     1      -1.352  -2.846  23.883  0.00  0.00    -0.472 OA
ENDBRANCH   3   2
ENDBRANCH   9   8
ENDBRANCH  10   9
ENDBRANCH  13  12
TORSDOF 5
ENDMDL
