MODEL 1
REMARK VINA RESULT:     -10.3      0.000      0.000
REMARK  Name = 
REMARK  2 active torsions:
REMARK  status: ('A' for Active; 'I' for Inactive)
REMARK    1  A    between atoms: C_2  and  N_3
REMARK    2  A    between atoms: N_13  and  C_16
REMARK                            x       y       z     vdW  Elec       q    Type
REMARK                         _______ _______ _______ _____ _____    ______ ____
ROOT
ATOM      3  N   UNL     1      -1.907   3.895  25.035  0.00  0.00    -0.188 NA
ATOM      4  C   UNL     1      -2.077   3.091  24.956  0.00  0.00    +0.323 C 
ATOM      5  O   UNL     1      -1.463   2.548  24.864  0.00  0.00    -0.251 OA
ATOM      6  N   UNL     1      -2.860   2.832  24.968  0.00  0.00    -0.259 N 
ATOM      7  C   UNL     1      -3.528   3.309  25.055  0.00  0.00    +0.126 C 
ATOM      8  C   UNL     1      -4.193   2.822  25.036  0.00  0.00    +0.156 C 
ATOM      9  O   UNL     1      -4.999   2.986  25.096  0.00  0.00    -0.343 OA
ATOM     10  C   UNL     1      -5.549   2.373  25.057  0.00  0.00    +0.227 C 
ATOM     11  C   UNL     1      -5.293   1.595  24.959  0.00  0.00    +0.260 C 
ATOM     12  O   UNL     1      -5.843   0.980  24.921  0.00  0.00    -0.272 OA
ATOM     13  N   UNL     1      -4.487   1.430  24.899  0.00  0.00    -0.254 N 
ATOM     14  C   UNL     1      -3.936   2.044  24.938  0.00  0.00    +0.128 C 
ATOM     15  C   UNL     1      -3.113   2.050  24.896  0.00  0.00    +0.118 C 
ENDROOT
BRANCH  13  16
ATOM     16  C   UNL     1      -4.230   0.652  24.801  0.00  0.00    +0.054 A 
ATOM     17  C   UNL     1      -4.104   0.173  25.460  0.00  0.00    +0.015 A 
ATOM     18  C   UNL     1      -3.847  -0.605  25.362  0.00  0.00    +0.001 A 
ATOM     19  C   UNL     1      -3.718  -0.904  24.604  0.00  0.00    +0.000 A 
ATOM     20  C   UNL     1      -3.845  -0.425  23.944  0.00  0.00    +0.001 A 
ATOM     21  C   UNL     1      -4.101   0.353  24.043  0.00  0.00    +0.015 A 
ENDBRANCH  13  16
BRANCH   3   2
ATOM      1  C   UNL     1      -0.958   4.962  25.002  0.00  0.00    +0.025 C 
ATOM      2  C   UNL     1      -1.124   4.155  25.022  0.00  0.00    +0.117 C 
ENDBRANCH   3   2
TORSDOF 2
ENDMDL
MODEL 2
REMARK VINA RESULT:     -10.2      1.649      3.066
REMARK  Name = 
REMARK  2 active torsions:
REMARK  status: ('A' for Active; 'I' for Inactive)
REMARK    1  A    between atoms: C_2  and  N_3
REMARK    2  A    between atoms: N_13  and  C_16
REMARK                            x       y       z     vdW  Elec       q    Type
REMARK                         _______ _______ _______ _____ _____    ______ ____
ROOT
ATOM      3  N   UNL     1      -4.741   2.615  25.264  0.00  0.00    -0.188 NA
ATOM      4  C   UNL     1      -4.726   1.794  25.185  0.00  0.00    +0.323 C 
ATOM      5  O   UNL     1      -5.421   1.359  25.274  0.00  0.00    -0.251 OA
ATOM      6  N   UNL     1      -4.016   1.408  25.018  0.00  0.00    -0.259 N 
ATOM      7  C   UNL     1      -3.280   1.769  24.915  0.00  0.00    +0.126 C 
ATOM      8  C   UNL     1      -2.727   1.178  24.757  0.00  0.00    +0.156 C 
ATOM      9  O   UNL     1      -1.916   1.206  24.610  0.00  0.00    -0.343 OA
ATOM     10  C   UNL     1      -1.497   0.510  24.467  0.00  0.00    +0.227 C 
ATOM     11  C   UNL     1      -1.890  -0.215  24.473  0.00  0.00    +0.260 C 
ATOM     12  O   UNL     1      -1.472  -0.912  24.331  0.00  0.00    -0.272 OA
ATOM     13  N   UNL     1      -2.701  -0.245  24.621  0.00  0.00    -0.254 N 
ATOM     14  C   UNL     1      -3.120   0.453  24.763  0.00  0.00    +0.128 C 
ATOM     15  C   UNL     1      -3.916   0.595  24.924  0.00  0.00    +0.118 C 
ENDROOT
BRANCH  13  16
ATOM     16  C   UNL     1      -3.094  -0.970  24.626  0.00  0.00    +0.054 A 
ATOM     17  C   UNL     1      -3.499  -1.225  23.955  0.00  0.00    +0.015 A 
ATOM     18  C   UNL     1      -3.891  -1.950  23.960  0.00  0.00    +0.001 A 
ATOM     19  C   UNL     1      -3.879  -2.421  24.637  0.00  0.00    +0.000 A 
ATOM     20  C   UNL     1      -3.474  -2.166  25.310  0.00  0.00    +0.001 A 
ATOM     21  C   UNL     1      -3.081  -1.440  25.304  0.00  0.00    +0.015 A 
ENDBRANCH  13  16
BRANCH   3   2
ATOM      1  C   UNL     1      -5.463   3.820  25.523  0.00  0.00    +0.025 C 
ATOM      2  C   UNL     1      -5.450   3.001  25.432  0.00  0.00    +0.117 C 
ENDBRANCH   3   2
TORSDOF 2
ENDMDL
MODEL 3
REMARK VINA RESULT:     -10.1      1.226      3.673
REMARK  Name = 
REMARK  2 active torsions:
REMARK  status: ('A' for Active; 'I' for Inactive)
REMARK    1  A    between atoms: C_2  and  N_3
REMARK    2  A    between atoms: N_13  and  C_16
REMARK                            x       y       z     vdW  Elec       q    Type
REMARK                         _______ _______ _______ _____ _____    ______ ____
ROOT
ATOM      3  N   UNL     1      -4.017  -0.567  24.429  0.00  0.00    -0.188 NA
ATOM      4  C   UNL     1      -3.624   0.152  24.526  0.00  0.00    +0.323 C 
ATOM      5  O   UNL     1      -2.809   0.196  24.405  0.00  0.00    -0.251 OA
ATOM      6  N   UNL     1      -4.046   0.827  24.746  0.00  0.00    -0.259 N 
ATOM      7  C   UNL     1      -4.858   0.866  24.886  0.00  0.00    +0.126 C 
ATOM      8  C   UNL     1      -5.044   1.643  25.090  0.00  0.00    +0.156 C 
ATOM      9  O   UNL     1      -5.758   2.007  25.287  0.00  0.00    -0.343 OA
ATOM     10  C   UNL     1      -5.774   2.811  25.470  0.00  0.00    +0.227 C 
ATOM     11  C   UNL     1      -5.077   3.251  25.456  0.00  0.00    +0.260 C 
ATOM     12  O   UNL     1      -5.094   4.056  25.639  0.00  0.00    -0.272 OA
ATOM     13  N   UNL     1      -4.363   2.889  25.259  0.00  0.00    -0.254 N 
ATOM     14  C   UNL     1      -4.346   2.084  25.076  0.00  0.00    +0.128 C 
ATOM     15  C   UNL     1      -3.730   1.579  24.864  0.00  0.00    +0.118 C 
ENDROOT
BRANCH  13  16
ATOM     16  C   UNL     1      -3.666   3.329  25.246  0.00  0.00    +0.054 A 
ATOM     17  C   UNL     1      -3.407   3.670  24.541  0.00  0.00    +0.015 A 
ATOM     18  C   UNL     1      -2.710   4.110  24.527  0.00  0.00    +0.001 A 
ATOM     19  C   UNL     1      -2.271   4.211  25.218  0.00  0.00    +0.000 A 
ATOM     20  C   UNL     1      -2.531   3.870  25.924  0.00  0.00    +0.001 A 
ATOM     21  C   UNL     1      -3.228   3.429  25.938  0.00  0.00    +0.015 A 
ENDBRANCH  13  16
BRANCH   3   2
ATOM      1  C   UNL     1      -3.986  -1.961  24.120  0.00  0.00    +0.025 C 
ATOM      2  C   UNL     1      -3.595  -1.241  24.209  0.00  0.00    +0.117 C 
ENDBRANCH   3   2
TORSDOF 2
ENDMDL
MODEL 4
REMARK VINA RESULT:     -10.0      1.970      3.005
REMARK  Name = 
REMARK  2 active torsions:
REMARK  status: ('A' for Active; 'I' for Inactive)
REMARK    1  A    between atoms: C_2  and  N_3
REMARK    2  A    between atoms: N_13  and  C_16
REMARK                            x       y       z     vdW  Elec       q    Type
REMARK                         _______ _______ _______ _____ _____    ______ ____
ROOT
ATOM      3  N   UNL     1      -1.498   3.204  25.034  0.00  0.00    -0.188 NA
ATOM      4  C   UNL     1      -2.000   2.550  25.072  0.00  0.00    +0.323 C 
ATOM      5  O   UNL     1      -2.799   2.654  25.251  0.00  0.00    -0.251 OA
ATOM      6  N   UNL     1      -1.704   1.793  24.930  0.00  0.00    -0.259 N 
ATOM      7  C   UNL     1      -0.921   1.606  24.746  0.00  0.00    +0.126 C 
ATOM      8  C   UNL     1      -0.872   0.788  24.650  0.00  0.00    +0.156 C 
ATOM      9  O   UNL     1      -0.240   0.291  24.465  0.00  0.00    -0.343 OA
ATOM     10  C   UNL     1      -0.358  -0.522  24.404  0.00  0.00    +0.227 C 
ATOM     11  C   UNL     1      -1.109  -0.840  24.529  0.00  0.00    +0.260 C 
ATOM     12  O   UNL     1      -1.228  -1.655  24.469  0.00  0.00    -0.272 OA
ATOM     13  N   UNL     1      -1.742  -0.344  24.715  0.00  0.00    -0.254 N 
ATOM     14  C   UNL     1      -1.623   0.471  24.775  0.00  0.00    +0.128 C 
ATOM     15  C   UNL     1      -2.137   1.092  24.948  0.00  0.00    +0.118 C 
ENDROOT
BRANCH  13  16
ATOM     16  C   UNL     1      -2.493  -0.662  24.840  0.00  0.00    +0.054 A 
ATOM     17  C   UNL     1      -3.019  -0.737  24.209  0.00  0.00    +0.015 A 
ATOM     18  C   UNL     1      -3.770  -1.054  24.334  0.00  0.00    +0.001 A 
ATOM     19  C   UNL     1      -3.995  -1.297  25.090  0.00  0.00    +0.000 A 
ATOM     20  C   UNL     1      -3.468  -1.222  25.721  0.00  0.00    +0.001 A 
ATOM     21  C   UNL     1      -2.717  -0.904  25.596  0.00  0.00    +0.015 A 
ENDBRANCH  13  16
BRANCH   3   2
ATOM      1  C   UNL     1      -1.291   4.613  25.146  0.00  0.00    +0.025 C 
ATOM      2  C   UNL     1      -1.794   3.961  25.176  0.00  0.00    +0.117 C 
ENDBRANCH   3   2
TORSDOF 2
ENDMDL
MODEL 5
REMARK VINA RESULT:      -9.9      1.748      3.884
REMARK  Name = 
REMARK  2 active torsions:
REMARK  status: ('A' for Active; 'I' for Inactive)
REMARK    1  A    between atoms: C_2  and  N_3
REMARK    2  A    between atoms: N_13  and  C_16
REMARK                            x       y       z     vdW  Elec       q    Type
REMARK                         _______ _______ _______ _____ _____    ______ ____
ROOT
ATOM      3  N   UNL     1      -3.289  -1.381  24.700  0.00  0.00    -0.188 NA
ATOM      4  C   UNL     1      -3.680  -0.709  24.977  0.00  0.00    +0.323 C 
ATOM      5  O   UNL     1      -4.145  -0.754  25.657  0.00  0.00    -0.251 OA
ATOM      6  N   UNL     1      -3.606   0.007  24.574  0.00  0.00    -0.259 N 
ATOM      7  C   UNL     1      -3.162   0.135  23.890  0.00  0.00    +0.126 C 
ATOM      8  C   UNL     1      -3.244   0.927  23.678  0.00  0.00    +0.156 C 
ATOM      9  O   UNL     1      -2.933   1.367  23.053  0.00  0.00    -0.343 OA
ATOM     10  C   UNL     1      -3.115   2.168  22.980  0.00  0.00    +0.227 C 
ATOM     11  C   UNL     1      -3.610   2.530  23.533  0.00  0.00    +0.260 C 
ATOM     12  O   UNL     1      -3.793   3.332  23.460  0.00  0.00    -0.272 OA
ATOM     13  N   UNL     1      -3.922   2.091  24.158  0.00  0.00    -0.254 N 
ATOM     14  C   UNL     1      -3.738   1.289  24.230  0.00  0.00    +0.128 C 
ATOM     15  C   UNL     1      -3.962   0.721  24.784  0.00  0.00    +0.118 C 
ENDROOT
BRANCH  13  16
ATOM     16  C   UNL     1      -4.416   2.453  24.710  0.00  0.00    +0.054 A 
ATOM     17  C   UNL     1      -5.233   2.364  24.653  0.00  0.00    +0.015 A 
ATOM     18  C   UNL     1      -5.728   2.726  25.205  0.00  0.00    +0.001 A 
ATOM     19  C   UNL     1      -5.405   3.177  25.815  0.00  0.00    +0.000 A 
ATOM     20  C   UNL     1      -4.586   3.267  25.873  0.00  0.00    +0.001 A 
ATOM     21  C   UNL     1      -4.091   2.905  25.320  0.00  0.00    +0.015 A 
ENDBRANCH  13  16
BRANCH   3   2
ATOM      1  C   UNL     1      -3.110  -2.797  24.748  0.00  0.00    +0.025 C 
ATOM      2  C   UNL     1      -3.363  -2.097  25.103  0.00  0.00    +0.117 C 
ENDBRANCH   3   2
TORSDOF 2
ENDMDL
MODEL 6
REMARK VINA RESULT:      -9.8      1.694      2.004
REMARK  Name = 
REMARK  2 active torsions:
REMARK  status: ('A' for Active; 'I' for Inactive)
REMARK    1  A    between atoms: C_2  and  N_3
REMARK    2  A    between atoms: N_13  and  C_16
REMARK                            x       y       z     vdW  Elec       q    Type
REMARK                         _______ _______ _______ _____ _____    ______ ____
ROOT
ATOM      3  N   UNL     1      -0.563   1.622  24.377  0.00  0.00    -0.188 NA
ATOM      4  C   UNL     1      -0.979   0.909  24.385  0.00  0.00    +0.323 C 
ATOM      5  O   UNL     1      -0.577   0.197  24.270  0.00  0.00    -0.251 OA
ATOM      6  N   UNL     1      -1.794   0.907  24.509  0.00  0.00    -0.259 N 
ATOM      7  C   UNL     1      -2.267   1.573  24.631  0.00  0.00    +0.126 C 
ATOM      8  C   UNL     1      -3.045   1.318  24.730  0.00  0.00    +0.156 C 
ATOM      9  O   UNL     1      -3.748   1.727  24.868  0.00  0.00    -0.343 OA
ATOM     10  C   UNL     1      -4.458   1.316  24.944  0.00  0.00    +0.227 C 
ATOM     11  C   UNL     1      -4.466   0.493  24.882  0.00  0.00    +0.260 C 
ATOM     12  O   UNL     1      -5.177   0.080  24.958  0.00  0.00    -0.272 OA
ATOM     13  N   UNL     1      -3.764   0.082  24.744  0.00  0.00    -0.254 N 
ATOM     14  C   UNL     1      -3.053   0.495  24.668  0.00  0.00    +0.128 C 
ATOM     15  C   UNL     1      -2.281   0.242  24.531  0.00  0.00    +0.118 C 
ENDROOT
BRANCH  13  16
ATOM     16  C   UNL     1      -3.772  -0.741  24.682  0.00  0.00    +0.054 A 
ATOM     17  C   UNL     1      -3.578  -1.205  25.335  0.00  0.00    +0.015 A 
ATOM     18  C   UNL     1      -3.587  -2.027  25.273  0.00  0.00    +0.001 A 
ATOM     19  C   UNL     1      -3.789  -2.386  24.558  0.00  0.00    +0.000 A 
ATOM     20  C   UNL     1      -3.983  -1.921  23.905  0.00  0.00    +0.001 A 
ATOM     21  C   UNL     1      -3.975  -1.098  23.966  0.00  0.00    +0.015 A 
ENDBRANCH  13  16
BRANCH   3   2
ATOM      1  C   UNL     1       0.666   2.336  24.241  0.00  0.00    +0.025 C 
ATOM      2  C   UNL     1       0.252   1.623  24.253  0.00  0.00    +0.117 C 
ENDBRANCH   3   2
TORSDOF 2
ENDMDL
