REMARK  Name = 
REMARK  4 active torsions:
REMARK  status: ('A' for Active; 'I' for Inactive)
REMARK    1  A    between atoms: C_2  and  O_5
REMARK    2  A    between atoms: O_5  and  C_6
REMARK    3  A    between atoms: N_8  and  C_9
REMARK    4  A    between atoms: C_9  and  C_10
REMARK                            x       y       z     vdW  Elec       q    Type
REMARK                         _______ _______ _______ _____ _____    ______ ____
ROOT
ATOM      6  C   UNL     1       1.282   3.177   0.000  0.00  0.00    +0.421 C 
ATOM      7  O   UNL     1       0.568   3.589   0.000  0.00  0.00    -0.225 OA
ATOM      8  N   UNL     1       1.282   2.352   0.000  0.00  0.00    -0.166 NA
ENDROOT
BRANCH   6   5
ATOM      5  O   UNL     1       1.997   3.589   0.000  0.00  0.00    -0.441 OA
BRANCH   5   2
ATOM      1  C   UNL     1       1.997   5.239   0.000  0.00  0.00    +0.044 C 
ATOM      2  C   UNL     1       1.997   4.414   0.000  0.00  0.00    +0.138 C 
ATOM      3  C   UNL     1       1.172   4.414   0.000  0.00  0.00    +0.044 C 
ATOM      4  C   UNL     1       2.822   4.414   0.000  0.00  0.00    +0.044 C 
ENDBRANCH   5   2
ENDBRANCH   6   5
BRANCH   8   9
ATOM      9  C   UNL     1       0.568   1.939   0.000  0.00  0.00    +0.151 C 
BRANCH   9  10
ATOM     10  C   UNL     1       0.568   1.114   0.000  0.00  0.00    +0.169 C 
ATOM     11  O   UNL     1       1.235   0.629   0.000  0.00  0.00    -0.350 OA
ATOM     12  C   UNL     1       0.980  -0.155   0.000  0.00  0.00    +0.164 C 
ATOM     13  C   UNL     1       0.155  -0.155   0.000  0.00  0.00    +0.154 C 
ATOM     14  N   UNL     1      -0.330  -0.823   0.000  0.00  0.00    -0.127 NA
ATOM     15  C   UNL     1      -0.100   0.629   0.000  0.00  0.00    +0.201 C 
ATOM     16  O   UNL     1      -0.884   0.884   0.000  0.00  0.00    -0.219 OA
ENDBRANCH   9  10
ENDBRANCH   8   9
TORSDOF 4
