MODEL 1
REMARK VINA RESULT:     -10.9      0.000      0.000
REMARK  Name = 
REMARK  3 active torsions:
REMARK  status: ('A' for Active; 'I' for Inactive)
REMARK    1  A    between atoms: C_2  and  C_4
REMARK    2  A    between atoms: C_4  and  N_5
REMARK    3  A    between atoms: C_8  and  C_10
REMARK                            x       y       z     vdW  Elec       q    Type
REMARK                         _______ _______ _______ _____ _____    ______ ____
ROOT
ATOM     10  C   UNL     1      -3.889   0.678  24.808  0.00  0.00    +0.207 A 
ATOM     11  N   UNL     1      -4.111   0.189  24.182  0.00  0.00    -0.212 NA
ATOM     12  C   UNL     1      -3.956  -0.591  24.401  0.00  0.00    +0.118 A 
ATOM     13  C   UNL     1      -3.638  -0.584  25.163  0.00  0.00    +0.164 A 
ATOM     14  O   UNL     1      -3.597   0.200  25.414  0.00  0.00    -0.438 OA
ATOM     15  C   UNL     1      -3.428  -1.293  25.528  0.00  0.00    +0.039 A 
ATOM     16  C   UNL     1      -3.535  -2.009  25.132  0.00  0.00    -0.001 A 
ATOM     17  C   UNL     1      -3.852  -2.016  24.371  0.00  0.00    -0.020 A 
ATOM     18  C   UNL     1      -3.960  -2.731  23.975  0.00  0.00    +0.031 C 
ATOM     19  C   UNL     1      -4.063  -1.307  24.005  0.00  0.00    +0.018 A 
ENDROOT
BRANCH  10   8
ATOM      5  N   UNL     1      -3.631   2.798  24.816  0.00  0.00    -0.272 NA
ATOM      6  C   UNL     1      -4.451   2.736  24.889  0.00  0.00    +0.073 C 
ATOM      7  C   UNL     1      -4.647   1.935  24.894  0.00  0.00    +0.028 C 
ATOM      8  C   UNL     1      -3.949   1.501  24.826  0.00  0.00    +0.094 C 
ATOM      9  C   UNL     1      -3.321   2.034  24.777  0.00  0.00    +0.081 C 
BRANCH   5   4
ATOM      4  C   UNL     1      -3.198   3.498  24.788  0.00  0.00    +0.072 C 
BRANCH   4   2
ATOM      1  C   UNL     1      -3.133   4.109  26.078  0.00  0.00    +0.001 C 
ATOM      2  C   UNL     1      -2.758   3.739  25.444  0.00  0.00    +0.016 C 
ATOM      3  C   UNL     1      -1.943   3.609  25.464  0.00  0.00    +0.001 C 
ENDBRANCH   4   2
ENDBRANCH   5   4
ENDBRANCH  10   8
TORSDOF 3
ENDMDL
MODEL 2
REMARK VINA RESULT:     -10.3      1.107      4.494
REMARK  Name = 
REMARK  3 active torsions:
REMARK  status: ('A' for Active; 'I' for Inactive)
REMARK    1  A    between atoms: C_2  and  C_4
REMARK    2  A    between atoms: C_4  and  N_5
REMARK    3  A    between atoms: C_8  and  C_10
REMARK                            x       y       z     vdW  Elec       q    Type
REMARK                         _______ _______ _______ _____ _____    ______ ____
ROOT
ATOM     10  C   UNL     1      -4.414   0.726  24.920  0.00  0.00    +0.207 A 
ATOM     11  N   UNL     1      -3.911   1.370  24.810  0.00  0.00    -0.212 NA
ATOM     12  C   UNL     1      -4.320   2.053  25.024  0.00  0.00    +0.118 A 
ATOM     13  C   UNL     1      -5.077   1.832  25.267  0.00  0.00    +0.164 A 
ATOM     14  O   UNL     1      -5.135   1.012  25.202  0.00  0.00    -0.438 OA
ATOM     15  C   UNL     1      -5.614   2.406  25.515  0.00  0.00    +0.039 A 
ATOM     16  C   UNL     1      -5.396   3.201  25.521  0.00  0.00    -0.001 A 
ATOM     17  C   UNL     1      -4.639   3.423  25.279  0.00  0.00    -0.020 A 
ATOM     18  C   UNL     1      -4.420   4.218  25.285  0.00  0.00    +0.031 C 
ATOM     19  C   UNL     1      -4.101   2.849  25.030  0.00  0.00    +0.018 A 
ENDROOT
BRANCH  10   8
ATOM      5  N   UNL     1      -3.778  -1.312  24.922  0.00  0.00    -0.272 NA
ATOM      6  C   UNL     1      -4.113  -1.250  24.170  0.00  0.00    +0.073 C 
ATOM      7  C   UNL     1      -4.392  -0.479  24.078  0.00  0.00    +0.028 C 
ATOM      8  C   UNL     1      -4.229  -0.064  24.773  0.00  0.00    +0.094 C 
ATOM      9  C   UNL     1      -3.850  -0.579  25.294  0.00  0.00    +0.081 C 
BRANCH   5   4
ATOM      4  C   UNL     1      -3.432  -1.987  25.245  0.00  0.00    +0.072 C 
BRANCH   4   2
ATOM      1  C   UNL     1      -2.222  -2.400  24.606  0.00  0.00    +0.001 C 
ATOM      2  C   UNL     1      -3.024  -2.515  24.759  0.00  0.00    +0.016 C 
ATOM      3  C   UNL     1      -3.420  -3.158  24.425  0.00  0.00    +0.001 C 
ENDBRANCH   4   2
ENDBRANCH   5   4
ENDBRANCH  10   8
TORSDOF 3
ENDMDL
MODEL 3
REMARK VINA RESULT:     -10.1      1.142      4.653
REMARK  Name = 
REMARK  3 active torsions:
REMARK  status: ('A' for Active; 'I' for Inactive)
REMARK    1  A    between atoms: C_2  and  C_4
REMARK    2  A    between atoms: C_4  and  N_5
REMARK    3  A    between atoms: C_8  and  C_10
REMARK                            x       y       z     vdW  Elec       q    Type
REMARK                         _______ _______ _______ _____ _____    ______ ____
ROOT
ATOM     10  C   UNL     1      -2.656   1.948  24.676  0.00  0.00    +0.207 A 
ATOM     11  N   UNL     1      -1.987   2.337  24.391  0.00  0.00    -0.212 NA
ATOM     12  C   UNL     1      -1.950   3.077  24.751  0.00  0.00    +0.118 A 
ATOM     13  C   UNL     1      -2.596   3.146  25.259  0.00  0.00    +0.164 A 
ATOM     14  O   UNL     1      -3.033   2.448  25.213  0.00  0.00    -0.438 OA
ATOM     15  C   UNL     1      -2.704   3.837  25.698  0.00  0.00    +0.039 A 
ATOM     16  C   UNL     1      -2.165   4.457  25.630  0.00  0.00    -0.001 A 
ATOM     17  C   UNL     1      -1.519   4.388  25.122  0.00  0.00    -0.020 A 
ATOM     18  C   UNL     1      -0.980   5.009  25.053  0.00  0.00    +0.031 C 
ATOM     19  C   UNL     1      -1.410   3.699  24.683  0.00  0.00    +0.018 A 
ENDROOT
BRANCH  10   8
ATOM      5  N   UNL     1      -2.991  -0.138  24.366  0.00  0.00    -0.272 NA
ATOM      6  C   UNL     1      -3.586   0.190  23.898  0.00  0.00    +0.073 C 
ATOM      7  C   UNL     1      -3.533   1.011  23.957  0.00  0.00    +0.028 C 
ATOM      8  C   UNL     1      -2.905   1.191  24.462  0.00  0.00    +0.094 C 
ATOM      9  C   UNL     1      -2.570   0.481  24.714  0.00  0.00    +0.081 C 
BRANCH   5   4
ATOM      4  C   UNL     1      -2.842  -0.943  24.468  0.00  0.00    +0.072 C 
BRANCH   4   2
ATOM      1  C   UNL     1      -3.935  -1.836  24.247  0.00  0.00    +0.001 C 
ATOM      2  C   UNL     1      -3.433  -1.437  24.765  0.00  0.00    +0.016 C 
ATOM      3  C   UNL     1      -3.519  -1.532  25.580  0.00  0.00    +0.001 C 
ENDBRANCH   4   2
ENDBRANCH   5   4
ENDBRANCH  10   8
TORSDOF 3
ENDMDL
MODEL 4
REMARK VINA RESULT:      -7.5     17.589     19.502
REMARK  Name = 
REMARK  3 active torsions:
REMARK  status: ('A' for Active; 'I' for Inactive)
REMARK    1  A    between atoms: C_2  and  C_4
REMARK    2  A    between atoms: C_4  and  N_5
REMARK    3  A    between atoms: C_8  and  C_10
REMARK                            x       y       z     vdW  Elec       q    Type
REMARK                         _______ _______ _______ _____ _____    ______ ____
ROOT
ATOM     10  C   UNL     1      14.507   6.898  20.715  0.00  0.00    +0.207 A 
ATOM     11  N   UNL     1      14.736   6.656  19.961  0.00  0.00    -0.212 NA
ATOM     12  C   UNL     1      15.550   6.522  19.973  0.00  0.00    +0.118 A 
ATOM     13  C   UNL     1      15.824   6.682  20.735  0.00  0.00    +0.164 A 
ATOM     14  O   UNL     1      15.180   6.914  21.194  0.00  0.00    -0.438 OA
ATOM     15  C   UNL     1      16.625   6.594  20.912  0.00  0.00    +0.039 A 
ATOM     16  C   UNL     1      17.152   6.347  20.328  0.00  0.00    -0.001 A 
ATOM     17  C   UNL     1      16.878   6.187  19.566  0.00  0.00    -0.020 A 
ATOM     18  C   UNL     1      17.405   5.940  18.981  0.00  0.00    +0.031 C 
ATOM     19  C   UNL     1      16.077   6.274  19.388  0.00  0.00    +0.018 A 
ENDROOT
BRANCH  10   8
ATOM      5  N   UNL     1      12.408   7.134  21.027  0.00  0.00    -0.272 NA
ATOM      6  C   UNL     1      12.712   7.644  21.600  0.00  0.00    +0.073 C 
ATOM      7  C   UNL     1      13.536   7.618  21.553  0.00  0.00    +0.028 C 
ATOM      8  C   UNL     1      13.740   7.092  20.951  0.00  0.00    +0.094 C 
ATOM      9  C   UNL     1      13.044   6.793  20.626  0.00  0.00    +0.081 C 
BRANCH   5   4
ATOM      4  C   UNL     1      11.609   6.991  20.880  0.00  0.00    +0.072 C 
BRANCH   4   2
ATOM      1  C   UNL     1      10.663   7.139  21.940  0.00  0.00    +0.001 C 
ATOM      2  C   UNL     1      11.135   6.656  21.467  0.00  0.00    +0.016 C 
ATOM      3  C   UNL     1      11.135   5.838  21.579  0.00  0.00    +0.001 C 
ENDBRANCH   4   2
ENDBRANCH   5   4
ENDBRANCH  10   8
TORSDOF 3
ENDMDL
MODEL 5
REMARK VINA RESULT:      -7.2     17.171     19.179
REMARK  Name = 
REMARK  3 active torsions:
REMARK  status: ('A' for Active; 'I' for Inactive)
REMARK    1  A    between atoms: C_2  and  C_4
REMARK    2  A    between atoms: C_4  and  N_5
REMARK    3  A    between atoms: C_8  and  C_10
REMARK                            x       y       z     vdW  Elec       q    Type
REMARK                         _______ _______ _______ _____ _____    ______ ____
ROOT
ATOM     10  C   UNL     1      13.398   7.003  20.775  0.00  0.00    +0.207 A 
ATOM     11  N   UNL     1      13.184   7.694  21.171  0.00  0.00    -0.212 NA
ATOM     12  C   UNL     1      12.409   7.606  21.437  0.00  0.00    +0.118 A 
ATOM     13  C   UNL     1      12.143   6.860  21.205  0.00  0.00    +0.164 A 
ATOM     14  O   UNL     1      12.754   6.487  20.796  0.00  0.00    -0.438 OA
ATOM     15  C   UNL     1      11.378   6.617  21.397  0.00  0.00    +0.039 A 
ATOM     16  C   UNL     1      10.879   7.119  21.821  0.00  0.00    -0.001 A 
ATOM     17  C   UNL     1      11.145   7.865  22.052  0.00  0.00    -0.020 A 
ATOM     18  C   UNL     1      10.647   8.368  22.475  0.00  0.00    +0.031 C 
ATOM     19  C   UNL     1      11.910   8.109  21.861  0.00  0.00    +0.018 A 
ENDROOT
BRANCH  10   8
ATOM      5  N   UNL     1      15.400   6.495  20.235  0.00  0.00    -0.272 NA
ATOM      6  C   UNL     1      15.100   6.751  19.510  0.00  0.00    +0.073 C 
ATOM      7  C   UNL     1      14.313   6.972  19.624  0.00  0.00    +0.028 C 
ATOM      8  C   UNL     1      14.127   6.853  20.420  0.00  0.00    +0.094 C 
ATOM      9  C   UNL     1      14.799   6.558  20.797  0.00  0.00    +0.081 C 
BRANCH   5   4
ATOM      4  C   UNL     1      16.167   6.223  20.374  0.00  0.00    +0.072 C 
BRANCH   4   2
ATOM      1  C   UNL     1      17.159   7.239  20.213  0.00  0.00    +0.001 C 
ATOM      2  C   UNL     1      16.800   6.543  19.953  0.00  0.00    +0.016 C 
ATOM      3  C   UNL     1      17.075   6.166  19.272  0.00  0.00    +0.001 C 
ENDBRANCH   4   2
ENDBRANCH   5   4
ENDBRANCH  10   8
TORSDOF 3
ENDMDL
