MODEL 1
REMARK VINA RESULT:     -12.5      0.000      0.000
REMARK  Name = 
REMARK  4 active torsions:
REMARK  status: ('A' for Active; 'I' for Inactive)
REMARK    1  A    between atoms: C_6  and  C_9
REMARK    2  A    between atoms: C_12  and  C_14
REMARK    3  A    between atoms: N_19  and  C_20
REMARK    4  A    between atoms: C_20  and  C_21
REMARK                            x       y       z     vdW  Elec       q    Type
REMARK                         _______ _______ _______ _____ _____    ______ ____
ROOT
ATOM      9  C   UNL     1      -3.844   0.355  24.393  0.00  0.00    +0.203 A 
ATOM     10  N   UNL     1      -3.641   0.772  23.711  0.00  0.00    -0.056 NA
ATOM     11  O   UNL     1      -3.813   1.569  23.839  0.00  0.00    -0.336 OA
ATOM     12  C   UNL     1      -4.122   1.644  24.601  0.00  0.00    +0.251 A 
ATOM     13  N   UNL     1      -4.141   0.893  24.943  0.00  0.00    -0.190 NA
ENDROOT
BRANCH   9   6
ATOM      1  C   UNL     1      -3.524  -2.899  24.845  0.00  0.00    +0.033 C 
ATOM      2  C   UNL     1      -3.604  -2.085  24.732  0.00  0.00    +0.006 A 
ATOM      3  C   UNL     1      -4.064  -1.798  24.111  0.00  0.00    +0.136 A 
ATOM      4  F   UNL     1      -4.444  -2.324  23.602  0.00  0.00    -0.205 F 
ATOM      5  C   UNL     1      -4.144  -0.985  23.998  0.00  0.00    +0.032 A 
ATOM      6  C   UNL     1      -3.764  -0.459  24.506  0.00  0.00    +0.041 A 
ATOM      7  C   UNL     1      -3.304  -0.745  25.128  0.00  0.00    +0.003 A 
ATOM      8  C   UNL     1      -3.224  -1.559  25.241  0.00  0.00    -0.002 A 
ENDBRANCH   9   6
BRANCH  12  14
ATOM     14  C   UNL     1      -4.368   2.347  24.957  0.00  0.00    +0.140 C 
ATOM     15  C   UNL     1      -5.146   2.553  25.136  0.00  0.00    +0.060 C 
ATOM     16  C   UNL     1      -5.137   3.300  25.486  0.00  0.00    +0.170 C 
ATOM     17  O   UNL     1      -5.797   3.718  25.752  0.00  0.00    -0.222 OA
ATOM     18  C   UNL     1      -4.354   3.556  25.523  0.00  0.00    +0.106 C 
ATOM     19  N   UNL     1      -3.878   2.966  25.196  0.00  0.00    -0.264 NA
BRANCH  19  20
ATOM     20  C   UNL     1      -3.056   2.992  25.121  0.00  0.00    +0.073 C 
BRANCH  20  21
ATOM     21  C   UNL     1      -2.633   3.624  25.444  0.00  0.00    +0.016 C 
ATOM     22  C   UNL     1      -2.284   3.992  26.094  0.00  0.00    +0.001 C 
ATOM     23  C   UNL     1      -2.251   4.349  25.351  0.00  0.00    +0.001 C 
ENDBRANCH  20  21
ENDBRANCH  19  20
ENDBRANCH  12  14
TORSDOF 4
ENDMDL
MODEL 2
REMARK VINA RESULT:     -11.1      1.822      4.731
REMARK  Name = 
REMARK  4 active torsions:
REMARK  status: ('A' for Active; 'I' for Inactive)
REMARK    1  A    between atoms: C_6  and  C_9
REMARK    2  A    between atoms: C_12  and  C_14
REMARK    3  A    between atoms: N_19  and  C_20
REMARK    4  A    between atoms: C_20  and  C_21
REMARK                            x       y       z     vdW  Elec       q    Type
REMARK                         _______ _______ _______ _____ _____    ______ ____
ROOT
ATOM      9  C   UNL     1      -3.544   1.470  24.438  0.00  0.00    +0.203 A 
ATOM     10  N   UNL     1      -3.323   1.375  23.648  0.00  0.00    -0.056 NA
ATOM     11  O   UNL     1      -2.804   0.735  23.605  0.00  0.00    -0.336 OA
ATOM     12  C   UNL     1      -2.703   0.435  24.367  0.00  0.00    +0.251 A 
ATOM     13  N   UNL     1      -3.161   0.890  24.882  0.00  0.00    -0.190 NA
ENDROOT
BRANCH   9   6
ATOM      1  C   UNL     1      -5.597   3.771  25.614  0.00  0.00    +0.033 C 
ATOM      2  C   UNL     1      -5.083   3.195  25.319  0.00  0.00    +0.006 A 
ATOM      3  C   UNL     1      -5.377   2.461  25.087  0.00  0.00    +0.136 A 
ATOM      4  F   UNL     1      -6.184   2.301  25.148  0.00  0.00    -0.205 F 
ATOM      5  C   UNL     1      -4.864   1.885  24.793  0.00  0.00    +0.032 A 
ATOM      6  C   UNL     1      -4.057   2.046  24.732  0.00  0.00    +0.041 A 
ATOM      7  C   UNL     1      -3.763   2.780  24.964  0.00  0.00    +0.003 A 
ATOM      8  C   UNL     1      -4.277   3.356  25.259  0.00  0.00    -0.002 A 
ENDBRANCH   9   6
BRANCH  12  14
ATOM     14  C   UNL     1      -2.229  -0.207  24.577  0.00  0.00    +0.140 C 
ATOM     15  C   UNL     1      -1.430  -0.174  24.780  0.00  0.00    +0.060 C 
ATOM     16  C   UNL     1      -1.179  -0.941  24.949  0.00  0.00    +0.170 C 
ATOM     17  O   UNL     1      -0.417  -1.162  25.176  0.00  0.00    -0.222 OA
ATOM     18  C   UNL     1      -1.822  -1.449  24.851  0.00  0.00    +0.106 C 
ATOM     19  N   UNL     1      -2.472  -0.994  24.621  0.00  0.00    -0.264 NA
BRANCH  19  20
ATOM     20  C   UNL     1      -3.230  -1.279  24.462  0.00  0.00    +0.073 C 
BRANCH  20  21
ATOM     21  C   UNL     1      -3.395  -2.083  24.551  0.00  0.00    +0.016 C 
ATOM     22  C   UNL     1      -3.551  -2.821  24.217  0.00  0.00    +0.001 C 
ATOM     23  C   UNL     1      -3.525  -2.737  25.037  0.00  0.00    +0.001 C 
ENDBRANCH  20  21
ENDBRANCH  19  20
ENDBRANCH  12  14
TORSDOF 4
ENDMDL
MODEL 3
REMARK VINA RESULT:     -11.0      2.035      2.712
REMARK  Name = 
REMARK  4 active torsions:
REMARK  status: ('A' for Active; 'I' for Inactive)
REMARK    1  A    between atoms: C_6  and  C_9
REMARK    2  A    between atoms: C_12  and  C_14
REMARK    3  A    between atoms: N_19  and  C_20
REMARK    4  A    between atoms: C_20  and  C_21
REMARK                            x       y       z     vdW  Elec       q    Type
REMARK                         _______ _______ _______ _____ _____    ______ ____
ROOT
ATOM      9  C   UNL     1      -2.076   0.126  24.572  0.00  0.00    +0.203 A 
ATOM     10  N   UNL     1      -1.939   0.556  23.881  0.00  0.00    -0.056 NA
ATOM     11  O   UNL     1      -1.529   1.242  24.086  0.00  0.00    -0.336 OA
ATOM     12  C   UNL     1      -1.411   1.236  24.903  0.00  0.00    +0.251 A 
ATOM     13  N   UNL     1      -1.750   0.545  25.203  0.00  0.00    -0.190 NA
ENDROOT
BRANCH   9   6
ATOM      1  C   UNL     1      -3.650  -2.768  24.775  0.00  0.00    +0.033 C 
ATOM      2  C   UNL     1      -3.256  -2.044  24.724  0.00  0.00    +0.006 A 
ATOM      3  C   UNL     1      -2.439  -2.026  24.617  0.00  0.00    +0.136 A 
ATOM      4  F   UNL     1      -2.014  -2.731  24.561  0.00  0.00    -0.205 F 
ATOM      5  C   UNL     1      -2.045  -1.302  24.566  0.00  0.00    +0.032 A 
ATOM      6  C   UNL     1      -2.470  -0.598  24.622  0.00  0.00    +0.041 A 
ATOM      7  C   UNL     1      -3.287  -0.616  24.729  0.00  0.00    +0.003 A 
ATOM      8  C   UNL     1      -3.681  -1.339  24.780  0.00  0.00    -0.002 A 
ENDBRANCH   9   6
BRANCH  12  14
ATOM     14  C   UNL     1      -1.024   1.817  25.342  0.00  0.00    +0.140 C 
ATOM     15  C   UNL     1      -0.271   1.754  25.673  0.00  0.00    +0.060 C 
ATOM     16  C   UNL     1      -0.105   2.462  26.062  0.00  0.00    +0.170 C 
ATOM     17  O   UNL     1       0.591   2.638  26.471  0.00  0.00    -0.222 OA
ATOM     18  C   UNL     1      -0.754   2.963  25.971  0.00  0.00    +0.106 C 
ATOM     19  N   UNL     1      -1.322   2.564  25.525  0.00  0.00    -0.264 NA
BRANCH  19  20
ATOM     20  C   UNL     1      -2.060   2.861  25.303  0.00  0.00    +0.073 C 
BRANCH  20  21
ATOM     21  C   UNL     1      -2.296   3.610  25.559  0.00  0.00    +0.016 C 
ATOM     22  C   UNL     1      -2.720   4.085  26.083  0.00  0.00    +0.001 C 
ATOM     23  C   UNL     1      -2.281   4.431  25.476  0.00  0.00    +0.001 C 
ENDBRANCH  20  21
ENDBRANCH  19  20
ENDBRANCH  12  14
TORSDOF 4
ENDMDL
MODEL 4
REMARK VINA RESULT:     -10.7      2.665      5.318
REMARK  Name = 
REMARK  4 active torsions:
REMARK  status: ('A' for Active; 'I' for Inactive)
REMARK    1  A    between atoms: C_6  and  C_9
REMARK    2  A    between atoms: C_12  and  C_14
REMARK    3  A    between atoms: N_19  and  C_20
REMARK    4  A    between atoms: C_20  and  C_21
REMARK                            x       y       z     vdW  Elec       q    Type
REMARK                         _______ _______ _______ _____ _____    ______ ____
ROOT
ATOM      9  C   UNL     1      -1.555   2.197  24.403  0.00  0.00    +0.203 A 
ATOM     10  N   UNL     1      -1.533   1.930  23.623  0.00  0.00    -0.056 NA
ATOM     11  O   UNL     1      -1.474   1.106  23.638  0.00  0.00    -0.336 OA
ATOM     12  C   UNL     1      -1.459   0.865  24.427  0.00  0.00    +0.251 A 
ATOM     13  N   UNL     1      -1.510   1.540  24.900  0.00  0.00    -0.190 NA
ENDROOT
BRANCH   9   6
ATOM      1  C   UNL     1      -1.785   5.345  25.369  0.00  0.00    +0.033 C 
ATOM      2  C   UNL     1      -1.727   4.557  25.127  0.00  0.00    +0.006 A 
ATOM      3  C   UNL     1      -0.991   4.235  24.943  0.00  0.00    +0.136 A 
ATOM      4  F   UNL     1      -0.311   4.699  25.000  0.00  0.00    -0.205 F 
ATOM      5  C   UNL     1      -0.933   3.448  24.701  0.00  0.00    +0.032 A 
ATOM      6  C   UNL     1      -1.613   2.984  24.644  0.00  0.00    +0.041 A 
ATOM      7  C   UNL     1      -2.349   3.306  24.829  0.00  0.00    +0.003 A 
ATOM      8  C   UNL     1      -2.407   4.093  25.070  0.00  0.00    -0.002 A 
ENDBRANCH   9   6
BRANCH  12  14
ATOM     14  C   UNL     1      -1.404   0.087  24.695  0.00  0.00    +0.140 C 
ATOM     15  C   UNL     1      -0.716  -0.292  24.945  0.00  0.00    +0.060 C 
ATOM     16  C   UNL     1      -0.915  -1.062  25.164  0.00  0.00    +0.170 C 
ATOM     17  O   UNL     1      -0.394  -1.635  25.448  0.00  0.00    -0.222 OA
ATOM     18  C   UNL     1      -1.727  -1.159  25.051  0.00  0.00    +0.106 C 
ATOM     19  N   UNL     1      -2.029  -0.448  24.760  0.00  0.00    -0.264 NA
BRANCH  19  20
ATOM     20  C   UNL     1      -2.818  -0.299  24.569  0.00  0.00    +0.073 C 
BRANCH  20  21
ATOM     21  C   UNL     1      -3.377  -0.905  24.626  0.00  0.00    +0.016 C 
ATOM     22  C   UNL     1      -3.881  -1.371  25.082  0.00  0.00    +0.001 C 
ATOM     23  C   UNL     1      -3.840  -1.485  24.266  0.00  0.00    +0.001 C 
ENDBRANCH  20  21
ENDBRANCH  19  20
ENDBRANCH  12  14
TORSDOF 4
ENDMDL
