MODEL 1
REMARK VINA RESULT:      -9.8      0.000      0.000
REMARK  Name = 
REMARK  9 active torsions:
REMARK  status: ('A' for Active; 'I' for Inactive)
REMARK    1  A    between atoms: O_2  and  C_3
REMARK    2  A    between atoms: C_6  and  C_7
REMARK    3  A    between atoms: C_7  and  C_8
REMARK    4  A    between atoms: C_13  and  C_14
REMARK    5  A    between atoms: C_14  and  C_15
REMARK    6  A    between atoms: C_18  and  C_19
REMARK    7  A    between atoms: C_19  and  C_20
REMARK    8  A    between atoms: C_20  and  N_21
REMARK    9  A    between atoms: N_24  and  C_27
REMARK                            x       y       z     vdW  Elec       q    Type
REMARK                         _______ _______ _______ _____ _____    ______ ____
ROOT
ATOM      8  C   UNL     1      -4.081   1.074  24.766  0.00  0.00    +0.230 C 
ATOM      9  O   UNL     1      -3.569   1.717  24.714  0.00  0.00    -0.275 OA
ATOM     10  N   UNL     1      -3.790   0.307  24.681  0.00  0.00    -0.279 N 
ATOM     11  C   UNL     1      -4.304  -0.338  24.733  0.00  0.00    +0.093 C 
ATOM     12  C   UNL     1      -4.013  -1.105  24.649  0.00  0.00    +0.022 C 
ATOM     13  C   UNL     1      -3.208  -1.228  24.512  0.00  0.00    +0.015 C 
ATOM     18  C   UNL     1      -2.695  -0.584  24.460  0.00  0.00    +0.022 C 
ATOM     34  C   UNL     1      -2.986   0.183  24.545  0.00  0.00    +0.093 C 
ENDROOT
BRANCH   8   7
ATOM      7  C   UNL     1      -4.886   1.197  24.903  0.00  0.00    +0.112 C 
BRANCH   7   6
ATOM      3  C   UNL     1      -5.686   3.411  25.667  0.00  0.00    +0.139 A 
ATOM      4  C   UNL     1      -5.242   3.348  24.974  0.00  0.00    +0.037 A 
ATOM      5  C   UNL     1      -4.976   2.611  24.720  0.00  0.00    -0.001 A 
ATOM      6  C   UNL     1      -5.153   1.935  25.157  0.00  0.00    -0.013 A 
ATOM     35  C   UNL     1      -5.597   1.997  25.851  0.00  0.00    -0.001 A 
ATOM     36  C   UNL     1      -5.863   2.734  26.105  0.00  0.00    +0.037 A 
BRANCH   3   2
ATOM      1  C   UNL     1      -5.911   4.799  25.416  0.00  0.00    +0.252 C 
ATOM      2  O   UNL     1      -5.953   4.149  25.921  0.00  0.00    -0.471 OA
ENDBRANCH   3   2
ENDBRANCH   7   6
ENDBRANCH   8   7
BRANCH  13  14
ATOM     14  C   UNL     1      -2.917  -1.996  24.427  0.00  0.00    +0.114 C 
BRANCH  14  15
ATOM     15  C   UNL     1      -3.413  -2.642  24.560  0.00  0.00    +0.365 C 
ATOM     16  O   UNL     1      -3.461  -2.978  25.311  0.00  0.00    -0.246 OA
ATOM     17  O   UNL     1      -3.861  -2.951  23.940  0.00  0.00    -0.246 OA
ENDBRANCH  14  15
ENDBRANCH  13  14
BRANCH  18  19
ATOM     19  C   UNL     1      -1.891  -0.707  24.323  0.00  0.00    +0.019 C 
BRANCH  19  20
ATOM     20  C   UNL     1      -1.337  -0.165  24.609  0.00  0.00    +0.072 C 
BRANCH  20  21
ATOM     21  N   UNL     1      -0.615  -0.072  24.222  0.00  0.00    -0.270 NA
ATOM     22  C   UNL     1      -0.088  -0.705  24.172  0.00  0.00    +0.094 C 
ATOM     23  C   UNL     1       0.634  -0.612  23.786  0.00  0.00    +0.108 C 
ATOM     24  N   UNL     1       0.831   0.115  23.448  0.00  0.00    -0.305 N 
ATOM     25  C   UNL     1       0.305   0.749  23.498  0.00  0.00    +0.108 C 
ATOM     26  C   UNL     1      -0.418   0.655  23.885  0.00  0.00    +0.094 C 
BRANCH  24  27
ATOM     27  C   UNL     1       1.553   0.209  23.061  0.00  0.00    +0.048 A 
ATOM     28  C   UNL     1       1.712  -0.221  22.375  0.00  0.00    +0.017 A 
ATOM     29  C   UNL     1       2.434  -0.128  21.987  0.00  0.00    +0.031 A 
ATOM     30  C   UNL     1       2.997   0.396  22.286  0.00  0.00    +0.140 A 
ATOM     31  F   UNL     1       3.720   0.489  21.898  0.00  0.00    -0.204 F 
ATOM     32  C   UNL     1       2.838   0.825  22.972  0.00  0.00    +0.031 A 
ATOM     33  C   UNL     1       2.117   0.732  23.359  0.00  0.00    +0.017 A 
ENDBRANCH  24  27
ENDBRANCH  20  21
ENDBRANCH  19  20
ENDBRANCH  18  19
TORSDOF 9
ENDMDL
MODEL 2
REMARK VINA RESULT:      -8.9      2.863      6.870
REMARK  Name = 
REMARK  9 active torsions:
REMARK  status: ('A' for Active; 'I' for Inactive)
REMARK    1  A    between atoms: O_2  and  C_3
REMARK    2  A    between atoms: C_6  and  C_7
REMARK    3  A    between atoms: C_7  and  C_8
REMARK    4  A    between atoms: C_13  and  C_14
REMARK    5  A    between atoms: C_14  and  C_15
REMARK    6  A    between atoms: C_18  and  C_19
REMARK    7  A    between atoms: C_19  and  C_20
REMARK    8  A    between atoms: C_20  and  N_21
REMARK    9  A    between atoms: N_24  and  C_27
REMARK                            x       y       z     vdW  Elec       q    Type
REMARK                         _______ _______ _______ _____ _____    ______ ____
ROOT
ATOM      8  C   UNL     1       1.329   0.313  23.127  0.00  0.00    +0.230 C 
ATOM      9  O   UNL     1       1.414   1.133  23.100  0.00  0.00    -0.275 OA
ATOM     10  N   UNL     1       0.667  -0.020  23.489  0.00  0.00    -0.279 N 
ATOM     11  C   UNL     1       0.581  -0.841  23.516  0.00  0.00    +0.093 C 
ATOM     12  C   UNL     1      -0.081  -1.175  23.878  0.00  0.00    +0.022 C 
ATOM     13  C   UNL     1      -0.657  -0.688  24.212  0.00  0.00    +0.015 C 
ATOM     18  C   UNL     1      -0.572   0.131  24.185  0.00  0.00    +0.022 C 
ATOM     34  C   UNL     1       0.090   0.465  23.823  0.00  0.00    +0.093 C 
ENDROOT
BRANCH   8   7
ATOM      7  C   UNL     1       1.906  -0.173  22.793  0.00  0.00    +0.112 C 
BRANCH   7   6
ATOM      3  C   UNL     1       4.299   0.424  23.001  0.00  0.00    +0.139 A 
ATOM      4  C   UNL     1       3.775   0.940  22.628  0.00  0.00    +0.037 A 
ATOM      5  C   UNL     1       2.978   0.741  22.559  0.00  0.00    -0.001 A 
ATOM      6  C   UNL     1       2.703   0.026  22.863  0.00  0.00    -0.013 A 
ATOM     35  C   UNL     1       3.227  -0.492  23.237  0.00  0.00    -0.001 A 
ATOM     36  C   UNL     1       4.024  -0.293  23.306  0.00  0.00    +0.037 A 
BRANCH   3   2
ATOM      1  C   UNL     1       5.584   0.198  23.581  0.00  0.00    +0.252 C 
ATOM      2  O   UNL     1       5.096   0.623  23.070  0.00  0.00    -0.471 OA
ENDBRANCH   3   2
ENDBRANCH   7   6
ENDBRANCH   8   7
BRANCH  13  14
ATOM     14  C   UNL     1      -1.320  -1.023  24.574  0.00  0.00    +0.114 C 
BRANCH  14  15
ATOM     15  C   UNL     1      -1.358  -1.839  24.691  0.00  0.00    +0.365 C 
ATOM     16  O   UNL     1      -1.753  -2.316  24.147  0.00  0.00    -0.246 OA
ATOM     17  O   UNL     1      -1.001  -2.177  25.353  0.00  0.00    -0.246 OA
ENDBRANCH  14  15
ENDBRANCH  13  14
BRANCH  18  19
ATOM     19  C   UNL     1      -1.149   0.618  24.518  0.00  0.00    +0.019 C 
BRANCH  19  20
ATOM     20  C   UNL     1      -1.336   1.340  24.163  0.00  0.00    +0.072 C 
BRANCH  20  21
ATOM     21  N   UNL     1      -2.021   1.742  24.382  0.00  0.00    -0.270 NA
ATOM     22  C   UNL     1      -2.033   2.189  25.075  0.00  0.00    +0.094 C 
ATOM     23  C   UNL     1      -2.718   2.591  25.294  0.00  0.00    +0.108 C 
ATOM     24  N   UNL     1      -3.393   2.547  24.821  0.00  0.00    -0.305 N 
ATOM     25  C   UNL     1      -3.381   2.099  24.128  0.00  0.00    +0.108 C 
ATOM     26  C   UNL     1      -2.695   1.697  23.909  0.00  0.00    +0.094 C 
BRANCH  24  27
ATOM     27  C   UNL     1      -4.079   2.949  25.040  0.00  0.00    +0.048 A 
ATOM     28  C   UNL     1      -4.753   2.526  25.258  0.00  0.00    +0.017 A 
ATOM     29  C   UNL     1      -5.440   2.927  25.477  0.00  0.00    +0.031 A 
ATOM     30  C   UNL     1      -5.452   3.751  25.478  0.00  0.00    +0.140 A 
ATOM     31  F   UNL     1      -6.139   4.153  25.697  0.00  0.00    -0.204 F 
ATOM     32  C   UNL     1      -4.778   4.175  25.259  0.00  0.00    +0.031 A 
ATOM     33  C   UNL     1      -4.092   3.773  25.041  0.00  0.00    +0.017 A 
ENDBRANCH  24  27
ENDBRANCH  20  21
ENDBRANCH  19  20
ENDBRANCH  18  19
TORSDOF 9
ENDMDL
MODEL 3
REMARK VINA RESULT:      -7.7      2.450      6.345
REMARK  Name = 
REMARK  9 active torsions:
REMARK  status: ('A' for Active; 'I' for Inactive)
REMARK    1  A    between atoms: O_2  and  C_3
REMARK    2  A    between atoms: C_6  and  C_7
REMARK    3  A    between atoms: C_7  and  C_8
REMARK    4  A    between atoms: C_13  and  C_14
REMARK    5  A    between atoms: C_14  and  C_15
REMARK    6  A    between atoms: C_18  and  C_19
REMARK    7  A    between atoms: C_19  and  C_20
REMARK    8  A    between atoms: C_20  and  N_21
REMARK    9  A    between atoms: N_24  and  C_27
REMARK                            x       y       z     vdW  Elec       q    Type
REMARK                         _______ _______ _______ _____ _____    ______ ____
ROOT
ATOM      8  C   UNL     1      -0.525  -0.366  23.944  0.00  0.00    +0.230 C 
ATOM      9  O   UNL     1      -0.519   0.450  23.824  0.00  0.00    -0.275 OA
ATOM     10  N   UNL     1      -1.214  -0.740  24.200  0.00  0.00    -0.279 N 
ATOM     11  C   UNL     1      -1.220  -1.557  24.320  0.00  0.00    +0.093 C 
ATOM     12  C   UNL     1      -1.909  -1.932  24.576  0.00  0.00    +0.022 C 
ATOM     13  C   UNL     1      -2.592  -1.489  24.713  0.00  0.00    +0.015 C 
ATOM     18  C   UNL     1      -2.586  -0.673  24.594  0.00  0.00    +0.022 C 
ATOM     34  C   UNL     1      -1.897  -0.299  24.337  0.00  0.00    +0.093 C 
ENDROOT
BRANCH   8   7
ATOM      7  C   UNL     1       0.158  -0.808  23.807  0.00  0.00    +0.112 C 
BRANCH   7   6
ATOM      3  C   UNL     1       2.055   0.196  22.574  0.00  0.00    +0.139 A 
ATOM      4  C   UNL     1       1.526  -0.302  22.184  0.00  0.00    +0.037 A 
ATOM      5  C   UNL     1       0.894  -0.636  22.594  0.00  0.00    -0.001 A 
ATOM      6  C   UNL     1       0.790  -0.473  23.396  0.00  0.00    -0.013 A 
ATOM     35  C   UNL     1       1.320   0.025  23.788  0.00  0.00    -0.001 A 
ATOM     36  C   UNL     1       1.951   0.359  23.377  0.00  0.00    +0.037 A 
BRANCH   3   2
ATOM      1  C   UNL     1       3.412   0.641  22.541  0.00  0.00    +0.252 C 
ATOM      2  O   UNL     1       2.687   0.531  22.164  0.00  0.00    -0.471 OA
ENDBRANCH   3   2
ENDBRANCH   7   6
ENDBRANCH   8   7
BRANCH  13  14
ATOM     14  C   UNL     1      -3.281  -1.864  24.970  0.00  0.00    +0.114 C 
BRANCH  14  15
ATOM     15  C   UNL     1      -3.345  -2.686  24.924  0.00  0.00    +0.365 C 
ATOM     16  O   UNL     1      -3.160  -3.151  25.579  0.00  0.00    -0.246 OA
ATOM     17  O   UNL     1      -3.594  -3.041  24.223  0.00  0.00    -0.246 OA
ENDBRANCH  14  15
ENDBRANCH  13  14
BRANCH  18  19
ATOM     19  C   UNL     1      -3.269  -0.231  24.731  0.00  0.00    +0.019 C 
BRANCH  19  20
ATOM     20  C   UNL     1      -3.524   0.318  24.169  0.00  0.00    +0.072 C 
BRANCH  20  21
ATOM     21  N   UNL     1      -3.920   1.000  24.409  0.00  0.00    -0.270 NA
ATOM     22  C   UNL     1      -4.533   0.949  24.959  0.00  0.00    +0.094 C 
ATOM     23  C   UNL     1      -4.929   1.630  25.199  0.00  0.00    +0.108 C 
ATOM     24  N   UNL     1      -4.713   2.365  24.890  0.00  0.00    -0.305 N 
ATOM     25  C   UNL     1      -4.101   2.416  24.340  0.00  0.00    +0.108 C 
ATOM     26  C   UNL     1      -3.704   1.733  24.100  0.00  0.00    +0.094 C 
BRANCH  24  27
ATOM     27  C   UNL     1      -5.109   3.047  25.130  0.00  0.00    +0.048 A 
ATOM     28  C   UNL     1      -4.746   3.784  25.052  0.00  0.00    +0.017 A 
ATOM     29  C   UNL     1      -5.141   4.467  25.292  0.00  0.00    +0.031 A 
ATOM     30  C   UNL     1      -5.900   4.413  25.610  0.00  0.00    +0.140 A 
ATOM     31  F   UNL     1      -6.295   5.097  25.850  0.00  0.00    -0.204 F 
ATOM     32  C   UNL     1      -6.263   3.677  25.689  0.00  0.00    +0.031 A 
ATOM     33  C   UNL     1      -5.868   2.994  25.449  0.00  0.00    +0.017 A 
ENDBRANCH  24  27
ENDBRANCH  20  21
ENDBRANCH  19  20
ENDBRANCH  18  19
TORSDOF 9
ENDMDL
MODEL 4
REMARK VINA RESULT:      -7.2      2.247      4.160
REMARK  Name = 
REMARK  9 active torsions:
REMARK  status: ('A' for Active; 'I' for Inactive)
REMARK    1  A    between atoms: O_2  and  C_3
REMARK    2  A    between atoms: C_6  and  C_7
REMARK    3  A    between atoms: C_7  and  C_8
REMARK    4  A    between atoms: C_13  and  C_14
REMARK    5  A    between atoms: C_14  and  C_15
REMARK    6  A    between atoms: C_18  and  C_19
REMARK    7  A    between atoms: C_19  and  C_20
REMARK    8  A    between atoms: C_20  and  N_21
REMARK    9  A    between atoms: N_24  and  C_27
REMARK                            x       y       z     vdW  Elec       q    Type
REMARK                         _______ _______ _______ _____ _____    ______ ____
ROOT
ATOM      8  C   UNL     1      -2.037  -0.214  24.565  0.00  0.00    +0.230 C 
ATOM      9  O   UNL     1      -1.629  -0.864  24.264  0.00  0.00    -0.275 OA
ATOM     10  N   UNL     1      -1.683   0.531  24.563  0.00  0.00    -0.279 N 
ATOM     11  C   UNL     1      -2.091   1.183  24.865  0.00  0.00    +0.093 C 
ATOM     12  C   UNL     1      -1.737   1.928  24.863  0.00  0.00    +0.022 C 
ATOM     13  C   UNL     1      -0.975   2.022  24.559  0.00  0.00    +0.015 C 
ATOM     18  C   UNL     1      -0.568   1.372  24.257  0.00  0.00    +0.022 C 
ATOM     34  C   UNL     1      -0.922   0.626  24.260  0.00  0.00    +0.093 C 
ENDROOT
BRANCH   8   7
ATOM      7  C   UNL     1      -2.798  -0.308  24.869  0.00  0.00    +0.112 C 
BRANCH   7   6
ATOM      3  C   UNL     1      -4.158  -2.268  24.211  0.00  0.00    +0.139 A 
ATOM      4  C   UNL     1      -3.575  -2.345  24.790  0.00  0.00    +0.037 A 
ATOM      5  C   UNL     1      -3.122  -1.693  25.009  0.00  0.00    -0.001 A 
ATOM      6  C   UNL     1      -3.252  -0.961  24.650  0.00  0.00    -0.013 A 
ATOM     35  C   UNL     1      -3.835  -0.883  24.071  0.00  0.00    -0.001 A 
ATOM     36  C   UNL     1      -4.288  -1.536  23.852  0.00  0.00    +0.037 A 
BRANCH   3   2
ATOM      1  C   UNL     1      -4.268  -3.537  23.566  0.00  0.00    +0.252 C 
ATOM      2  O   UNL     1      -4.612  -2.921  23.992  0.00  0.00    -0.471 OA
ENDBRANCH   3   2
ENDBRANCH   7   6
ENDBRANCH   8   7
BRANCH  13  14
ATOM     14  C   UNL     1      -0.621   2.768  24.557  0.00  0.00    +0.114 C 
BRANCH  14  15
ATOM     15  C   UNL     1      -0.957   3.385  24.990  0.00  0.00    +0.365 C 
ATOM     16  O   UNL     1      -0.775   3.474  25.789  0.00  0.00    -0.246 OA
ATOM     17  O   UNL     1      -1.475   3.912  24.624  0.00  0.00    -0.246 OA
ENDBRANCH  14  15
ENDBRANCH  13  14
BRANCH  18  19
ATOM     19  C   UNL     1       0.193   1.465  23.954  0.00  0.00    +0.019 C 
BRANCH  19  20
ATOM     20  C   UNL     1       0.472   0.949  23.372  0.00  0.00    +0.072 C 
BRANCH  20  21
ATOM     21  N   UNL     1       1.278   0.788  23.316  0.00  0.00    -0.270 NA
ATOM     22  C   UNL     1       1.829   1.362  23.533  0.00  0.00    +0.094 C 
ATOM     23  C   UNL     1       2.636   1.201  23.477  0.00  0.00    +0.108 C 
ATOM     24  N   UNL     1       2.893   0.467  23.203  0.00  0.00    -0.305 N 
ATOM     25  C   UNL     1       2.342  -0.108  22.986  0.00  0.00    +0.108 C 
ATOM     26  C   UNL     1       1.534   0.054  23.042  0.00  0.00    +0.094 C 
BRANCH  24  27
ATOM     27  C   UNL     1       3.700   0.305  23.147  0.00  0.00    +0.048 A 
ATOM     28  C   UNL     1       4.200   0.834  22.759  0.00  0.00    +0.017 A 
ATOM     29  C   UNL     1       5.007   0.674  22.701  0.00  0.00    +0.031 A 
ATOM     30  C   UNL     1       5.314  -0.016  23.033  0.00  0.00    +0.140 A 
ATOM     31  F   UNL     1       6.122  -0.177  22.976  0.00  0.00    -0.204 F 
ATOM     32  C   UNL     1       4.814  -0.545  23.421  0.00  0.00    +0.031 A 
ATOM     33  C   UNL     1       4.007  -0.385  23.478  0.00  0.00    +0.017 A 
ENDBRANCH  24  27
ENDBRANCH  20  21
ENDBRANCH  19  20
ENDBRANCH  18  19
TORSDOF 9
ENDMDL
MODEL 5
REMARK VINA RESULT:      -6.8      2.093      2.795
REMARK  Name = 
REMARK  9 active torsions:
REMARK  status: ('A' for Active; 'I' for Inactive)
REMARK    1  A    between atoms: O_2  and  C_3
REMARK    2  A    between atoms: C_6  and  C_7
REMARK    3  A    between atoms: C_7  and  C_8
REMARK    4  A    between atoms: C_13  and  C_14
REMARK    5  A    between atoms: C_14  and  C_15
REMARK    6  A    between atoms: C_18  and  C_19
REMARK    7  A    between atoms: C_19  and  C_20
REMARK    8  A    between atoms: C_20  and  N_21
REMARK    9  A    between atoms: N_24  and  C_27
REMARK                            x       y       z     vdW  Elec       q    Type
REMARK                         _______ _______ _______ _____ _____    ______ ____
ROOT
ATOM      8  C   UNL     1      -1.511   1.733  24.321  0.00  0.00    +0.230 C 
ATOM      9  O   UNL     1      -1.001   2.276  23.968  0.00  0.00    -0.275 OA
ATOM     10  N   UNL     1      -1.338   0.927  24.293  0.00  0.00    -0.279 N 
ATOM     11  C   UNL     1      -1.848   0.383  24.647  0.00  0.00    +0.093 C 
ATOM     12  C   UNL     1      -1.674  -0.424  24.619  0.00  0.00    +0.022 C 
ATOM     13  C   UNL     1      -0.991  -0.685  24.238  0.00  0.00    +0.015 C 
ATOM     18  C   UNL     1      -0.481  -0.142  23.885  0.00  0.00    +0.022 C 
ATOM     34  C   UNL     1      -0.655   0.664  23.912  0.00  0.00    +0.093 C 
ENDROOT
BRANCH   8   7
ATOM      7  C   UNL     1      -2.194   1.995  24.702  0.00  0.00    +0.112 C 
BRANCH   7   6
ATOM      3  C   UNL     1      -2.367   4.347  25.451  0.00  0.00    +0.139 A 
ATOM      4  C   UNL     1      -2.721   4.112  24.745  0.00  0.00    +0.037 A 
ATOM      5  C   UNL     1      -2.664   3.329  24.495  0.00  0.00    -0.001 A 
ATOM      6  C   UNL     1      -2.252   2.779  24.952  0.00  0.00    -0.013 A 
ATOM     35  C   UNL     1      -1.898   3.014  25.660  0.00  0.00    -0.001 A 
ATOM     36  C   UNL     1      -1.955   3.797  25.909  0.00  0.00    +0.037 A 
BRANCH   3   2
ATOM      1  C   UNL     1      -2.039   5.727  25.282  0.00  0.00    +0.252 C 
ATOM      2  O   UNL     1      -2.425   5.131  25.701  0.00  0.00    -0.471 OA
ENDBRANCH   3   2
ENDBRANCH   7   6
ENDBRANCH   8   7
BRANCH  13  14
ATOM     14  C   UNL     1      -0.818  -1.492  24.210  0.00  0.00    +0.114 C 
BRANCH  14  15
ATOM     15  C   UNL     1      -1.291  -2.030  24.621  0.00  0.00    +0.365 C 
ATOM     16  O   UNL     1      -1.940  -2.376  24.249  0.00  0.00    -0.246 OA
ATOM     17  O   UNL     1      -1.113  -2.221  25.403  0.00  0.00    -0.246 OA
ENDBRANCH  14  15
ENDBRANCH  13  14
BRANCH  18  19
ATOM     19  C   UNL     1       0.202  -0.404  23.503  0.00  0.00    +0.019 C 
BRANCH  19  20
ATOM     20  C   UNL     1       0.638   0.118  23.034  0.00  0.00    +0.072 C 
BRANCH  20  21
ATOM     21  N   UNL     1       1.462   0.107  23.062  0.00  0.00    -0.270 NA
ATOM     22  C   UNL     1       1.871   0.738  23.402  0.00  0.00    +0.094 C 
ATOM     23  C   UNL     1       2.695   0.727  23.430  0.00  0.00    +0.108 C 
ATOM     24  N   UNL     1       3.111   0.086  23.118  0.00  0.00    -0.305 N 
ATOM     25  C   UNL     1       2.701  -0.545  22.778  0.00  0.00    +0.108 C 
ATOM     26  C   UNL     1       1.877  -0.533  22.751  0.00  0.00    +0.094 C 
BRANCH  24  27
ATOM     27  C   UNL     1       3.935   0.075  23.146  0.00  0.00    +0.048 A 
ATOM     28  C   UNL     1       4.368   0.658  22.754  0.00  0.00    +0.017 A 
ATOM     29  C   UNL     1       5.193   0.648  22.781  0.00  0.00    +0.031 A 
ATOM     30  C   UNL     1       5.583   0.054  23.200  0.00  0.00    +0.140 A 
ATOM     31  F   UNL     1       6.409   0.044  23.227  0.00  0.00    -0.204 F 
ATOM     32  C   UNL     1       5.150  -0.529  23.592  0.00  0.00    +0.031 A 
ATOM     33  C   UNL     1       4.326  -0.518  23.564  0.00  0.00    +0.017 A 
ENDBRANCH  24  27
ENDBRANCH  20  21
ENDBRANCH  19  20
ENDBRANCH  18  19
TORSDOF 9
ENDMDL
