MODEL 1
REMARK VINA RESULT:      -9.1      0.000      0.000
REMARK  Name = 
REMARK  7 active torsions:
REMARK  status: ('A' for Active; 'I' for Inactive)
REMARK    1  A    between atoms: O_2  and  C_3
REMARK    2  A    between atoms: C_6  and  C_9
REMARK    3  A    between atoms: N_11  and  C_12
REMARK    4  A    between atoms: C_12  and  C_13
REMARK    5  A    between atoms: C_17  and  C_18
REMARK    6  A    between atoms: C_18  and  C_19
REMARK    7  A    between atoms: C_31  and  C_32
REMARK                            x       y       z     vdW  Elec       q    Type
REMARK                         _______ _______ _______ _____ _____    ______ ____
ROOT
ATOM     13  C   UNL     1      -2.095   0.319  24.437  0.00  0.00    +0.043 C 
ATOM     14  C   UNL     1      -1.886   1.017  24.052  0.00  0.00    -0.033 C 
ATOM     15  C   UNL     1      -1.098   1.158  23.851  0.00  0.00    -0.048 C 
ATOM     16  C   UNL     1      -0.889   1.857  23.466  0.00  0.00    +0.026 C 
ATOM     17  C   UNL     1      -0.521   0.599  24.036  0.00  0.00    +0.027 C 
ATOM     30  C   UNL     1      -0.730  -0.099  24.421  0.00  0.00    +0.005 C 
ATOM     31  C   UNL     1      -1.517  -0.239  24.622  0.00  0.00    +0.006 C 
ENDROOT
BRANCH  31  32
ATOM     32  C   UNL     1      -1.727  -0.938  25.007  0.00  0.00    +0.000 C 
ATOM     33  C   UNL     1      -1.979  -1.591  24.571  0.00  0.00    +0.000 C 
ATOM     34  C   UNL     1      -1.684  -0.985  25.830  0.00  0.00    +0.000 C 
ENDBRANCH  31  32
BRANCH  13  12
ATOM     12  C   UNL     1      -2.883   0.179  24.638  0.00  0.00    +0.120 C 
BRANCH  12  11
ATOM      9  C   UNL     1      -4.195   0.730  24.778  0.00  0.00    +0.265 C 
ATOM     10  O   UNL     1      -4.521   0.015  24.523  0.00  0.00    -0.268 OA
ATOM     11  N   UNL     1      -3.376   0.811  24.836  0.00  0.00    -0.201 NA
BRANCH   9   6
ATOM      3  C   UNL     1      -5.672   2.623  25.372  0.00  0.00    +0.139 A 
ATOM      4  C   UNL     1      -5.738   1.907  25.776  0.00  0.00    +0.037 A 
ATOM      5  C   UNL     1      -5.246   1.275  25.578  0.00  0.00    +0.008 A 
ATOM      6  C   UNL     1      -4.687   1.360  24.976  0.00  0.00    +0.055 A 
ATOM      7  C   UNL     1      -4.622   2.077  24.573  0.00  0.00    +0.008 A 
ATOM      8  C   UNL     1      -5.115   2.708  24.771  0.00  0.00    +0.037 A 
BRANCH   3   2
ATOM      1  C   UNL     1      -5.858   4.019  25.619  0.00  0.00    +0.252 C 
ATOM      2  O   UNL     1      -6.166   3.255  25.570  0.00  0.00    -0.471 OA
ENDBRANCH   3   2
ENDBRANCH   9   6
ENDBRANCH  12  11
ENDBRANCH  13  12
BRANCH  17  18
ATOM     18  C   UNL     1       0.268   0.740  23.835  0.00  0.00    +0.089 C 
BRANCH  18  19
ATOM     19  C   UNL     1       0.642   0.264  23.274  0.00  0.00    +0.226 C 
ATOM     20  O   UNL     1       0.211  -0.313  22.870  0.00  0.00    -0.275 OA
ATOM     21  N   UNL     1       1.445   0.366  23.117  0.00  0.00    -0.276 N 
ATOM     22  C   UNL     1       1.820  -0.110  22.555  0.00  0.00    +0.115 C 
ATOM     23  C   UNL     1       2.622  -0.008  22.398  0.00  0.00    +0.115 C 
ATOM     24  N   UNL     1       3.052   0.568  22.801  0.00  0.00    -0.276 N 
ATOM     25  C   UNL     1       2.678   1.044  23.363  0.00  0.00    +0.115 C 
ATOM     26  C   UNL     1       1.875   0.943  23.520  0.00  0.00    +0.115 C 
ATOM     27  C   UNL     1       3.856   0.670  22.644  0.00  0.00    +0.226 C 
ATOM     28  C   UNL     1       4.229   0.195  22.083  0.00  0.00    +0.095 C 
ATOM     29  O   UNL     1       4.285   1.247  23.048  0.00  0.00    -0.275 OA
ENDBRANCH  18  19
ENDBRANCH  17  18
TORSDOF 7
ENDMDL
MODEL 2
REMARK VINA RESULT:      -8.3      1.097      6.766
REMARK  Name = 
REMARK  7 active torsions:
REMARK  status: ('A' for Active; 'I' for Inactive)
REMARK    1  A    between atoms: O_2  and  C_3
REMARK    2  A    between atoms: C_6  and  C_9
REMARK    3  A    between atoms: N_11  and  C_12
REMARK    4  A    between atoms: C_12  and  C_13
REMARK    5  A    between atoms: C_17  and  C_18
REMARK    6  A    between atoms: C_18  and  C_19
REMARK    7  A    between atoms: C_31  and  C_32
REMARK                            x       y       z     vdW  Elec       q    Type
REMARK                         _______ _______ _______ _____ _____    ______ ____
ROOT
ATOM     13  C   UNL     1      -0.101   0.294  23.634  0.00  0.00    +0.043 C 
ATOM     14  C   UNL     1      -0.098   1.100  23.460  0.00  0.00    -0.033 C 
ATOM     15  C   UNL     1      -0.694   1.589  23.754  0.00  0.00    -0.048 C 
ATOM     16  C   UNL     1      -0.690   2.395  23.581  0.00  0.00    +0.026 C 
ATOM     17  C   UNL     1      -1.293   1.270  24.222  0.00  0.00    +0.027 C 
ATOM     30  C   UNL     1      -1.297   0.463  24.396  0.00  0.00    +0.005 C 
ATOM     31  C   UNL     1      -0.700  -0.024  24.101  0.00  0.00    +0.006 C 
ENDROOT
BRANCH  31  32
ATOM     32  C   UNL     1      -0.704  -0.831  24.275  0.00  0.00    +0.000 C 
ATOM     33  C   UNL     1      -1.017  -1.369  23.733  0.00  0.00    +0.000 C 
ATOM     34  C   UNL     1      -0.395  -1.101  24.990  0.00  0.00    +0.000 C 
ENDBRANCH  31  32
BRANCH  13  12
ATOM     12  C   UNL     1       0.496  -0.194  23.338  0.00  0.00    +0.120 C 
BRANCH  12  11
ATOM      9  C   UNL     1       1.825  -0.170  22.815  0.00  0.00    +0.265 C 
ATOM     10  O   UNL     1       1.575  -0.607  22.161  0.00  0.00    -0.268 OA
ATOM     11  N   UNL     1       1.285   0.036  23.403  0.00  0.00    -0.201 NA
BRANCH   9   6
ATOM      3  C   UNL     1       4.193   0.520  23.009  0.00  0.00    +0.139 A 
ATOM      4  C   UNL     1       3.968  -0.243  23.226  0.00  0.00    +0.037 A 
ATOM      5  C   UNL     1       3.178  -0.474  23.161  0.00  0.00    +0.008 A 
ATOM      6  C   UNL     1       2.614   0.060  22.880  0.00  0.00    +0.055 A 
ATOM      7  C   UNL     1       2.841   0.823  22.664  0.00  0.00    +0.008 A 
ATOM      8  C   UNL     1       3.630   1.053  22.729  0.00  0.00    +0.037 A 
BRANCH   3   2
ATOM      1  C   UNL     1       5.480   0.374  23.614  0.00  0.00    +0.252 C 
ATOM      2  O   UNL     1       4.984   0.751  23.074  0.00  0.00    -0.471 OA
ENDBRANCH   3   2
ENDBRANCH   9   6
ENDBRANCH  12  11
ENDBRANCH  13  12
BRANCH  17  18
ATOM     18  C   UNL     1      -1.890   1.758  24.517  0.00  0.00    +0.089 C 
BRANCH  18  19
ATOM     19  C   UNL     1      -2.674   1.631  24.295  0.00  0.00    +0.226 C 
ATOM     20  O   UNL     1      -2.851   1.086  23.702  0.00  0.00    -0.275 OA
ATOM     21  N   UNL     1      -3.280   2.050  24.667  0.00  0.00    -0.276 N 
ATOM     22  C   UNL     1      -4.066   1.923  24.445  0.00  0.00    +0.115 C 
ATOM     23  C   UNL     1      -4.672   2.341  24.816  0.00  0.00    +0.115 C 
ATOM     24  N   UNL     1      -4.494   2.886  25.409  0.00  0.00    -0.276 N 
ATOM     25  C   UNL     1      -3.709   3.013  25.631  0.00  0.00    +0.115 C 
ATOM     26  C   UNL     1      -3.103   2.595  25.260  0.00  0.00    +0.115 C 
ATOM     27  C   UNL     1      -5.100   3.304  25.780  0.00  0.00    +0.226 C 
ATOM     28  C   UNL     1      -5.885   3.177  25.558  0.00  0.00    +0.095 C 
ATOM     29  O   UNL     1      -4.923   3.849  26.373  0.00  0.00    -0.275 OA
ENDBRANCH  18  19
ENDBRANCH  17  18
TORSDOF 7
ENDMDL
MODEL 3
REMARK VINA RESULT:      -6.3     16.881     18.637
REMARK  Name = 
REMARK  7 active torsions:
REMARK  status: ('A' for Active; 'I' for Inactive)
REMARK    1  A    between atoms: O_2  and  C_3
REMARK    2  A    between atoms: C_6  and  C_9
REMARK    3  A    between atoms: N_11  and  C_12
REMARK    4  A    between atoms: C_12  and  C_13
REMARK    5  A    between atoms: C_17  and  C_18
REMARK    6  A    between atoms: C_18  and  C_19
REMARK    7  A    between atoms: C_31  and  C_32
REMARK                            x       y       z     vdW  Elec       q    Type
REMARK                         _______ _______ _______ _____ _____    ______ ____
ROOT
ATOM     13  C   UNL     1      -5.343  -9.466  10.401  0.00  0.00    +0.043 C 
ATOM     14  C   UNL     1      -5.139  -9.428   9.603  0.00  0.00    -0.033 C 
ATOM     15  C   UNL     1      -5.651  -9.074   9.062  0.00  0.00    -0.048 C 
ATOM     16  C   UNL     1      -5.446  -9.036   8.263  0.00  0.00    +0.026 C 
ATOM     17  C   UNL     1      -6.367  -8.756   9.320  0.00  0.00    +0.027 C 
ATOM     30  C   UNL     1      -6.571  -8.794  10.118  0.00  0.00    +0.005 C 
ATOM     31  C   UNL     1      -6.059  -9.148  10.658  0.00  0.00    +0.006 C 
ENDROOT
BRANCH  31  32
ATOM     32  C   UNL     1      -6.264  -9.185  11.457  0.00  0.00    +0.000 C 
ATOM     33  C   UNL     1      -6.608  -9.869  11.763  0.00  0.00    +0.000 C 
ATOM     34  C   UNL     1      -6.124  -8.539  11.950  0.00  0.00    +0.000 C 
ENDBRANCH  31  32
BRANCH  13  12
ATOM     12  C   UNL     1      -4.831  -9.821  10.942  0.00  0.00    +0.120 C 
BRANCH  12  11
ATOM      9  C   UNL     1      -3.485 -10.101  11.334  0.00  0.00    +0.265 C 
ATOM     10  O   UNL     1      -3.742 -10.780  11.727  0.00  0.00    -0.268 OA
ATOM     11  N   UNL     1      -4.030  -9.622  10.942  0.00  0.00    -0.201 NA
BRANCH   9   6
ATOM      3  C   UNL     1      -1.084  -9.505  11.334  0.00  0.00    +0.139 A 
ATOM      4  C   UNL     1      -1.602  -9.131  10.811  0.00  0.00    +0.037 A 
ATOM      5  C   UNL     1      -2.402  -9.330  10.811  0.00  0.00    +0.008 A 
ATOM      6  C   UNL     1      -2.686  -9.902  11.334  0.00  0.00    +0.055 A 
ATOM      7  C   UNL     1      -2.168 -10.275  11.856  0.00  0.00    +0.008 A 
ATOM      8  C   UNL     1      -1.367 -10.076  11.856  0.00  0.00    +0.037 A 
BRANCH   3   2
ATOM      1  C   UNL     1      -0.051  -8.530  11.177  0.00  0.00    +0.252 C 
ATOM      2  O   UNL     1      -0.283  -9.306  11.334  0.00  0.00    -0.471 OA
ENDBRANCH   3   2
ENDBRANCH   9   6
ENDBRANCH  12  11
ENDBRANCH  13  12
BRANCH  17  18
ATOM     18  C   UNL     1      -6.879  -8.401   8.778  0.00  0.00    +0.089 C 
BRANCH  18  19
ATOM     19  C   UNL     1      -7.695  -8.503   8.854  0.00  0.00    +0.226 C 
ATOM     20  O   UNL     1      -8.001  -9.242   9.056  0.00  0.00    -0.275 OA
ATOM     21  N   UNL     1      -8.203  -7.865   8.728  0.00  0.00    -0.276 N 
ATOM     22  C   UNL     1      -9.019  -7.967   8.803  0.00  0.00    +0.115 C 
ATOM     23  C   UNL     1      -9.527  -7.331   8.677  0.00  0.00    +0.115 C 
ATOM     24  N   UNL     1      -9.221  -6.592   8.476  0.00  0.00    -0.276 N 
ATOM     25  C   UNL     1      -8.405  -6.490   8.400  0.00  0.00    +0.115 C 
ATOM     26  C   UNL     1      -7.897  -7.127   8.526  0.00  0.00    +0.115 C 
ATOM     27  C   UNL     1      -9.730  -5.955   8.349  0.00  0.00    +0.226 C 
ATOM     28  C   UNL     1     -10.545  -6.056   8.425  0.00  0.00    +0.095 C 
ATOM     29  O   UNL     1      -9.423  -5.216   8.148  0.00  0.00    -0.275 OA
ENDBRANCH  18  19
ENDBRANCH  17  18
TORSDOF 7
ENDMDL
MODEL 4
REMARK VINA RESULT:      -5.7     14.704     16.067
REMARK  Name = 
REMARK  7 active torsions:
REMARK  status: ('A' for Active; 'I' for Inactive)
REMARK    1  A    between atoms: O_2  and  C_3
REMARK    2  A    between atoms: C_6  and  C_9
REMARK    3  A    between atoms: N_11  and  C_12
REMARK    4  A    between atoms: C_12  and  C_13
REMARK    5  A    between atoms: C_17  and  C_18
REMARK    6  A    between atoms: C_18  and  C_19
REMARK    7  A    between atoms: C_31  and  C_32
REMARK                            x       y       z     vdW  Elec       q    Type
REMARK                         _______ _______ _______ _____ _____    ______ ____
ROOT
ATOM     13  C   UNL     1      -7.456 -10.036  14.681  0.00  0.00    +0.043 C 
ATOM     14  C   UNL     1      -6.635 -10.067  14.757  0.00  0.00    -0.033 C 
ATOM     15  C   UNL     1      -6.158 -10.084  14.084  0.00  0.00    -0.048 C 
ATOM     16  C   UNL     1      -5.337 -10.114  14.160  0.00  0.00    +0.026 C 
ATOM     17  C   UNL     1      -6.503 -10.071  13.335  0.00  0.00    +0.027 C 
ATOM     30  C   UNL     1      -7.324 -10.041  13.259  0.00  0.00    +0.005 C 
ATOM     31  C   UNL     1      -7.800 -10.024  13.932  0.00  0.00    +0.006 C 
ENDROOT
BRANCH  31  32
ATOM     32  C   UNL     1      -8.621  -9.994  13.856  0.00  0.00    +0.000 C 
ATOM     33  C   UNL     1      -9.011  -9.267  13.875  0.00  0.00    +0.000 C 
ATOM     34  C   UNL     1      -9.053 -10.690  13.761  0.00  0.00    +0.000 C 
ENDBRANCH  31  32
BRANCH  13  12
ATOM     12  C   UNL     1      -7.932 -10.019  15.355  0.00  0.00    +0.120 C 
BRANCH  12  11
ATOM      9  C   UNL     1      -8.052 -10.079  16.778  0.00  0.00    +0.265 C 
ATOM     10  O   UNL     1      -8.823  -9.789  16.724  0.00  0.00    -0.268 OA
ATOM     11  N   UNL     1      -7.607 -10.194  16.093  0.00  0.00    -0.201 NA
BRANCH   9   6
ATOM      3  C   UNL     1      -7.079 -10.604  18.991  0.00  0.00    +0.139 A 
ATOM      4  C   UNL     1      -7.892 -10.676  18.871  0.00  0.00    +0.037 A 
ATOM      5  C   UNL     1      -8.217 -10.501  18.133  0.00  0.00    +0.008 A 
ATOM      6  C   UNL     1      -7.728 -10.254  17.515  0.00  0.00    +0.055 A 
ATOM      7  C   UNL     1      -6.915 -10.182  17.636  0.00  0.00    +0.008 A 
ATOM      8  C   UNL     1      -6.591 -10.357  18.374  0.00  0.00    +0.037 A 
BRANCH   3   2
ATOM      1  C   UNL     1      -6.131 -10.326  20.024  0.00  0.00    +0.252 C 
ATOM      2  O   UNL     1      -6.754 -10.779  19.730  0.00  0.00    -0.471 OA
ENDBRANCH   3   2
ENDBRANCH   9   6
ENDBRANCH  12  11
ENDBRANCH  13  12
BRANCH  17  18
ATOM     18  C   UNL     1      -6.027 -10.088  12.661  0.00  0.00    +0.089 C 
BRANCH  18  19
ATOM     19  C   UNL     1      -5.981  -9.426  12.171  0.00  0.00    +0.226 C 
ATOM     20  O   UNL     1      -6.260  -8.697  12.437  0.00  0.00    -0.275 OA
ATOM     21  N   UNL     1      -5.656  -9.495  11.416  0.00  0.00    -0.276 N 
ATOM     22  C   UNL     1      -5.610  -8.832  10.925  0.00  0.00    +0.115 C 
ATOM     23  C   UNL     1      -5.285  -8.900  10.170  0.00  0.00    +0.115 C 
ATOM     24  N   UNL     1      -5.006  -9.629   9.905  0.00  0.00    -0.276 N 
ATOM     25  C   UNL     1      -5.052 -10.292  10.396  0.00  0.00    +0.115 C 
ATOM     26  C   UNL     1      -5.377 -10.224  11.150  0.00  0.00    +0.115 C 
ATOM     27  C   UNL     1      -4.681  -9.697   9.150  0.00  0.00    +0.226 C 
ATOM     28  C   UNL     1      -4.635  -9.035   8.659  0.00  0.00    +0.095 C 
ATOM     29  O   UNL     1      -4.402 -10.426   8.885  0.00  0.00    -0.275 OA
ENDBRANCH  18  19
ENDBRANCH  17  18
TORSDOF 7
ENDMDL
MODEL 5
REMARK VINA RESULT:      -5.4     15.236     16.354
REMARK  Name = 
REMARK  7 active torsions:
REMARK  status: ('A' for Active; 'I' for Inactive)
REMARK    1  A    between atoms: O_2  and  C_3
REMARK    2  A    between atoms: C_6  and  C_9
REMARK    3  A    between atoms: N_11  and  C_12
REMARK    4  A    between atoms: C_12  and  C_13
REMARK    5  A    between atoms: C_17  and  C_18
REMARK    6  A    between atoms: C_18  and  C_19
REMARK    7  A    between atoms: C_31  and  C_32
REMARK                            x       y       z     vdW  Elec       q    Type
REMARK                         _______ _______ _______ _____ _____    ______ ____
ROOT
ATOM     13  C   UNL     1      -8.579 -10.100  13.912  0.00  0.00    +0.043 C 
ATOM     14  C   UNL     1      -7.902 -10.078  14.384  0.00  0.00    -0.033 C 
ATOM     15  C   UNL     1      -7.158 -10.010  14.036  0.00  0.00    -0.048 C 
ATOM     16  C   UNL     1      -6.481  -9.989  14.508  0.00  0.00    +0.026 C 
ATOM     17  C   UNL     1      -7.090  -9.964  13.215  0.00  0.00    +0.027 C 
ATOM     30  C   UNL     1      -7.767  -9.985  12.744  0.00  0.00    +0.005 C 
ATOM     31  C   UNL     1      -8.510 -10.053  13.092  0.00  0.00    +0.006 C 
ENDROOT
BRANCH  31  32
ATOM     32  C   UNL     1      -9.187 -10.074  12.620  0.00  0.00    +0.000 C 
ATOM     33  C   UNL     1      -9.635  -9.390  12.509  0.00  0.00    +0.000 C 
ATOM     34  C   UNL     1      -9.416 -10.779  12.259  0.00  0.00    +0.000 C 
ENDBRANCH  31  32
BRANCH  13  12
ATOM     12  C   UNL     1      -9.323 -10.168  14.262  0.00  0.00    +0.120 C 
BRANCH  12  11
ATOM      9  C   UNL     1     -10.110 -10.198  15.454  0.00  0.00    +0.265 C 
ATOM     10  O   UNL     1     -10.695 -10.624  15.057  0.00  0.00    -0.268 OA
ATOM     11  N   UNL     1      -9.425  -9.970  15.057  0.00  0.00    -0.201 NA
BRANCH   9   6
ATOM      3  C   UNL     1     -10.415  -9.606  17.837  0.00  0.00    +0.139 A 
ATOM      4  C   UNL     1     -10.152 -10.361  17.630  0.00  0.00    +0.037 A 
ATOM      5  C   UNL     1     -10.051 -10.558  16.836  0.00  0.00    +0.008 A 
ATOM      6  C   UNL     1     -10.212 -10.001  16.248  0.00  0.00    +0.055 A 
ATOM      7  C   UNL     1     -10.474  -9.247  16.456  0.00  0.00    +0.008 A 
ATOM      8  C   UNL     1     -10.576  -9.050  17.251  0.00  0.00    +0.037 A 
BRANCH   3   2
ATOM      1  C   UNL     1     -10.650 -10.001  19.191  0.00  0.00    +0.252 C 
ATOM      2  O   UNL     1     -10.516  -9.408  18.633  0.00  0.00    -0.471 OA
ENDBRANCH   3   2
ENDBRANCH   9   6
ENDBRANCH  12  11
ENDBRANCH  13  12
BRANCH  17  18
ATOM     18  C   UNL     1      -6.345  -9.895  12.866  0.00  0.00    +0.089 C 
BRANCH  18  19
ATOM     19  C   UNL     1      -6.198  -9.293  12.322  0.00  0.00    +0.226 C 
ATOM     20  O   UNL     1      -6.669  -8.616  12.320  0.00  0.00    -0.275 OA
ATOM     21  N   UNL     1      -5.580  -9.369  11.781  0.00  0.00    -0.276 N 
ATOM     22  C   UNL     1      -5.432  -8.766  11.236  0.00  0.00    +0.115 C 
ATOM     23  C   UNL     1      -4.815  -8.842  10.695  0.00  0.00    +0.115 C 
ATOM     24  N   UNL     1      -4.344  -9.519  10.698  0.00  0.00    -0.276 N 
ATOM     25  C   UNL     1      -4.492 -10.122  11.242  0.00  0.00    +0.115 C 
ATOM     26  C   UNL     1      -5.109 -10.046  11.783  0.00  0.00    +0.115 C 
ATOM     27  C   UNL     1      -3.726  -9.595  10.156  0.00  0.00    +0.226 C 
ATOM     28  C   UNL     1      -3.579  -8.992   9.612  0.00  0.00    +0.095 C 
ATOM     29  O   UNL     1      -3.256 -10.272  10.159  0.00  0.00    -0.275 OA
ENDBRANCH  18  19
ENDBRANCH  17  18
TORSDOF 7
ENDMDL
