REMARK  Name = 
REMARK  11 active torsions:
REMARK  status: ('A' for Active; 'I' for Inactive)
REMARK    1  A    between atoms: C_2  and  C_4
REMARK    2  A    between atoms: C_6  and  C_7
REMARK    3  A    between atoms: C_7  and  C_8
REMARK    4  A    between atoms: N_10  and  C_11
REMARK    5  A    between atoms: C_11  and  C_12
REMARK    6  A    between atoms: C_15  and  C_18
REMARK    7  A    between atoms: C_23  and  C_24
REMARK    8  A    between atoms: C_24  and  N_25
REMARK    9  A    between atoms: N_25  and  S_26
REMARK   10  A    between atoms: S_26  and  C_29
REMARK   11  A    between atoms: C_29  and  C_30
REMARK                            x       y       z     vdW  Elec       q    Type
REMARK                         _______ _______ _______ _____ _____    ______ ____
ROOT
ATOM      4  C   UNL     1       2.143  -5.362   0.000  0.00  0.00    +0.006 C 
ATOM      5  C   UNL     1       2.858  -4.950   0.000  0.00  0.00    +0.005 C 
ATOM      6  C   UNL     1       3.572  -5.362   0.000  0.00  0.00    +0.027 C 
ATOM     20  C   UNL     1       3.572  -6.188   0.000  0.00  0.00    -0.048 C 
ATOM     21  C   UNL     1       4.287  -6.600   0.000  0.00  0.00    +0.026 C 
ATOM     22  C   UNL     1       2.858  -6.600   0.000  0.00  0.00    -0.033 C 
ATOM     23  C   UNL     1       2.143  -6.188   0.000  0.00  0.00    +0.041 C 
ENDROOT
BRANCH   4   2
ATOM      1  C   UNL     1       0.715  -5.362   0.000  0.00  0.00    +0.000 C 
ATOM      2  C   UNL     1       1.429  -4.950   0.000  0.00  0.00    +0.000 C 
ATOM      3  C   UNL     1       1.429  -4.125   0.000  0.00  0.00    +0.000 C 
ENDBRANCH   4   2
BRANCH   6   7
ATOM      7  C   UNL     1       4.287  -4.950   0.000  0.00  0.00    +0.091 C 
BRANCH   7   8
ATOM      8  C   UNL     1       5.001  -5.362   0.000  0.00  0.00    +0.242 C 
ATOM      9  O   UNL     1       5.001  -6.188   0.000  0.00  0.00    -0.273 OA
ATOM     10  N   UNL     1       5.716  -4.950   0.000  0.00  0.00    -0.201 NA
BRANCH  10  11
ATOM     11  C   UNL     1       6.430  -5.362   0.000  0.00  0.00    +0.141 C 
BRANCH  11  12
ATOM     12  C   UNL     1       7.145  -4.950   0.000  0.00  0.00    -0.001 A 
ATOM     13  C   UNL     1       7.145  -4.125   0.000  0.00  0.00    -0.002 A 
ATOM     14  C   UNL     1       7.859  -3.712   0.000  0.00  0.00    +0.010 A 
ATOM     15  C   UNL     1       8.574  -4.125   0.000  0.00  0.00    +0.068 A 
ATOM     16  C   UNL     1       8.574  -4.950   0.000  0.00  0.00    +0.010 A 
ATOM     17  C   UNL     1       7.859  -5.362   0.000  0.00  0.00    -0.002 A 
BRANCH  15  18
ATOM     18  C   UNL     1       9.288  -3.712   0.000  0.00  0.00    +0.100 C 
ATOM     19  N   UNL     1      10.003  -3.300   0.000  0.00  0.00    -0.191 NA
ENDBRANCH  15  18
ENDBRANCH  11  12
ENDBRANCH  10  11
ENDBRANCH   7   8
ENDBRANCH   6   7
BRANCH  23  24
ATOM     24  C   UNL     1       1.429  -6.600   0.000  0.00  0.00    +0.119 C 
BRANCH  24  25
ATOM     25  N   UNL     1       0.715  -6.188   0.000  0.00  0.00    -0.081 NA
BRANCH  25  26
ATOM     26  S   UNL     1       0.000  -6.600   0.000  0.00  0.00    +0.062 S 
ATOM     27  O   UNL     1      -0.412  -5.886   0.000  0.00  0.00    -0.156 OA
ATOM     28  O   UNL     1       0.412  -7.314   0.000  0.00  0.00    -0.156 OA
BRANCH  26  29
ATOM     29  C   UNL     1      -0.715  -7.013   0.000  0.00  0.00    +0.197 C 
BRANCH  29  30
ATOM     30  C   UNL     1      -1.429  -6.600   0.000  0.00  0.00    +0.003 A 
ATOM     31  C   UNL     1      -2.143  -7.013   0.000  0.00  0.00    -0.003 A 
ATOM     32  C   UNL     1      -2.858  -6.600   0.000  0.00  0.00    -0.000 A 
ATOM     33  C   UNL     1      -2.858  -5.775   0.000  0.00  0.00    -0.000 A 
ATOM     34  C   UNL     1      -2.143  -5.362   0.000  0.00  0.00    -0.000 A 
ATOM     35  C   UNL     1      -1.429  -5.775   0.000  0.00  0.00    -0.003 A 
ENDBRANCH  29  30
ENDBRANCH  26  29
ENDBRANCH  25  26
ENDBRANCH  24  25
ENDBRANCH  23  24
TORSDOF 11
