MODEL 1
REMARK VINA RESULT:     -13.5      0.000      0.000
REMARK  Name = 
REMARK  4 active torsions:
REMARK  status: ('A' for Active; 'I' for Inactive)
REMARK    1  A    between atoms: O_2  and  C_3
REMARK    2  A    between atoms: C_6  and  C_9
REMARK    3  A    between atoms: C_16  and  C_17
REMARK    4  A    between atoms: C_19  and  C_22
REMARK                            x       y       z     vdW  Elec       q    Type
REMARK                         _______ _______ _______ _____ _____    ______ ____
ROOT
ATOM      9  C   UNL     1      -3.141   2.793  24.826  0.00  0.00    +0.250 C 
ATOM     10  O   UNL     1      -2.881   2.078  24.506  0.00  0.00    -0.270 OA
ATOM     11  N   UNL     1      -3.935   2.891  25.024  0.00  0.00    -0.263 N 
ATOM     12  C   UNL     1      -4.196   3.607  25.343  0.00  0.00    +0.141 C 
ATOM     13  C   UNL     1      -4.990   3.705  25.541  0.00  0.00    +0.094 A 
ATOM     14  C   UNL     1      -5.525   3.089  25.420  0.00  0.00    +0.078 A 
ATOM     15  C   UNL     1      -5.265   2.374  25.101  0.00  0.00    +0.077 C 
ATOM     16  C   UNL     1      -4.471   2.275  24.903  0.00  0.00    +0.161 C 
ATOM     32  N   UNL     1      -6.269   3.345  25.667  0.00  0.00    -0.227 NA
ATOM     33  C   UNL     1      -6.194   4.121  25.940  0.00  0.00    +0.198 A 
ATOM     34  N   UNL     1      -5.403   4.343  25.862  0.00  0.00    -0.225 NA
ENDROOT
BRANCH   9   6
ATOM      3  C   UNL     1      -1.533   4.639  25.189  0.00  0.00    +0.139 A 
ATOM      4  C   UNL     1      -1.620   4.050  25.760  0.00  0.00    +0.037 A 
ATOM      5  C   UNL     1      -2.156   3.435  25.638  0.00  0.00    +0.008 A 
ATOM      6  C   UNL     1      -2.606   3.409  24.946  0.00  0.00    +0.054 A 
ATOM      7  C   UNL     1      -2.518   3.998  24.376  0.00  0.00    +0.008 A 
ATOM      8  C   UNL     1      -1.982   4.613  24.497  0.00  0.00    +0.037 A 
BRANCH   3   2
ATOM      1  C   UNL     1      -0.613   5.600  24.667  0.00  0.00    +0.252 C 
ATOM      2  O   UNL     1      -0.997   5.254  25.310  0.00  0.00    -0.471 OA
ENDBRANCH   3   2
ENDBRANCH   9   6
BRANCH  16  17
ATOM     17  C   UNL     1      -4.211   1.560  24.584  0.00  0.00    +0.255 A 
ATOM     18  N   UNL     1      -4.150   0.843  24.988  0.00  0.00    -0.189 NA
ATOM     19  C   UNL     1      -3.868   0.276  24.458  0.00  0.00    +0.203 A 
ATOM     20  N   UNL     1      -3.755   0.643  23.728  0.00  0.00    -0.056 NA
ATOM     21  O   UNL     1      -3.968   1.436  23.805  0.00  0.00    -0.335 OA
BRANCH  19  22
ATOM     22  C   UNL     1      -3.724  -0.518  24.628  0.00  0.00    +0.039 A 
ATOM     23  C   UNL     1      -3.322  -0.725  25.320  0.00  0.00    +0.003 A 
ATOM     24  C   UNL     1      -3.178  -1.519  25.491  0.00  0.00    +0.000 A 
ATOM     25  C   UNL     1      -3.434  -2.106  24.972  0.00  0.00    +0.000 A 
ATOM     26  C   UNL     1      -3.290  -2.900  25.142  0.00  0.00    +0.000 A 
ATOM     27  C   UNL     1      -3.546  -3.487  24.623  0.00  0.00    +0.000 A 
ATOM     28  C   UNL     1      -3.947  -3.280  23.931  0.00  0.00    +0.000 A 
ATOM     29  C   UNL     1      -4.092  -2.486  23.761  0.00  0.00    +0.000 A 
ATOM     30  C   UNL     1      -3.835  -1.898  24.280  0.00  0.00    +0.000 A 
ATOM     31  C   UNL     1      -3.980  -1.105  24.109  0.00  0.00    +0.003 A 
ENDBRANCH  19  22
ENDBRANCH  16  17
TORSDOF 4
ENDMDL
MODEL 2
REMARK VINA RESULT:     -11.9      1.441      2.801
REMARK  Name = 
REMARK  4 active torsions:
REMARK  status: ('A' for Active; 'I' for Inactive)
REMARK    1  A    between atoms: O_2  and  C_3
REMARK    2  A    between atoms: C_6  and  C_9
REMARK    3  A    between atoms: C_16  and  C_17
REMARK    4  A    between atoms: C_19  and  C_22
REMARK                            x       y       z     vdW  Elec       q    Type
REMARK                         _______ _______ _______ _____ _____    ______ ____
ROOT
ATOM      9  C   UNL     1      -3.585   2.604  24.721  0.00  0.00    +0.250 C 
ATOM     10  O   UNL     1      -3.718   1.845  24.422  0.00  0.00    -0.270 OA
ATOM     11  N   UNL     1      -2.820   2.910  24.743  0.00  0.00    -0.263 N 
ATOM     12  C   UNL     1      -2.688   3.668  25.042  0.00  0.00    +0.141 C 
ATOM     13  C   UNL     1      -1.923   3.975  25.065  0.00  0.00    +0.094 A 
ATOM     14  C   UNL     1      -1.289   3.524  24.789  0.00  0.00    +0.078 A 
ATOM     15  C   UNL     1      -1.421   2.767  24.491  0.00  0.00    +0.077 C 
ATOM     16  C   UNL     1      -2.186   2.460  24.468  0.00  0.00    +0.161 C 
ATOM     32  N   UNL     1      -0.601   3.970  24.881  0.00  0.00    -0.227 NA
ATOM     33  C   UNL     1      -0.809   4.696  25.213  0.00  0.00    +0.198 A 
ATOM     34  N   UNL     1      -1.627   4.699  25.327  0.00  0.00    -0.225 NA
ENDROOT
BRANCH   9   6
ATOM      3  C   UNL     1      -5.488   3.952  25.549  0.00  0.00    +0.139 A 
ATOM      4  C   UNL     1      -5.155   3.369  26.030  0.00  0.00    +0.037 A 
ATOM      5  C   UNL     1      -4.521   2.920  25.753  0.00  0.00    +0.008 A 
ATOM      6  C   UNL     1      -4.219   3.053  24.996  0.00  0.00    +0.054 A 
ATOM      7  C   UNL     1      -4.553   3.636  24.517  0.00  0.00    +0.008 A 
ATOM      8  C   UNL     1      -5.187   4.085  24.794  0.00  0.00    +0.037 A 
BRANCH   3   2
ATOM      1  C   UNL     1      -6.248   5.162  25.534  0.00  0.00    +0.252 C 
ATOM      2  O   UNL     1      -6.122   4.401  25.826  0.00  0.00    -0.471 OA
ENDBRANCH   3   2
ENDBRANCH   9   6
BRANCH  16  17
ATOM     17  C   UNL     1      -2.318   1.702  24.169  0.00  0.00    +0.255 A 
ATOM     18  N   UNL     1      -2.312   1.002  24.604  0.00  0.00    -0.189 NA
ATOM     19  C   UNL     1      -2.469   0.379  24.086  0.00  0.00    +0.203 A 
ATOM     20  N   UNL     1      -2.571   0.694  23.331  0.00  0.00    -0.056 NA
ATOM     21  O   UNL     1      -2.478   1.512  23.382  0.00  0.00    -0.335 OA
BRANCH  19  22
ATOM     22  C   UNL     1      -2.515  -0.420  24.287  0.00  0.00    +0.039 A 
ATOM     23  C   UNL     1      -1.880  -0.788  24.666  0.00  0.00    +0.003 A 
ATOM     24  C   UNL     1      -1.926  -1.586  24.868  0.00  0.00    +0.000 A 
ATOM     25  C   UNL     1      -2.605  -2.017  24.691  0.00  0.00    +0.000 A 
ATOM     26  C   UNL     1      -2.652  -2.816  24.892  0.00  0.00    +0.000 A 
ATOM     27  C   UNL     1      -3.331  -3.248  24.715  0.00  0.00    +0.000 A 
ATOM     28  C   UNL     1      -3.966  -2.881  24.336  0.00  0.00    +0.000 A 
ATOM     29  C   UNL     1      -3.921  -2.083  24.135  0.00  0.00    +0.000 A 
ATOM     30  C   UNL     1      -3.241  -1.650  24.312  0.00  0.00    +0.000 A 
ATOM     31  C   UNL     1      -3.195  -0.852  24.110  0.00  0.00    +0.003 A 
ENDBRANCH  19  22
ENDBRANCH  16  17
TORSDOF 4
ENDMDL
MODEL 3
REMARK VINA RESULT:     -11.1      3.062      6.466
REMARK  Name = 
REMARK  4 active torsions:
REMARK  status: ('A' for Active; 'I' for Inactive)
REMARK    1  A    between atoms: O_2  and  C_3
REMARK    2  A    between atoms: C_6  and  C_9
REMARK    3  A    between atoms: C_16  and  C_17
REMARK    4  A    between atoms: C_19  and  C_22
REMARK                            x       y       z     vdW  Elec       q    Type
REMARK                         _______ _______ _______ _____ _____    ______ ____
ROOT
ATOM      9  C   UNL     1      -0.788   0.126  24.706  0.00  0.00    +0.250 C 
ATOM     10  O   UNL     1      -1.011   0.733  25.220  0.00  0.00    -0.270 OA
ATOM     11  N   UNL     1      -0.151   0.232  24.195  0.00  0.00    -0.263 N 
ATOM     12  C   UNL     1       0.072  -0.375  23.682  0.00  0.00    +0.141 C 
ATOM     13  C   UNL     1       0.710  -0.269  23.170  0.00  0.00    +0.094 A 
ATOM     14  C   UNL     1       1.125   0.444  23.170  0.00  0.00    +0.078 A 
ATOM     15  C   UNL     1       0.902   1.050  23.682  0.00  0.00    +0.077 C 
ATOM     16  C   UNL     1       0.265   0.945  24.195  0.00  0.00    +0.161 C 
ATOM     32  N   UNL     1       1.726   0.389  22.607  0.00  0.00    -0.227 NA
ATOM     33  C   UNL     1       1.682  -0.359  22.259  0.00  0.00    +0.198 A 
ATOM     34  N   UNL     1       1.054  -0.765  22.607  0.00  0.00    -0.225 NA
ENDROOT
BRANCH   9   6
ATOM      3  C   UNL     1      -2.038  -2.010  24.707  0.00  0.00    +0.139 A 
ATOM      4  C   UNL     1      -2.335  -1.359  24.297  0.00  0.00    +0.037 A 
ATOM      5  C   UNL     1      -1.918  -0.647  24.297  0.00  0.00    +0.008 A 
ATOM      6  C   UNL     1      -1.204  -0.586  24.707  0.00  0.00    +0.054 A 
ATOM      7  C   UNL     1      -0.908  -1.238  25.117  0.00  0.00    +0.008 A 
ATOM      8  C   UNL     1      -1.325  -1.950  25.117  0.00  0.00    +0.037 A 
BRANCH   3   2
ATOM      1  C   UNL     1      -3.279  -2.718  24.750  0.00  0.00    +0.252 C 
ATOM      2  O   UNL     1      -2.455  -2.722  24.707  0.00  0.00    -0.471 OA
ENDBRANCH   3   2
ENDBRANCH   9   6
BRANCH  16  17
ATOM     17  C   UNL     1       0.043   1.552  24.707  0.00  0.00    +0.255 A 
ATOM     18  N   UNL     1      -0.433   2.198  24.515  0.00  0.00    -0.189 NA
ATOM     19  C   UNL     1      -0.513   2.665  25.191  0.00  0.00    +0.203 A 
ATOM     20  N   UNL     1      -0.087   2.308  25.800  0.00  0.00    -0.056 NA
ATOM     21  O   UNL     1       0.257   1.619  25.501  0.00  0.00    -0.335 OA
BRANCH  19  22
ATOM     22  C   UNL     1      -0.943   3.367  25.249  0.00  0.00    +0.039 A 
ATOM     23  C   UNL     1      -0.628   4.069  24.950  0.00  0.00    +0.003 A 
ATOM     24  C   UNL     1      -1.058   4.771  25.007  0.00  0.00    +0.000 A 
ATOM     25  C   UNL     1      -1.801   4.771  25.362  0.00  0.00    +0.000 A 
ATOM     26  C   UNL     1      -2.232   5.473  25.420  0.00  0.00    +0.000 A 
ATOM     27  C   UNL     1      -2.976   5.473  25.775  0.00  0.00    +0.000 A 
ATOM     28  C   UNL     1      -3.291   4.770  26.074  0.00  0.00    +0.000 A 
ATOM     29  C   UNL     1      -2.861   4.069  26.017  0.00  0.00    +0.000 A 
ATOM     30  C   UNL     1      -2.116   4.068  25.661  0.00  0.00    +0.000 A 
ATOM     31  C   UNL     1      -1.687   3.367  25.604  0.00  0.00    +0.003 A 
ENDBRANCH  19  22
ENDBRANCH  16  17
TORSDOF 4
ENDMDL
MODEL 4
REMARK VINA RESULT:     -10.9      2.957      4.198
REMARK  Name = 
REMARK  4 active torsions:
REMARK  status: ('A' for Active; 'I' for Inactive)
REMARK    1  A    between atoms: O_2  and  C_3
REMARK    2  A    between atoms: C_6  and  C_9
REMARK    3  A    between atoms: C_16  and  C_17
REMARK    4  A    between atoms: C_19  and  C_22
REMARK                            x       y       z     vdW  Elec       q    Type
REMARK                         _______ _______ _______ _____ _____    ______ ____
ROOT
ATOM      9  C   UNL     1      -0.539   1.378  24.795  0.00  0.00    +0.250 C 
ATOM     10  O   UNL     1      -1.115   0.894  25.135  0.00  0.00    -0.270 OA
ATOM     11  N   UNL     1       0.086   1.042  24.374  0.00  0.00    -0.263 N 
ATOM     12  C   UNL     1       0.662   1.526  24.035  0.00  0.00    +0.141 C 
ATOM     13  C   UNL     1       1.286   1.191  23.614  0.00  0.00    +0.094 A 
ATOM     14  C   UNL     1       1.335   0.371  23.531  0.00  0.00    +0.078 A 
ATOM     15  C   UNL     1       0.759  -0.112  23.870  0.00  0.00    +0.077 C 
ATOM     16  C   UNL     1       0.135   0.222  24.291  0.00  0.00    +0.161 C 
ATOM     32  N   UNL     1       2.010   0.200  23.088  0.00  0.00    -0.227 NA
ATOM     33  C   UNL     1       2.378   0.913  22.897  0.00  0.00    +0.198 A 
ATOM     34  N   UNL     1       1.931   1.526  23.222  0.00  0.00    -0.225 NA
ENDROOT
BRANCH   9   6
ATOM      3  C   UNL     1      -0.687   3.835  25.047  0.00  0.00    +0.139 A 
ATOM      4  C   UNL     1      -0.309   3.383  25.625  0.00  0.00    +0.037 A 
ATOM      5  C   UNL     1      -0.259   2.564  25.541  0.00  0.00    +0.008 A 
ATOM      6  C   UNL     1      -0.588   2.197  24.879  0.00  0.00    +0.054 A 
ATOM      7  C   UNL     1      -0.966   2.649  24.302  0.00  0.00    +0.008 A 
ATOM      8  C   UNL     1      -1.016   3.468  24.386  0.00  0.00    +0.037 A 
BRANCH   3   2
ATOM      1  C   UNL     1      -1.474   5.023  25.155  0.00  0.00    +0.252 C 
ATOM      2  O   UNL     1      -0.736   4.654  25.132  0.00  0.00    -0.471 OA
ENDBRANCH   3   2
ENDBRANCH   9   6
BRANCH  16  17
ATOM     17  C   UNL     1      -0.441  -0.261  24.630  0.00  0.00    +0.255 A 
ATOM     18  N   UNL     1      -1.022  -0.682  24.223  0.00  0.00    -0.189 NA
ATOM     19  C   UNL     1      -1.477  -1.090  24.777  0.00  0.00    +0.203 A 
ATOM     20  N   UNL     1      -1.177  -0.923  25.527  0.00  0.00    -0.056 NA
ATOM     21  O   UNL     1      -0.536  -0.410  25.436  0.00  0.00    -0.335 OA
BRANCH  19  22
ATOM     22  C   UNL     1      -2.119  -1.581  24.611  0.00  0.00    +0.039 A 
ATOM     23  C   UNL     1      -2.051  -2.398  24.713  0.00  0.00    +0.003 A 
ATOM     24  C   UNL     1      -2.693  -2.888  24.547  0.00  0.00    +0.000 A 
ATOM     25  C   UNL     1      -3.402  -2.564  24.281  0.00  0.00    +0.000 A 
ATOM     26  C   UNL     1      -4.045  -3.054  24.115  0.00  0.00    +0.000 A 
ATOM     27  C   UNL     1      -4.754  -2.730  23.848  0.00  0.00    +0.000 A 
ATOM     28  C   UNL     1      -4.822  -1.913  23.747  0.00  0.00    +0.000 A 
ATOM     29  C   UNL     1      -4.180  -1.423  23.912  0.00  0.00    +0.000 A 
ATOM     30  C   UNL     1      -3.470  -1.747  24.179  0.00  0.00    +0.000 A 
ATOM     31  C   UNL     1      -2.829  -1.256  24.345  0.00  0.00    +0.003 A 
ENDBRANCH  19  22
ENDBRANCH  16  17
TORSDOF 4
ENDMDL
MODEL 5
REMARK VINA RESULT:     -10.5      2.992      5.164
REMARK  Name = 
REMARK  4 active torsions:
REMARK  status: ('A' for Active; 'I' for Inactive)
REMARK    1  A    between atoms: O_2  and  C_3
REMARK    2  A    between atoms: C_6  and  C_9
REMARK    3  A    between atoms: C_16  and  C_17
REMARK    4  A    between atoms: C_19  and  C_22
REMARK                            x       y       z     vdW  Elec       q    Type
REMARK                         _______ _______ _______ _____ _____    ______ ____
ROOT
ATOM      9  C   UNL     1      -0.731   0.559  23.751  0.00  0.00    +0.250 C 
ATOM     10  O   UNL     1      -1.230   1.179  23.530  0.00  0.00    -0.270 OA
ATOM     11  N   UNL     1      -1.036  -0.092  24.154  0.00  0.00    -0.263 N 
ATOM     12  C   UNL     1      -0.537  -0.712  24.375  0.00  0.00    +0.141 C 
ATOM     13  C   UNL     1      -0.842  -1.363  24.777  0.00  0.00    +0.094 A 
ATOM     14  C   UNL     1      -1.646  -1.396  24.960  0.00  0.00    +0.078 A 
ATOM     15  C   UNL     1      -2.144  -0.778  24.739  0.00  0.00    +0.077 C 
ATOM     16  C   UNL     1      -1.840  -0.126  24.336  0.00  0.00    +0.161 C 
ATOM     32  N   UNL     1      -1.788  -2.104  25.358  0.00  0.00    -0.227 NA
ATOM     33  C   UNL     1      -1.071  -2.509  25.423  0.00  0.00    +0.198 A 
ATOM     34  N   UNL     1      -0.487  -2.051  25.063  0.00  0.00    -0.225 NA
ENDROOT
BRANCH   9   6
ATOM      3  C   UNL     1       1.681   0.664  23.205  0.00  0.00    +0.139 A 
ATOM      4  C   UNL     1       1.375   1.131  23.812  0.00  0.00    +0.037 A 
ATOM      5  C   UNL     1       0.571   1.096  23.994  0.00  0.00    +0.008 A 
ATOM      6  C   UNL     1       0.073   0.594  23.568  0.00  0.00    +0.054 A 
ATOM      7  C   UNL     1       0.380   0.127  22.961  0.00  0.00    +0.008 A 
ATOM      8  C   UNL     1       1.183   0.162  22.780  0.00  0.00    +0.037 A 
BRANCH   3   2
ATOM      1  C   UNL     1       2.794   0.222  22.425  0.00  0.00    +0.252 C 
ATOM      2  O   UNL     1       2.485   0.699  23.023  0.00  0.00    -0.471 OA
ENDBRANCH   3   2
ENDBRANCH   9   6
BRANCH  16  17
ATOM     17  C   UNL     1      -2.339   0.493  24.115  0.00  0.00    +0.255 A 
ATOM     18  N   UNL     1      -2.706   1.026  24.627  0.00  0.00    -0.189 NA
ATOM     19  C   UNL     1      -3.153   1.549  24.171  0.00  0.00    +0.203 A 
ATOM     20  N   UNL     1      -3.062   1.341  23.379  0.00  0.00    -0.056 NA
ATOM     21  O   UNL     1      -2.559   0.687  23.344  0.00  0.00    -0.335 OA
BRANCH  19  22
ATOM     22  C   UNL     1      -3.611   2.173  24.458  0.00  0.00    +0.039 A 
ATOM     23  C   UNL     1      -3.334   2.949  24.399  0.00  0.00    +0.003 A 
ATOM     24  C   UNL     1      -3.791   3.573  24.685  0.00  0.00    +0.000 A 
ATOM     25  C   UNL     1      -4.524   3.422  25.031  0.00  0.00    +0.000 A 
ATOM     26  C   UNL     1      -4.982   4.046  25.317  0.00  0.00    +0.000 A 
ATOM     27  C   UNL     1      -5.715   3.895  25.663  0.00  0.00    +0.000 A 
ATOM     28  C   UNL     1      -5.992   3.119  25.723  0.00  0.00    +0.000 A 
ATOM     29  C   UNL     1      -5.535   2.496  25.436  0.00  0.00    +0.000 A 
ATOM     30  C   UNL     1      -4.801   2.646  25.090  0.00  0.00    +0.000 A 
ATOM     31  C   UNL     1      -4.344   2.023  24.804  0.00  0.00    +0.003 A 
ENDBRANCH  19  22
ENDBRANCH  16  17
TORSDOF 4
ENDMDL
