MODEL 1
REMARK VINA RESULT:     -11.8      0.000      0.000
REMARK  Name = 
REMARK  5 active torsions:
REMARK  status: ('A' for Active; 'I' for Inactive)
REMARK    1  A    between atoms: C_4  and  C_15
REMARK    2  A    between atoms: C_6  and  C_8
REMARK    3  A    between atoms: C_22  and  C_23
REMARK    4  A    between atoms: C_23  and  N_24
REMARK    5  A    between atoms: C_25  and  C_27
REMARK                            x       y       z     vdW  Elec       q    Type
REMARK                         _______ _______ _______ _____ _____    ______ ____
ROOT
ATOM     15  C   UNL     1      -2.918   1.321  24.489  0.00  0.00    +0.056 C 
ATOM     16  C   UNL     1      -2.511   1.528  25.119  0.00  0.00    +0.078 C 
ATOM     17  N   UNL     1      -2.382   1.791  24.347  0.00  0.00    -0.272 NA
ATOM     18  C   UNL     1      -3.096   1.325  23.737  0.00  0.00    +0.072 C 
ATOM     19  C   UNL     1      -3.362   1.225  23.149  0.00  0.00    +0.018 C 
ATOM     20  C   UNL     1      -2.784   1.583  23.734  0.00  0.00    +0.010 C 
ATOM     21  C   UNL     1      -2.192   2.138  23.401  0.00  0.00    +0.018 C 
ATOM     22  C   UNL     1      -1.769   2.367  23.993  0.00  0.00    +0.079 C 
ENDROOT
BRANCH  15   4
ATOM      1  C   UNL     1      -5.671   0.812  25.067  0.00  0.00    +0.074 C 
ATOM      2  C   UNL     1      -4.915   0.533  24.887  0.00  0.00    +0.139 A 
ATOM      3  N   UNL     1      -4.295   1.066  24.778  0.00  0.00    -0.235 NA
ATOM      4  C   UNL     1      -3.539   0.787  24.598  0.00  0.00    +0.063 A 
ATOM      5  C   UNL     1      -3.403  -0.023  24.528  0.00  0.00    +0.034 A 
ATOM      6  C   UNL     1      -4.024  -0.555  24.637  0.00  0.00    +0.084 A 
ATOM      7  N   UNL     1      -4.779  -0.278  24.817  0.00  0.00    -0.231 NA
BRANCH   6   8
ATOM      8  C   UNL     1      -3.889  -1.366  24.567  0.00  0.00    +0.024 A 
ATOM      9  C   UNL     1      -3.568  -1.787  25.200  0.00  0.00    +0.036 A 
ATOM     10 BR   UNL     1      -3.381  -1.397  25.902  0.00  0.00    -0.049 Br
ATOM     11  C   UNL     1      -3.433  -2.598  25.131  0.00  0.00    +0.007 A 
ATOM     12  C   UNL     1      -3.619  -2.988  24.427  0.00  0.00    +0.001 A 
ATOM     13  C   UNL     1      -3.940  -2.568  23.795  0.00  0.00    +0.000 A 
ATOM     14  C   UNL     1      -4.075  -1.757  23.865  0.00  0.00    +0.002 A 
ENDBRANCH   6   8
ENDBRANCH  15   4
BRANCH  22  23
ATOM     23  C   UNL     1      -1.132   2.850  24.195  0.00  0.00    +0.131 C 
BRANCH  23  24
ATOM     24  N   UNL     1      -1.242   3.664  24.279  0.00  0.00    -0.204 NA
ATOM     25  C   UNL     1      -0.727   4.102  24.753  0.00  0.00    +0.241 C 
ATOM     26  O   UNL     1      -0.104   3.727  25.141  0.00  0.00    -0.273 OA
BRANCH  25  27
ATOM     27  C   UNL     1      -0.837   4.915  24.837  0.00  0.00    +0.078 C 
ATOM     28  C   UNL     1      -1.284   5.551  25.113  0.00  0.00    +0.010 C 
ATOM     29  C   UNL     1      -0.579   5.688  24.707  0.00  0.00    +0.010 C 
ENDBRANCH  25  27
ENDBRANCH  23  24
ENDBRANCH  22  23
TORSDOF 5
ENDMDL
MODEL 2
REMARK VINA RESULT:     -11.4      2.393      5.314
REMARK  Name = 
REMARK  5 active torsions:
REMARK  status: ('A' for Active; 'I' for Inactive)
REMARK    1  A    between atoms: C_4  and  C_15
REMARK    2  A    between atoms: C_6  and  C_8
REMARK    3  A    between atoms: C_22  and  C_23
REMARK    4  A    between atoms: C_23  and  N_24
REMARK    5  A    between atoms: C_25  and  C_27
REMARK                            x       y       z     vdW  Elec       q    Type
REMARK                         _______ _______ _______ _____ _____    ______ ____
ROOT
ATOM     15  C   UNL     1      -1.418   1.153  24.701  0.00  0.00    +0.056 C 
ATOM     16  C   UNL     1      -1.792   0.783  24.128  0.00  0.00    +0.078 C 
ATOM     17  N   UNL     1      -1.357   0.430  24.734  0.00  0.00    -0.272 NA
ATOM     18  C   UNL     1      -0.984   1.202  25.337  0.00  0.00    +0.072 C 
ATOM     19  C   UNL     1      -0.639   1.402  25.855  0.00  0.00    +0.018 C 
ATOM     20  C   UNL     1      -0.993   0.800  25.292  0.00  0.00    +0.010 C 
ATOM     21  C   UNL     1      -0.825  -0.042  25.473  0.00  0.00    +0.018 C 
ATOM     22  C   UNL     1      -1.178  -0.444  24.927  0.00  0.00    +0.079 C 
ENDROOT
BRANCH  15   4
ATOM      1  C   UNL     1      -0.243   3.693  24.117  0.00  0.00    +0.074 C 
ATOM      2  C   UNL     1      -0.870   3.248  24.415  0.00  0.00    +0.139 A 
ATOM      3  N   UNL     1      -0.831   2.424  24.409  0.00  0.00    -0.235 NA
ATOM      4  C   UNL     1      -1.458   1.979  24.707  0.00  0.00    +0.063 A 
ATOM      5  C   UNL     1      -2.125   2.357  25.011  0.00  0.00    +0.034 A 
ATOM      6  C   UNL     1      -2.164   3.180  25.017  0.00  0.00    +0.084 A 
ATOM      7  N   UNL     1      -1.538   3.626  24.719  0.00  0.00    -0.231 NA
BRANCH   6   8
ATOM      8  C   UNL     1      -2.831   3.560  25.320  0.00  0.00    +0.024 A 
ATOM      9  C   UNL     1      -3.493   3.677  24.841  0.00  0.00    +0.036 A 
ATOM     10 BR   UNL     1      -3.487   3.415  24.059  0.00  0.00    -0.049 Br
ATOM     11  C   UNL     1      -4.160   4.056  25.144  0.00  0.00    +0.007 A 
ATOM     12  C   UNL     1      -4.165   4.318  25.927  0.00  0.00    +0.001 A 
ATOM     13  C   UNL     1      -3.504   4.201  26.405  0.00  0.00    +0.000 A 
ATOM     14  C   UNL     1      -2.837   3.821  26.102  0.00  0.00    +0.002 A 
ENDBRANCH   6   8
ENDBRANCH  15   4
BRANCH  22  23
ATOM     23  C   UNL     1      -1.315  -1.214  24.667  0.00  0.00    +0.131 C 
BRANCH  23  24
ATOM     24  N   UNL     1      -2.064  -1.550  24.749  0.00  0.00    -0.204 NA
ATOM     25  C   UNL     1      -2.209  -2.308  24.459  0.00  0.00    +0.241 C 
ATOM     26  O   UNL     1      -1.606  -2.730  24.087  0.00  0.00    -0.273 OA
BRANCH  25  27
ATOM     27  C   UNL     1      -2.958  -2.645  24.542  0.00  0.00    +0.078 C 
ATOM     28  C   UNL     1      -3.537  -2.991  25.016  0.00  0.00    +0.010 C 
ATOM     29  C   UNL     1      -3.676  -2.880  24.210  0.00  0.00    +0.010 C 
ENDBRANCH  25  27
ENDBRANCH  23  24
ENDBRANCH  22  23
TORSDOF 5
ENDMDL
MODEL 3
REMARK VINA RESULT:     -11.3      3.318      3.852
REMARK  Name = 
REMARK  5 active torsions:
REMARK  status: ('A' for Active; 'I' for Inactive)
REMARK    1  A    between atoms: C_4  and  C_15
REMARK    2  A    between atoms: C_6  and  C_8
REMARK    3  A    between atoms: C_22  and  C_23
REMARK    4  A    between atoms: C_23  and  N_24
REMARK    5  A    between atoms: C_25  and  C_27
REMARK                            x       y       z     vdW  Elec       q    Type
REMARK                         _______ _______ _______ _____ _____    ______ ____
ROOT
ATOM     15  C   UNL     1      -0.356  -0.443  24.148  0.00  0.00    +0.056 C 
ATOM     16  C   UNL     1       0.070  -1.033  23.871  0.00  0.00    +0.078 C 
ATOM     17  N   UNL     1       0.186  -0.232  23.711  0.00  0.00    -0.272 NA
ATOM     18  C   UNL     1      -0.552   0.298  24.235  0.00  0.00    +0.072 C 
ATOM     19  C   UNL     1      -0.834   0.863  24.403  0.00  0.00    +0.018 C 
ATOM     20  C   UNL     1      -0.235   0.341  23.987  0.00  0.00    +0.010 C 
ATOM     21  C   UNL     1       0.359   0.755  23.491  0.00  0.00    +0.018 C 
ATOM     22  C   UNL     1       0.801   0.206  23.199  0.00  0.00    +0.079 C 
ENDROOT
BRANCH  15   4
ATOM      1  C   UNL     1      -1.430  -0.690  26.785  0.00  0.00    +0.074 C 
ATOM      2  C   UNL     1      -1.521  -0.756  25.968  0.00  0.00    +0.139 A 
ATOM      3  N   UNL     1      -0.894  -0.567  25.467  0.00  0.00    -0.235 NA
ATOM      4  C   UNL     1      -0.984  -0.633  24.649  0.00  0.00    +0.063 A 
ATOM      5  C   UNL     1      -1.701  -0.889  24.333  0.00  0.00    +0.034 A 
ATOM      6  C   UNL     1      -2.328  -1.078  24.833  0.00  0.00    +0.084 A 
ATOM      7  N   UNL     1      -2.239  -1.012  25.651  0.00  0.00    -0.231 NA
BRANCH   6   8
ATOM      8  C   UNL     1      -3.046  -1.334  24.518  0.00  0.00    +0.024 A 
ATOM      9  C   UNL     1      -3.195  -2.141  24.432  0.00  0.00    +0.036 A 
ATOM     10 BR   UNL     1      -2.625  -2.692  24.662  0.00  0.00    -0.049 Br
ATOM     11  C   UNL     1      -3.912  -2.398  24.116  0.00  0.00    +0.007 A 
ATOM     12  C   UNL     1      -4.482  -1.847  23.886  0.00  0.00    +0.001 A 
ATOM     13  C   UNL     1      -4.334  -1.040  23.972  0.00  0.00    +0.000 A 
ATOM     14  C   UNL     1      -3.616  -0.783  24.288  0.00  0.00    +0.002 A 
ENDBRANCH   6   8
ENDBRANCH  15   4
BRANCH  22  23
ATOM     23  C   UNL     1       1.452   0.081  22.708  0.00  0.00    +0.131 C 
BRANCH  23  24
ATOM     24  N   UNL     1       2.202   0.329  22.945  0.00  0.00    -0.204 NA
ATOM     25  C   UNL     1       2.837   0.279  22.422  0.00  0.00    +0.241 C 
ATOM     26  O   UNL     1       2.723  -0.019  21.661  0.00  0.00    -0.273 OA
BRANCH  25  27
ATOM     27  C   UNL     1       3.587   0.526  22.659  0.00  0.00    +0.078 C 
ATOM     28  C   UNL     1       4.178   1.102  22.676  0.00  0.00    +0.010 C 
ATOM     29  C   UNL     1       4.297   0.379  23.054  0.00  0.00    +0.010 C 
ENDBRANCH  25  27
ENDBRANCH  23  24
ENDBRANCH  22  23
TORSDOF 5
ENDMDL
MODEL 4
REMARK VINA RESULT:     -11.2      2.143      5.258
REMARK  Name = 
REMARK  5 active torsions:
REMARK  status: ('A' for Active; 'I' for Inactive)
REMARK    1  A    between atoms: C_4  and  C_15
REMARK    2  A    between atoms: C_6  and  C_8
REMARK    3  A    between atoms: C_22  and  C_23
REMARK    4  A    between atoms: C_23  and  N_24
REMARK    5  A    between atoms: C_25  and  C_27
REMARK                            x       y       z     vdW  Elec       q    Type
REMARK                         _______ _______ _______ _____ _____    ______ ____
ROOT
ATOM     15  C   UNL     1      -3.845   1.463  24.263  0.00  0.00    +0.056 C 
ATOM     16  C   UNL     1      -3.520   1.024  23.710  0.00  0.00    +0.078 C 
ATOM     17  N   UNL     1      -4.064   0.770  24.276  0.00  0.00    -0.272 NA
ATOM     18  C   UNL     1      -4.305   1.601  24.868  0.00  0.00    +0.072 C 
ATOM     19  C   UNL     1      -4.635   1.869  25.364  0.00  0.00    +0.018 C 
ATOM     20  C   UNL     1      -4.379   1.207  24.815  0.00  0.00    +0.010 C 
ATOM     21  C   UNL     1      -4.740   0.421  24.964  0.00  0.00    +0.018 C 
ATOM     22  C   UNL     1      -4.443  -0.044  24.437  0.00  0.00    +0.079 C 
ENDROOT
BRANCH  15   4
ATOM      1  C   UNL     1      -4.510   4.223  23.925  0.00  0.00    +0.074 C 
ATOM      2  C   UNL     1      -3.960   3.639  24.121  0.00  0.00    +0.139 A 
ATOM      3  N   UNL     1      -4.177   2.844  24.094  0.00  0.00    -0.235 NA
ATOM      4  C   UNL     1      -3.628   2.260  24.290  0.00  0.00    +0.063 A 
ATOM      5  C   UNL     1      -2.863   2.471  24.512  0.00  0.00    +0.034 A 
ATOM      6  C   UNL     1      -2.646   3.266  24.538  0.00  0.00    +0.084 A 
ATOM      7  N   UNL     1      -3.194   3.850  24.343  0.00  0.00    -0.231 NA
BRANCH   6   8
ATOM      8  C   UNL     1      -1.880   3.478  24.760  0.00  0.00    +0.024 A 
ATOM      9  C   UNL     1      -1.756   3.908  25.454  0.00  0.00    +0.036 A 
ATOM     10 BR   UNL     1      -2.397   4.125  25.924  0.00  0.00    -0.049 Br
ATOM     11  C   UNL     1      -0.990   4.121  25.676  0.00  0.00    +0.007 A 
ATOM     12  C   UNL     1      -0.349   3.903  25.205  0.00  0.00    +0.001 A 
ATOM     13  C   UNL     1      -0.473   3.473  24.512  0.00  0.00    +0.000 A 
ATOM     14  C   UNL     1      -1.238   3.261  24.290  0.00  0.00    +0.002 A 
ENDBRANCH   6   8
ENDBRANCH  15   4
BRANCH  22  23
ATOM     23  C   UNL     1      -4.457  -0.824  24.170  0.00  0.00    +0.131 C 
BRANCH  23  24
ATOM     24  N   UNL     1      -3.919  -1.373  24.471  0.00  0.00    -0.204 NA
ATOM     25  C   UNL     1      -3.916  -2.146  24.183  0.00  0.00    +0.241 C 
ATOM     26  O   UNL     1      -4.448  -2.370  23.595  0.00  0.00    -0.273 OA
BRANCH  25  27
ATOM     27  C   UNL     1      -3.378  -2.695  24.484  0.00  0.00    +0.078 C 
ATOM     28  C   UNL     1      -2.609  -2.989  24.533  0.00  0.00    +0.010 C 
ATOM     29  C   UNL     1      -3.217  -3.352  24.956  0.00  0.00    +0.010 C 
ENDBRANCH  25  27
ENDBRANCH  23  24
ENDBRANCH  22  23
TORSDOF 5
ENDMDL
MODEL 5
REMARK VINA RESULT:     -11.1      3.048      4.455
REMARK  Name = 
REMARK  5 active torsions:
REMARK  status: ('A' for Active; 'I' for Inactive)
REMARK    1  A    between atoms: C_4  and  C_15
REMARK    2  A    between atoms: C_6  and  C_8
REMARK    3  A    between atoms: C_22  and  C_23
REMARK    4  A    between atoms: C_23  and  N_24
REMARK    5  A    between atoms: C_25  and  C_27
REMARK                            x       y       z     vdW  Elec       q    Type
REMARK                         _______ _______ _______ _____ _____    ______ ____
ROOT
ATOM     15  C   UNL     1      -1.148   0.681  23.945  0.00  0.00    +0.056 C 
ATOM     16  C   UNL     1      -1.023   0.879  23.203  0.00  0.00    +0.078 C 
ATOM     17  N   UNL     1      -0.513   0.443  23.683  0.00  0.00    -0.272 NA
ATOM     18  C   UNL     1      -0.974   0.351  24.621  0.00  0.00    +0.072 C 
ATOM     19  C   UNL     1      -0.970   0.132  25.236  0.00  0.00    +0.018 C 
ATOM     20  C   UNL     1      -0.643   0.253  24.410  0.00  0.00    +0.010 C 
ATOM     21  C   UNL     1       0.144  -0.102  24.252  0.00  0.00    +0.018 C 
ATOM     22  C   UNL     1       0.305   0.071  23.526  0.00  0.00    +0.079 C 
ENDROOT
BRANCH  15   4
ATOM      1  C   UNL     1      -3.773   0.089  24.909  0.00  0.00    +0.074 C 
ATOM      2  C   UNL     1      -3.169   0.633  24.770  0.00  0.00    +0.139 A 
ATOM      3  N   UNL     1      -2.461   0.385  24.427  0.00  0.00    -0.235 NA
ATOM      4  C   UNL     1      -1.857   0.930  24.288  0.00  0.00    +0.063 A 
ATOM      5  C   UNL     1      -1.961   1.722  24.492  0.00  0.00    +0.034 A 
ATOM      6  C   UNL     1      -2.669   1.970  24.834  0.00  0.00    +0.084 A 
ATOM      7  N   UNL     1      -3.273   1.426  24.974  0.00  0.00    -0.231 NA
BRANCH   6   8
ATOM      8  C   UNL     1      -2.773   2.763  25.038  0.00  0.00    +0.024 A 
ATOM      9  C   UNL     1      -3.261   3.245  24.580  0.00  0.00    +0.036 A 
ATOM     10 BR   UNL     1      -3.643   2.935  23.918  0.00  0.00    -0.049 Br
ATOM     11  C   UNL     1      -3.367   4.038  24.783  0.00  0.00    +0.007 A 
ATOM     12  C   UNL     1      -2.984   4.348  25.446  0.00  0.00    +0.001 A 
ATOM     13  C   UNL     1      -2.496   3.866  25.903  0.00  0.00    +0.000 A 
ATOM     14  C   UNL     1      -2.391   3.073  25.700  0.00  0.00    +0.002 A 
ENDBRANCH   6   8
ENDBRANCH  15   4
BRANCH  22  23
ATOM     23  C   UNL     1       0.880  -0.023  22.943  0.00  0.00    +0.131 C 
BRANCH  23  24
ATOM     24  N   UNL     1       1.651   0.240  23.076  0.00  0.00    -0.204 NA
ATOM     25  C   UNL     1       2.223   0.153  22.489  0.00  0.00    +0.241 C 
ATOM     26  O   UNL     1       2.026  -0.197  21.769  0.00  0.00    -0.273 OA
BRANCH  25  27
ATOM     27  C   UNL     1       2.994   0.416  22.623  0.00  0.00    +0.078 C 
ATOM     28  C   UNL     1       3.526   1.033  22.751  0.00  0.00    +0.010 C 
ATOM     29  C   UNL     1       3.796   0.254  22.725  0.00  0.00    +0.010 C 
ENDBRANCH  25  27
ENDBRANCH  23  24
ENDBRANCH  22  23
TORSDOF 5
ENDMDL
MODEL 6
REMARK VINA RESULT:     -11.0      1.790      2.344
REMARK  Name = 
REMARK  5 active torsions:
REMARK  status: ('A' for Active; 'I' for Inactive)
REMARK    1  A    between atoms: C_4  and  C_15
REMARK    2  A    between atoms: C_6  and  C_8
REMARK    3  A    between atoms: C_22  and  C_23
REMARK    4  A    between atoms: C_23  and  N_24
REMARK    5  A    between atoms: C_25  and  C_27
REMARK                            x       y       z     vdW  Elec       q    Type
REMARK                         _______ _______ _______ _____ _____    ______ ____
ROOT
ATOM     15  C   UNL     1      -0.861   0.690  24.923  0.00  0.00    +0.056 C 
ATOM     16  C   UNL     1      -1.071   1.123  25.534  0.00  0.00    +0.078 C 
ATOM     17  N   UNL     1      -0.641   1.381  24.878  0.00  0.00    -0.272 NA
ATOM     18  C   UNL     1      -0.525   0.558  24.240  0.00  0.00    +0.072 C 
ATOM     19  C   UNL     1      -0.298   0.296  23.686  0.00  0.00    +0.018 C 
ATOM     20  C   UNL     1      -0.438   0.950  24.283  0.00  0.00    +0.010 C 
ATOM     21  C   UNL     1      -0.104   1.736  24.079  0.00  0.00    +0.018 C 
ATOM     22  C   UNL     1      -0.291   2.195  24.660  0.00  0.00    +0.079 C 
ENDROOT
BRANCH  15   4
ATOM      1  C   UNL     1      -0.216  -2.067  25.321  0.00  0.00    +0.074 C 
ATOM      2  C   UNL     1      -0.765  -1.482  25.125  0.00  0.00    +0.139 A 
ATOM      3  N   UNL     1      -0.539  -0.689  25.122  0.00  0.00    -0.235 NA
ATOM      4  C   UNL     1      -1.087  -0.105  24.926  0.00  0.00    +0.063 A 
ATOM      5  C   UNL     1      -1.861  -0.313  24.734  0.00  0.00    +0.034 A 
ATOM      6  C   UNL     1      -2.088  -1.106  24.738  0.00  0.00    +0.084 A 
ATOM      7  N   UNL     1      -1.540  -1.691  24.933  0.00  0.00    -0.231 NA
BRANCH   6   8
ATOM      8  C   UNL     1      -2.862  -1.316  24.546  0.00  0.00    +0.024 A 
ATOM      9  C   UNL     1      -3.414  -1.447  25.145  0.00  0.00    +0.036 A 
ATOM     10 BR   UNL     1      -3.191  -1.368  25.935  0.00  0.00    -0.049 Br
ATOM     11  C   UNL     1      -4.189  -1.657  24.954  0.00  0.00    +0.007 A 
ATOM     12  C   UNL     1      -4.412  -1.735  24.163  0.00  0.00    +0.001 A 
ATOM     13  C   UNL     1      -3.860  -1.604  23.565  0.00  0.00    +0.000 A 
ATOM     14  C   UNL     1      -3.085  -1.394  23.756  0.00  0.00    +0.002 A 
ENDBRANCH   6   8
ENDBRANCH  15   4
BRANCH  22  23
ATOM     23  C   UNL     1      -0.219   2.971  24.930  0.00  0.00    +0.131 C 
BRANCH  23  24
ATOM     24  N   UNL     1      -0.889   3.447  25.003  0.00  0.00    -0.204 NA
ATOM     25  C   UNL     1      -0.807   4.261  25.102  0.00  0.00    +0.241 C 
ATOM     26  O   UNL     1      -0.056   4.601  25.127  0.00  0.00    -0.273 OA
BRANCH  25  27
ATOM     27  C   UNL     1      -1.477   4.737  25.174  0.00  0.00    +0.078 C 
ATOM     28  C   UNL     1      -2.267   4.830  25.392  0.00  0.00    +0.010 C 
ATOM     29  C   UNL     1      -1.847   5.469  25.083  0.00  0.00    +0.010 C 
ENDBRANCH  25  27
ENDBRANCH  23  24
ENDBRANCH  22  23
TORSDOF 5
ENDMDL
MODEL 7
REMARK VINA RESULT:     -11.0      2.843      4.157
REMARK  Name = 
REMARK  5 active torsions:
REMARK  status: ('A' for Active; 'I' for Inactive)
REMARK    1  A    between atoms: C_4  and  C_15
REMARK    2  A    between atoms: C_6  and  C_8
REMARK    3  A    between atoms: C_22  and  C_23
REMARK    4  A    between atoms: C_23  and  N_24
REMARK    5  A    between atoms: C_25  and  C_27
REMARK                            x       y       z     vdW  Elec       q    Type
REMARK                         _______ _______ _______ _____ _____    ______ ____
ROOT
ATOM     15  C   UNL     1      -1.102   1.492  24.262  0.00  0.00    +0.056 C 
ATOM     16  C   UNL     1      -0.949   1.649  23.515  0.00  0.00    +0.078 C 
ATOM     17  N   UNL     1      -0.595   1.059  23.971  0.00  0.00    -0.272 NA
ATOM     18  C   UNL     1      -1.021   1.110  24.928  0.00  0.00    +0.072 C 
ATOM     19  C   UNL     1      -1.066   0.892  25.542  0.00  0.00    +0.018 C 
ATOM     20  C   UNL     1      -0.751   0.910  24.703  0.00  0.00    +0.010 C 
ATOM     21  C   UNL     1      -0.136   0.315  24.508  0.00  0.00    +0.018 C 
ATOM     22  C   UNL     1       0.044   0.437  23.776  0.00  0.00    +0.079 C 
ENDROOT
BRANCH  15   4
ATOM      1  C   UNL     1      -1.777   3.731  25.905  0.00  0.00    +0.074 C 
ATOM      2  C   UNL     1      -2.009   3.077  25.459  0.00  0.00    +0.139 A 
ATOM      3  N   UNL     1      -1.440   2.612  25.084  0.00  0.00    -0.235 NA
ATOM      4  C   UNL     1      -1.672   1.958  24.637  0.00  0.00    +0.063 A 
ATOM      5  C   UNL     1      -2.471   1.768  24.566  0.00  0.00    +0.034 A 
ATOM      6  C   UNL     1      -3.039   2.234  24.940  0.00  0.00    +0.084 A 
ATOM      7  N   UNL     1      -2.809   2.888  25.387  0.00  0.00    -0.231 NA
BRANCH   6   8
ATOM      8  C   UNL     1      -3.839   2.045  24.869  0.00  0.00    +0.024 A 
ATOM      9  C   UNL     1      -4.325   2.491  24.372  0.00  0.00    +0.036 A 
ATOM     10 BR   UNL     1      -4.010   3.124  23.948  0.00  0.00    -0.049 Br
ATOM     11  C   UNL     1      -5.126   2.303  24.301  0.00  0.00    +0.007 A 
ATOM     12  C   UNL     1      -5.440   1.669  24.726  0.00  0.00    +0.001 A 
ATOM     13  C   UNL     1      -4.954   1.225  25.222  0.00  0.00    +0.000 A 
ATOM     14  C   UNL     1      -4.154   1.412  25.294  0.00  0.00    +0.002 A 
ENDBRANCH   6   8
ENDBRANCH  15   4
BRANCH  22  23
ATOM     23  C   UNL     1       0.530   0.166  23.168  0.00  0.00    +0.131 C 
BRANCH  23  24
ATOM     24  N   UNL     1       1.342   0.305  23.196  0.00  0.00    -0.204 NA
ATOM     25  C   UNL     1       1.823   0.063  22.570  0.00  0.00    +0.241 C 
ATOM     26  O   UNL     1       1.491  -0.316  21.917  0.00  0.00    -0.273 OA
BRANCH  25  27
ATOM     27  C   UNL     1       2.636   0.201  22.598  0.00  0.00    +0.078 C 
ATOM     28  C   UNL     1       3.272   0.726  22.591  0.00  0.00    +0.010 C 
ATOM     29  C   UNL     1       3.408  -0.085  22.653  0.00  0.00    +0.010 C 
ENDBRANCH  25  27
ENDBRANCH  23  24
ENDBRANCH  22  23
TORSDOF 5
ENDMDL
