MODEL 1
REMARK VINA RESULT:     -11.2      0.000      0.000
REMARK  Name = 
REMARK  5 active torsions:
REMARK  status: ('A' for Active; 'I' for Inactive)
REMARK    1  A    between atoms: C_7  and  C_8
REMARK    2  A    between atoms: C_8  and  N_9
REMARK    3  A    between atoms: C_13  and  C_14
REMARK    4  A    between atoms: C_16  and  C_19
REMARK    5  A    between atoms: C_22  and  N_25
REMARK                            x       y       z     vdW  Elec       q    Type
REMARK                         _______ _______ _______ _____ _____    ______ ____
ROOT
ATOM     14  C   UNL     1      -4.003   2.657  25.099  0.00  0.00    +0.251 A 
ATOM     15  N   UNL     1      -3.789   1.873  25.246  0.00  0.00    -0.190 NA
ATOM     16  C   UNL     1      -4.116   1.404  24.653  0.00  0.00    +0.205 A 
ATOM     17  N   UNL     1      -4.532   1.896  24.139  0.00  0.00    -0.056 NA
ATOM     18  O   UNL     1      -4.462   2.670  24.414  0.00  0.00    -0.336 OA
ENDROOT
BRANCH  16  19
ATOM     19  C   UNL     1      -4.040   0.585  24.585  0.00  0.00    +0.058 A 
ATOM     20  C   UNL     1      -3.705   0.257  23.906  0.00  0.00    +0.008 A 
ATOM     21  C   UNL     1      -3.629  -0.562  23.838  0.00  0.00    +0.038 A 
ATOM     22  C   UNL     1      -3.888  -1.052  24.449  0.00  0.00    +0.149 A 
ATOM     23  N   UNL     1      -4.223  -0.725  25.128  0.00  0.00    -0.226 NA
ATOM     24  C   UNL     1      -4.299   0.094  25.195  0.00  0.00    +0.104 A 
BRANCH  22  25
ATOM     25  N   UNL     1      -3.811  -1.871  24.381  0.00  0.00    -0.271 N 
ATOM     26  C   UNL     1      -3.316  -2.352  24.833  0.00  0.00    +0.104 A 
ATOM     27  C   UNL     1      -3.416  -3.131  24.581  0.00  0.00    +0.120 A 
ATOM     28  N   UNL     1      -3.973  -3.132  23.972  0.00  0.00    -0.222 NA
ATOM     29  C   UNL     1      -4.218  -2.353  23.849  0.00  0.00    +0.184 A 
ENDBRANCH  22  25
ENDBRANCH  16  19
BRANCH  14  13
ATOM      9  N   UNL     1      -3.078   3.716  25.524  0.00  0.00    -0.263 NA
ATOM     10  C   UNL     1      -3.106   4.330  26.074  0.00  0.00    +0.073 C 
ATOM     11  C   UNL     1      -3.841   4.303  26.448  0.00  0.00    +0.019 C 
ATOM     12  C   UNL     1      -4.267   3.673  26.128  0.00  0.00    +0.027 C 
ATOM     13  C   UNL     1      -3.795   3.310  25.557  0.00  0.00    +0.138 C 
BRANCH   9   8
ATOM      8  C   UNL     1      -2.444   3.539  25.027  0.00  0.00    +0.102 C 
BRANCH   8   7
ATOM      1  F   UNL     1      -0.917   2.917  25.103  0.00  0.00    -0.204 F 
ATOM      2  C   UNL     1      -1.027   3.732  25.034  0.00  0.00    +0.137 A 
ATOM      3  C   UNL     1      -0.374   4.236  25.004  0.00  0.00    +0.029 A 
ATOM      4  C   UNL     1      -0.484   5.050  24.936  0.00  0.00    +0.002 A 
ATOM      5  C   UNL     1      -1.247   5.361  24.898  0.00  0.00    -0.000 A 
ATOM      6  C   UNL     1      -1.901   4.858  24.928  0.00  0.00    -0.001 A 
ATOM      7  C   UNL     1      -1.790   4.043  24.997  0.00  0.00    +0.021 A 
ENDBRANCH   8   7
ENDBRANCH   9   8
ENDBRANCH  14  13
TORSDOF 5
ENDMDL
MODEL 2
REMARK VINA RESULT:     -10.8      2.192      6.143
REMARK  Name = 
REMARK  5 active torsions:
REMARK  status: ('A' for Active; 'I' for Inactive)
REMARK    1  A    between atoms: C_7  and  C_8
REMARK    2  A    between atoms: C_8  and  N_9
REMARK    3  A    between atoms: C_13  and  C_14
REMARK    4  A    between atoms: C_16  and  C_19
REMARK    5  A    between atoms: C_22  and  N_25
REMARK                            x       y       z     vdW  Elec       q    Type
REMARK                         _______ _______ _______ _____ _____    ______ ____
ROOT
ATOM     14  C   UNL     1      -1.111  -0.306  25.309  0.00  0.00    +0.251 A 
ATOM     15  N   UNL     1      -1.135   0.437  24.951  0.00  0.00    -0.190 NA
ATOM     16  C   UNL     1      -1.114   1.007  25.546  0.00  0.00    +0.205 A 
ATOM     17  N   UNL     1      -1.078   0.617  26.272  0.00  0.00    -0.056 NA
ATOM     18  O   UNL     1      -1.076  -0.194  26.125  0.00  0.00    -0.336 OA
ENDROOT
BRANCH  16  19
ATOM     19  C   UNL     1      -1.128   1.825  25.436  0.00  0.00    +0.058 A 
ATOM     20  C   UNL     1      -0.576   2.303  25.821  0.00  0.00    +0.008 A 
ATOM     21  C   UNL     1      -0.590   3.120  25.710  0.00  0.00    +0.038 A 
ATOM     22  C   UNL     1      -1.155   3.460  25.214  0.00  0.00    +0.149 A 
ATOM     23  N   UNL     1      -1.707   2.983  24.829  0.00  0.00    -0.226 NA
ATOM     24  C   UNL     1      -1.693   2.165  24.940  0.00  0.00    +0.104 A 
BRANCH  22  25
ATOM     25  N   UNL     1      -1.169   4.278  25.103  0.00  0.00    -0.271 N 
ATOM     26  C   UNL     1      -1.788   4.784  25.307  0.00  0.00    +0.104 A 
ATOM     27  C   UNL     1      -1.568   5.552  25.099  0.00  0.00    +0.120 A 
ATOM     28  N   UNL     1      -0.813   5.520  24.767  0.00  0.00    -0.222 NA
ATOM     29  C   UNL     1      -0.567   4.732  24.770  0.00  0.00    +0.184 A 
ENDBRANCH  22  25
ENDBRANCH  16  19
BRANCH  14  13
ATOM      9  N   UNL     1      -1.792  -1.465  24.717  0.00  0.00    -0.263 NA
ATOM     10  C   UNL     1      -1.547  -2.154  24.335  0.00  0.00    +0.073 C 
ATOM     11  C   UNL     1      -0.723  -2.147  24.300  0.00  0.00    +0.019 C 
ATOM     12  C   UNL     1      -0.459  -1.453  24.661  0.00  0.00    +0.027 C 
ATOM     13  C   UNL     1      -1.120  -1.032  24.918  0.00  0.00    +0.138 C 
BRANCH   9   8
ATOM      8  C   UNL     1      -2.573  -1.248  24.871  0.00  0.00    +0.102 C 
BRANCH   8   7
ATOM      1  F   UNL     1      -3.733  -0.502  23.965  0.00  0.00    -0.204 F 
ATOM      2  C   UNL     1      -3.774  -1.316  24.099  0.00  0.00    +0.137 A 
ATOM      3  C   UNL     1      -4.395  -1.756  23.781  0.00  0.00    +0.029 A 
ATOM      4  C   UNL     1      -4.436  -2.569  23.915  0.00  0.00    +0.002 A 
ATOM      5  C   UNL     1      -3.856  -2.942  24.368  0.00  0.00    -0.000 A 
ATOM      6  C   UNL     1      -3.235  -2.502  24.686  0.00  0.00    -0.001 A 
ATOM      7  C   UNL     1      -3.194  -1.688  24.552  0.00  0.00    +0.021 A 
ENDBRANCH   8   7
ENDBRANCH   9   8
ENDBRANCH  14  13
TORSDOF 5
ENDMDL
MODEL 3
REMARK VINA RESULT:     -10.4      3.392      4.926
REMARK  Name = 
REMARK  5 active torsions:
REMARK  status: ('A' for Active; 'I' for Inactive)
REMARK    1  A    between atoms: C_7  and  C_8
REMARK    2  A    between atoms: C_8  and  N_9
REMARK    3  A    between atoms: C_13  and  C_14
REMARK    4  A    between atoms: C_16  and  C_19
REMARK    5  A    between atoms: C_22  and  N_25
REMARK                            x       y       z     vdW  Elec       q    Type
REMARK                         _______ _______ _______ _____ _____    ______ ____
ROOT
ATOM     14  C   UNL     1      -2.407  -0.305  24.730  0.00  0.00    +0.251 A 
ATOM     15  N   UNL     1      -1.842  -0.255  24.130  0.00  0.00    -0.190 NA
ATOM     16  C   UNL     1      -1.107  -0.132  24.483  0.00  0.00    +0.205 A 
ATOM     17  N   UNL     1      -1.217  -0.105  25.299  0.00  0.00    -0.056 NA
ATOM     18  O   UNL     1      -2.019  -0.212  25.452  0.00  0.00    -0.336 OA
ENDROOT
BRANCH  16  19
ATOM     19  C   UNL     1      -0.387  -0.049  24.087  0.00  0.00    +0.058 A 
ATOM     20  C   UNL     1      -0.118   0.701  23.874  0.00  0.00    +0.008 A 
ATOM     21  C   UNL     1       0.602   0.783  23.478  0.00  0.00    +0.038 A 
ATOM     22  C   UNL     1       1.051   0.116  23.296  0.00  0.00    +0.149 A 
ATOM     23  N   UNL     1       0.782  -0.634  23.509  0.00  0.00    -0.226 NA
ATOM     24  C   UNL     1       0.063  -0.717  23.905  0.00  0.00    +0.104 A 
BRANCH  22  25
ATOM     25  N   UNL     1       1.771   0.198  22.900  0.00  0.00    -0.271 N 
ATOM     26  C   UNL     1       2.429   0.617  23.171  0.00  0.00    +0.104 A 
ATOM     27  C   UNL     1       3.023   0.554  22.603  0.00  0.00    +0.120 A 
ATOM     28  N   UNL     1       2.733   0.096  21.980  0.00  0.00    -0.222 NA
ATOM     29  C   UNL     1       1.959  -0.124  22.165  0.00  0.00    +0.184 A 
ENDBRANCH  22  25
ENDBRANCH  16  19
BRANCH  14  13
ATOM      9  N   UNL     1      -3.800   0.155  24.647  0.00  0.00    -0.263 NA
ATOM     10  C   UNL     1      -4.528  -0.209  24.515  0.00  0.00    +0.073 C 
ATOM     11  C   UNL     1      -4.394  -1.017  24.411  0.00  0.00    +0.019 C 
ATOM     12  C   UNL     1      -3.583  -1.151  24.479  0.00  0.00    +0.027 C 
ATOM     13  C   UNL     1      -3.216  -0.426  24.625  0.00  0.00    +0.138 C 
BRANCH   9   8
ATOM      8  C   UNL     1      -3.677   0.960  24.778  0.00  0.00    +0.102 C 
BRANCH   8   7
ATOM      1  F   UNL     1      -3.784   2.337  23.876  0.00  0.00    -0.204 F 
ATOM      2  C   UNL     1      -4.376   2.155  24.421  0.00  0.00    +0.137 A 
ATOM      3  C   UNL     1      -5.022   2.660  24.515  0.00  0.00    +0.029 A 
ATOM      4  C   UNL     1      -5.613   2.477  25.059  0.00  0.00    +0.002 A 
ATOM      5  C   UNL     1      -5.560   1.789  25.510  0.00  0.00    -0.000 A 
ATOM      6  C   UNL     1      -4.915   1.283  25.417  0.00  0.00    -0.001 A 
ATOM      7  C   UNL     1      -4.323   1.466  24.872  0.00  0.00    +0.021 A 
ENDBRANCH   8   7
ENDBRANCH   9   8
ENDBRANCH  14  13
TORSDOF 5
ENDMDL
MODEL 4
REMARK VINA RESULT:     -10.3      1.860      2.518
REMARK  Name = 
REMARK  5 active torsions:
REMARK  status: ('A' for Active; 'I' for Inactive)
REMARK    1  A    between atoms: C_7  and  C_8
REMARK    2  A    between atoms: C_8  and  N_9
REMARK    3  A    between atoms: C_13  and  C_14
REMARK    4  A    between atoms: C_16  and  C_19
REMARK    5  A    between atoms: C_22  and  N_25
REMARK                            x       y       z     vdW  Elec       q    Type
REMARK                         _______ _______ _______ _____ _____    ______ ____
ROOT
ATOM     14  C   UNL     1      -0.582   1.442  25.234  0.00  0.00    +0.251 A 
ATOM     15  N   UNL     1      -1.207   0.916  25.355  0.00  0.00    -0.190 NA
ATOM     16  C   UNL     1      -1.233   0.400  24.712  0.00  0.00    +0.205 A 
ATOM     17  N   UNL     1      -0.625   0.606  24.195  0.00  0.00    -0.056 NA
ATOM     18  O   UNL     1      -0.223   1.249  24.517  0.00  0.00    -0.336 OA
ENDROOT
BRANCH  16  19
ATOM     19  C   UNL     1      -1.773  -0.215  24.606  0.00  0.00    +0.058 A 
ATOM     20  C   UNL     1      -2.577  -0.048  24.523  0.00  0.00    +0.008 A 
ATOM     21  C   UNL     1      -3.117  -0.663  24.417  0.00  0.00    +0.038 A 
ATOM     22  C   UNL     1      -2.853  -1.444  24.393  0.00  0.00    +0.149 A 
ATOM     23  N   UNL     1      -2.050  -1.611  24.475  0.00  0.00    -0.226 NA
ATOM     24  C   UNL     1      -1.510  -0.996  24.582  0.00  0.00    +0.104 A 
BRANCH  22  25
ATOM     25  N   UNL     1      -3.394  -2.059  24.287  0.00  0.00    -0.271 N 
ATOM     26  C   UNL     1      -4.075  -2.031  23.822  0.00  0.00    +0.104 A 
ATOM     27  C   UNL     1      -4.450  -2.764  23.874  0.00  0.00    +0.120 A 
ATOM     28  N   UNL     1      -4.000  -3.245  24.371  0.00  0.00    -0.222 NA
ATOM     29  C   UNL     1      -3.347  -2.809  24.626  0.00  0.00    +0.184 A 
ENDBRANCH  22  25
ENDBRANCH  16  19
BRANCH  14  13
ATOM      9  N   UNL     1      -0.666   2.816  25.748  0.00  0.00    -0.263 NA
ATOM     10  C   UNL     1      -0.284   3.242  26.342  0.00  0.00    +0.073 C 
ATOM     11  C   UNL     1       0.262   2.740  26.704  0.00  0.00    +0.019 C 
ATOM     12  C   UNL     1       0.217   2.004  26.333  0.00  0.00    +0.027 C 
ATOM     13  C   UNL     1      -0.357   2.052  25.742  0.00  0.00    +0.138 C 
BRANCH   9   8
ATOM      8  C   UNL     1      -1.255   3.105  25.247  0.00  0.00    +0.102 C 
BRANCH   8   7
ATOM      1  F   UNL     1      -2.725   3.714  25.681  0.00  0.00    -0.204 F 
ATOM      2  C   UNL     1      -2.131   4.221  25.417  0.00  0.00    +0.137 A 
ATOM      3  C   UNL     1      -2.271   5.033  25.370  0.00  0.00    +0.029 A 
ATOM      4  C   UNL     1      -1.676   5.540  25.107  0.00  0.00    +0.002 A 
ATOM      5  C   UNL     1      -0.941   5.236  24.890  0.00  0.00    -0.000 A 
ATOM      6  C   UNL     1      -0.800   4.424  24.936  0.00  0.00    -0.001 A 
ATOM      7  C   UNL     1      -1.395   3.917  25.200  0.00  0.00    +0.021 A 
ENDBRANCH   8   7
ENDBRANCH   9   8
ENDBRANCH  14  13
TORSDOF 5
ENDMDL
MODEL 5
REMARK VINA RESULT:      -9.9      3.514      5.479
REMARK  Name = 
REMARK  5 active torsions:
REMARK  status: ('A' for Active; 'I' for Inactive)
REMARK    1  A    between atoms: C_7  and  C_8
REMARK    2  A    between atoms: C_8  and  N_9
REMARK    3  A    between atoms: C_13  and  C_14
REMARK    4  A    between atoms: C_16  and  C_19
REMARK    5  A    between atoms: C_22  and  N_25
REMARK                            x       y       z     vdW  Elec       q    Type
REMARK                         _______ _______ _______ _____ _____    ______ ____
ROOT
ATOM     14  C   UNL     1      -2.173   0.774  24.896  0.00  0.00    +0.251 A 
ATOM     15  N   UNL     1      -1.640   0.628  24.283  0.00  0.00    -0.190 NA
ATOM     16  C   UNL     1      -0.877   0.736  24.577  0.00  0.00    +0.205 A 
ATOM     17  N   UNL     1      -0.938   0.948  25.371  0.00  0.00    -0.056 NA
ATOM     18  O   UNL     1      -1.738   0.971  25.568  0.00  0.00    -0.336 OA
ENDROOT
BRANCH  16  19
ATOM     19  C   UNL     1      -0.176   0.647  24.150  0.00  0.00    +0.058 A 
ATOM     20  C   UNL     1       0.019  -0.086  23.826  0.00  0.00    +0.008 A 
ATOM     21  C   UNL     1       0.720  -0.175  23.400  0.00  0.00    +0.038 A 
ATOM     22  C   UNL     1       1.226   0.469  23.298  0.00  0.00    +0.149 A 
ATOM     23  N   UNL     1       1.030   1.203  23.622  0.00  0.00    -0.226 NA
ATOM     24  C   UNL     1       0.329   1.291  24.049  0.00  0.00    +0.104 A 
BRANCH  22  25
ATOM     25  N   UNL     1       1.927   0.381  22.872  0.00  0.00    -0.271 N 
ATOM     26  C   UNL     1       2.668   0.670  23.091  0.00  0.00    +0.104 A 
ATOM     27  C   UNL     1       3.209   0.455  22.507  0.00  0.00    +0.120 A 
ATOM     28  N   UNL     1       2.802   0.033  21.926  0.00  0.00    -0.222 NA
ATOM     29  C   UNL     1       2.009  -0.013  22.152  0.00  0.00    +0.184 A 
ENDBRANCH  22  25
ENDBRANCH  16  19
BRANCH  14  13
ATOM      9  N   UNL     1      -3.450   0.049  24.936  0.00  0.00    -0.263 NA
ATOM     10  C   UNL     1      -4.242   0.256  24.841  0.00  0.00    +0.073 C 
ATOM     11  C   UNL     1      -4.277   1.066  24.691  0.00  0.00    +0.019 C 
ATOM     12  C   UNL     1      -3.506   1.359  24.694  0.00  0.00    +0.027 C 
ATOM     13  C   UNL     1      -2.994   0.730  24.845  0.00  0.00    +0.138 C 
BRANCH   9   8
ATOM      8  C   UNL     1      -3.163  -0.708  25.095  0.00  0.00    +0.102 C 
BRANCH   8   7
ATOM      1  F   UNL     1      -2.978  -2.208  25.759  0.00  0.00    -0.204 F 
ATOM      2  C   UNL     1      -3.417  -2.115  25.066  0.00  0.00    +0.137 A 
ATOM      3  C   UNL     1      -3.763  -2.771  24.705  0.00  0.00    +0.029 A 
ATOM      4  C   UNL     1      -4.201  -2.678  24.013  0.00  0.00    +0.002 A 
ATOM      5  C   UNL     1      -4.293  -1.928  23.681  0.00  0.00    -0.000 A 
ATOM      6  C   UNL     1      -3.948  -1.272  24.041  0.00  0.00    -0.001 A 
ATOM      7  C   UNL     1      -3.509  -1.365  24.734  0.00  0.00    +0.021 A 
ENDBRANCH   8   7
ENDBRANCH   9   8
ENDBRANCH  14  13
TORSDOF 5
ENDMDL
MODEL 6
REMARK VINA RESULT:      -9.6      3.155      4.400
REMARK  Name = 
REMARK  5 active torsions:
REMARK  status: ('A' for Active; 'I' for Inactive)
REMARK    1  A    between atoms: C_7  and  C_8
REMARK    2  A    between atoms: C_8  and  N_9
REMARK    3  A    between atoms: C_13  and  C_14
REMARK    4  A    between atoms: C_16  and  C_19
REMARK    5  A    between atoms: C_22  and  N_25
REMARK                            x       y       z     vdW  Elec       q    Type
REMARK                         _______ _______ _______ _____ _____    ______ ____
ROOT
ATOM     14  C   UNL     1      -1.739   2.821  25.343  0.00  0.00    +0.251 A 
ATOM     15  N   UNL     1      -1.289   2.586  24.692  0.00  0.00    -0.190 NA
ATOM     16  C   UNL     1      -0.754   2.012  24.946  0.00  0.00    +0.205 A 
ATOM     17  N   UNL     1      -0.872   1.893  25.753  0.00  0.00    -0.056 NA
ATOM     18  O   UNL     1      -1.480   2.392  25.998  0.00  0.00    -0.336 OA
ENDROOT
BRANCH  16  19
ATOM     19  C   UNL     1      -0.197   1.626  24.475  0.00  0.00    +0.058 A 
ATOM     20  C   UNL     1      -0.378   0.896  24.137  0.00  0.00    +0.008 A 
ATOM     21  C   UNL     1       0.178   0.510  23.666  0.00  0.00    +0.038 A 
ATOM     22  C   UNL     1       0.916   0.854  23.533  0.00  0.00    +0.149 A 
ATOM     23  N   UNL     1       1.098   1.584  23.871  0.00  0.00    -0.226 NA
ATOM     24  C   UNL     1       0.541   1.971  24.342  0.00  0.00    +0.104 A 
BRANCH  22  25
ATOM     25  N   UNL     1       1.473   0.468  23.062  0.00  0.00    -0.271 N 
ATOM     26  C   UNL     1       2.290   0.583  23.083  0.00  0.00    +0.104 A 
ATOM     27  C   UNL     1       2.632   0.086  22.521  0.00  0.00    +0.120 A 
ATOM     28  N   UNL     1       2.027  -0.337  22.153  0.00  0.00    -0.222 NA
ATOM     29  C   UNL     1       1.310  -0.101  22.487  0.00  0.00    +0.184 A 
ENDBRANCH  22  25
ENDBRANCH  16  19
BRANCH  14  13
ATOM      9  N   UNL     1      -3.146   3.233  25.246  0.00  0.00    -0.263 NA
ATOM     10  C   UNL     1      -3.547   3.954  25.276  0.00  0.00    +0.073 C 
ATOM     11  C   UNL     1      -2.988   4.551  25.387  0.00  0.00    +0.019 C 
ATOM     12  C   UNL     1      -2.243   4.199  25.426  0.00  0.00    +0.027 C 
ATOM     13  C   UNL     1      -2.341   3.384  25.339  0.00  0.00    +0.138 C 
BRANCH   9   8
ATOM      8  C   UNL     1      -3.491   2.491  25.142  0.00  0.00    +0.102 C 
BRANCH   8   7
ATOM      1  F   UNL     1      -4.287   1.580  24.021  0.00  0.00    -0.204 F 
ATOM      2  C   UNL     1      -4.709   1.952  24.625  0.00  0.00    +0.137 A 
ATOM      3  C   UNL     1      -5.529   1.869  24.669  0.00  0.00    +0.029 A 
ATOM      4  C   UNL     1      -5.950   2.240  25.272  0.00  0.00    +0.002 A 
ATOM      5  C   UNL     1      -5.552   2.696  25.833  0.00  0.00    -0.000 A 
ATOM      6  C   UNL     1      -4.732   2.780  25.790  0.00  0.00    -0.001 A 
ATOM      7  C   UNL     1      -4.311   2.407  25.185  0.00  0.00    +0.021 A 
ENDBRANCH   8   7
ENDBRANCH   9   8
ENDBRANCH  14  13
TORSDOF 5
ENDMDL
MODEL 7
REMARK VINA RESULT:      -9.5      2.263      3.155
REMARK  Name = 
REMARK  5 active torsions:
REMARK  status: ('A' for Active; 'I' for Inactive)
REMARK    1  A    between atoms: C_7  and  C_8
REMARK    2  A    between atoms: C_8  and  N_9
REMARK    3  A    between atoms: C_13  and  C_14
REMARK    4  A    between atoms: C_16  and  C_19
REMARK    5  A    between atoms: C_22  and  N_25
REMARK                            x       y       z     vdW  Elec       q    Type
REMARK                         _______ _______ _______ _____ _____    ______ ____
ROOT
ATOM     14  C   UNL     1      -0.787   3.019  25.459  0.00  0.00    +0.251 A 
ATOM     15  N   UNL     1      -1.107   2.324  25.150  0.00  0.00    -0.190 NA
ATOM     16  C   UNL     1      -0.679   1.688  25.455  0.00  0.00    +0.205 A 
ATOM     17  N   UNL     1      -0.095   1.990  25.953  0.00  0.00    -0.056 NA
ATOM     18  O   UNL     1      -0.161   2.811  25.955  0.00  0.00    -0.336 OA
ENDROOT
BRANCH  16  19
ATOM     19  C   UNL     1      -0.813   0.890  25.292  0.00  0.00    +0.058 A 
ATOM     20  C   UNL     1      -1.223   0.422  25.833  0.00  0.00    +0.008 A 
ATOM     21  C   UNL     1      -1.357  -0.376  25.669  0.00  0.00    +0.038 A 
ATOM     22  C   UNL     1      -1.080  -0.705  24.964  0.00  0.00    +0.149 A 
ATOM     23  N   UNL     1      -0.670  -0.236  24.423  0.00  0.00    -0.226 NA
ATOM     24  C   UNL     1      -0.537   0.562  24.587  0.00  0.00    +0.104 A 
BRANCH  22  25
ATOM     25  N   UNL     1      -1.214  -1.502  24.800  0.00  0.00    -0.271 N 
ATOM     26  C   UNL     1      -1.909  -1.825  24.494  0.00  0.00    +0.104 A 
ATOM     27  C   UNL     1      -1.801  -2.639  24.419  0.00  0.00    +0.120 A 
ATOM     28  N   UNL     1      -1.038  -2.820  24.678  0.00  0.00    -0.222 NA
ATOM     29  C   UNL     1      -0.676  -2.117  24.914  0.00  0.00    +0.184 A 
ENDBRANCH  22  25
ENDBRANCH  16  19
BRANCH  14  13
ATOM      9  N   UNL     1      -1.798   4.084  25.459  0.00  0.00    -0.263 NA
ATOM     10  C   UNL     1      -1.817   4.871  25.212  0.00  0.00    +0.073 C 
ATOM     11  C   UNL     1      -1.077   5.058  24.899  0.00  0.00    +0.019 C 
ATOM     12  C   UNL     1      -0.600   4.387  24.954  0.00  0.00    +0.027 C 
ATOM     13  C   UNL     1      -1.047   3.785  25.300  0.00  0.00    +0.138 C 
BRANCH   9   8
ATOM      8  C   UNL     1      -2.422   3.670  25.805  0.00  0.00    +0.102 C 
BRANCH   8   7
ATOM      1  F   UNL     1      -3.664   3.909  26.865  0.00  0.00    -0.204 F 
ATOM      2  C   UNL     1      -3.812   3.891  26.053  0.00  0.00    +0.137 A 
ATOM      3  C   UNL     1      -4.581   3.992  25.771  0.00  0.00    +0.029 A 
ATOM      4  C   UNL     1      -4.729   3.973  24.960  0.00  0.00    +0.002 A 
ATOM      5  C   UNL     1      -4.108   3.854  24.430  0.00  0.00    -0.000 A 
ATOM      6  C   UNL     1      -3.339   3.753  24.711  0.00  0.00    -0.001 A 
ATOM      7  C   UNL     1      -3.191   3.771  25.523  0.00  0.00    +0.021 A 
ENDBRANCH   8   7
ENDBRANCH   9   8
ENDBRANCH  14  13
TORSDOF 5
ENDMDL
MODEL 8
REMARK VINA RESULT:      -9.2      1.537      5.413
REMARK  Name = 
REMARK  5 active torsions:
REMARK  status: ('A' for Active; 'I' for Inactive)
REMARK    1  A    between atoms: C_7  and  C_8
REMARK    2  A    between atoms: C_8  and  N_9
REMARK    3  A    between atoms: C_13  and  C_14
REMARK    4  A    between atoms: C_16  and  C_19
REMARK    5  A    between atoms: C_22  and  N_25
REMARK                            x       y       z     vdW  Elec       q    Type
REMARK                         _______ _______ _______ _____ _____    ______ ____
ROOT
ATOM     14  C   UNL     1      -3.953   0.263  24.763  0.00  0.00    +0.251 A 
ATOM     15  N   UNL     1      -3.355   0.813  24.619  0.00  0.00    -0.190 NA
ATOM     16  C   UNL     1      -3.559   1.517  24.997  0.00  0.00    +0.205 A 
ATOM     17  N   UNL     1      -4.283   1.403  25.375  0.00  0.00    -0.056 NA
ATOM     18  O   UNL     1      -4.526   0.629  25.230  0.00  0.00    -0.336 OA
ENDROOT
BRANCH  16  19
ATOM     19  C   UNL     1      -3.116   2.214  24.997  0.00  0.00    +0.058 A 
ATOM     20  C   UNL     1      -2.329   2.202  25.242  0.00  0.00    +0.008 A 
ATOM     21  C   UNL     1      -1.886   2.898  25.242  0.00  0.00    +0.038 A 
ATOM     22  C   UNL     1      -2.232   3.606  24.996  0.00  0.00    +0.149 A 
ATOM     23  N   UNL     1      -3.019   3.619  24.751  0.00  0.00    -0.226 NA
ATOM     24  C   UNL     1      -3.462   2.922  24.751  0.00  0.00    +0.104 A 
BRANCH  22  25
ATOM     25  N   UNL     1      -1.789   4.303  24.996  0.00  0.00    -0.271 N 
ATOM     26  C   UNL     1      -0.998   4.375  24.772  0.00  0.00    +0.104 A 
ATOM     27  C   UNL     1      -0.780   5.166  24.858  0.00  0.00    +0.120 A 
ATOM     28  N   UNL     1      -1.436   5.583  25.134  0.00  0.00    -0.222 NA
ATOM     29  C   UNL     1      -2.060   5.049  25.220  0.00  0.00    +0.184 A 
ENDBRANCH  22  25
ENDBRANCH  16  19
BRANCH  14  13
ATOM      9  N   UNL     1      -3.481  -1.128  24.734  0.00  0.00    -0.263 NA
ATOM     10  C   UNL     1      -3.692  -1.808  24.318  0.00  0.00    +0.073 C 
ATOM     11  C   UNL     1      -4.317  -1.614  23.814  0.00  0.00    +0.019 C 
ATOM     12  C   UNL     1      -4.490  -0.814  23.920  0.00  0.00    +0.027 C 
ATOM     13  C   UNL     1      -3.973  -0.514  24.489  0.00  0.00    +0.138 C 
BRANCH   9   8
ATOM      8  C   UNL     1      -2.882  -1.072  25.299  0.00  0.00    +0.102 C 
BRANCH   8   7
ATOM      1  F   UNL     1      -1.593  -0.750  26.277  0.00  0.00    -0.204 F 
ATOM      2  C   UNL     1      -1.520  -1.302  25.668  0.00  0.00    +0.137 A 
ATOM      3  C   UNL     1      -0.804  -1.694  25.548  0.00  0.00    +0.029 A 
ATOM      4  C   UNL     1      -0.732  -2.246  24.940  0.00  0.00    +0.002 A 
ATOM      5  C   UNL     1      -1.376  -2.407  24.451  0.00  0.00    -0.000 A 
ATOM      6  C   UNL     1      -2.093  -2.016  24.570  0.00  0.00    -0.001 A 
ATOM      7  C   UNL     1      -2.165  -1.463  25.179  0.00  0.00    +0.021 A 
ENDBRANCH   8   7
ENDBRANCH   9   8
ENDBRANCH  14  13
TORSDOF 5
ENDMDL
