MODEL 1
REMARK VINA RESULT:     -11.6      0.000      0.000
REMARK  Name = 
REMARK  7 active torsions:
REMARK  status: ('A' for Active; 'I' for Inactive)
REMARK    1  A    between atoms: O_2  and  C_3
REMARK    2  A    between atoms: C_6  and  C_9
REMARK    3  A    between atoms: C_16  and  C_17
REMARK    4  A    between atoms: N_19  and  C_20
REMARK    5  A    between atoms: C_27  and  C_29
REMARK    6  A    between atoms: C_29  and  S_30
REMARK    7  A    between atoms: S_30  and  C_33
REMARK                            x       y       z     vdW  Elec       q    Type
REMARK                         _______ _______ _______ _____ _____    ______ ____
ROOT
ATOM      9  C   UNL     1      -2.859   3.080  24.415  0.00  0.00    +0.249 C 
ATOM     10  O   UNL     1      -2.404   3.575  23.937  0.00  0.00    -0.270 OA
ATOM     11  N   UNL     1      -2.628   2.298  24.539  0.00  0.00    -0.266 N 
ATOM     12  C   UNL     1      -3.083   1.803  25.017  0.00  0.00    +0.116 C 
ATOM     13  C   UNL     1      -2.852   1.022  25.141  0.00  0.00    +0.115 C 
ATOM     14  N   UNL     1      -2.163   0.734  24.787  0.00  0.00    -0.274 N 
ATOM     15  C   UNL     1      -1.708   1.229  24.310  0.00  0.00    +0.123 C 
ATOM     16  C   UNL     1      -1.939   2.010  24.186  0.00  0.00    +0.174 C 
ATOM     27  C   UNL     1      -1.932  -0.048  24.912  0.00  0.00    +0.250 C 
ATOM     28  O   UNL     1      -1.244  -0.335  24.559  0.00  0.00    -0.273 OA
ENDROOT
BRANCH   9   6
ATOM      3  C   UNL     1      -4.923   3.942  25.475  0.00  0.00    +0.139 A 
ATOM      4  C   UNL     1      -4.189   4.081  25.826  0.00  0.00    +0.037 A 
ATOM      5  C   UNL     1      -3.501   3.794  25.473  0.00  0.00    +0.008 A 
ATOM      6  C   UNL     1      -3.547   3.367  24.768  0.00  0.00    +0.054 A 
ATOM      7  C   UNL     1      -4.281   3.227  24.416  0.00  0.00    +0.008 A 
ATOM      8  C   UNL     1      -4.969   3.515  24.770  0.00  0.00    +0.037 A 
BRANCH   3   2
ATOM      1  C   UNL     1      -6.299   3.772  25.825  0.00  0.00    +0.252 C 
ATOM      2  O   UNL     1      -5.611   4.229  25.828  0.00  0.00    -0.471 OA
ENDBRANCH   3   2
ENDBRANCH   9   6
BRANCH  16  17
ATOM     17  C   UNL     1      -1.484   2.505  23.708  0.00  0.00    +0.262 C 
ATOM     18  O   UNL     1      -1.747   2.709  22.953  0.00  0.00    -0.271 OA
ATOM     19  N   UNL     1      -0.764   2.797  23.986  0.00  0.00    -0.196 NA
BRANCH  19  20
ATOM     20  C   UNL     1      -0.500   2.593  24.741  0.00  0.00    +0.173 C 
ATOM     21  C   UNL     1      -0.910   2.854  25.406  0.00  0.00    +0.033 C 
ATOM     22  C   UNL     1      -0.647   2.650  26.160  0.00  0.00    +0.026 C 
ATOM     23  C   UNL     1       0.029   2.184  26.249  0.00  0.00    +0.115 C 
ATOM     24  N   UNL     1       0.440   1.922  25.583  0.00  0.00    -0.204 NA
ATOM     25  C   UNL     1       0.176   2.126  24.829  0.00  0.00    +0.261 C 
ATOM     26  O   UNL     1       0.587   1.865  24.163  0.00  0.00    -0.271 OA
ENDBRANCH  19  20
ENDBRANCH  16  17
BRANCH  27  29
ATOM     29  C   UNL     1      -2.387  -0.542  25.389  0.00  0.00    +0.240 C 
BRANCH  29  30
ATOM     30  S   UNL     1      -2.743  -1.214  25.068  0.00  0.00    +0.018 S 
ATOM     31  O   UNL     1      -3.463  -0.990  25.402  0.00  0.00    -0.168 OA
ATOM     32  O   UNL     1      -2.022  -1.436  24.734  0.00  0.00    -0.168 OA
BRANCH  30  33
ATOM     33  C   UNL     1      -3.099  -1.885  24.747  0.00  0.00    +0.106 A 
ATOM     34  C   UNL     1      -2.802  -2.634  24.923  0.00  0.00    +0.018 A 
ATOM     35  C   UNL     1      -3.158  -3.305  24.602  0.00  0.00    +0.001 A 
ATOM     36  C   UNL     1      -3.812  -3.227  24.105  0.00  0.00    +0.000 A 
ATOM     37  C   UNL     1      -4.110  -2.478  23.928  0.00  0.00    +0.001 A 
ATOM     38  C   UNL     1      -3.753  -1.807  24.250  0.00  0.00    +0.018 A 
ENDBRANCH  30  33
ENDBRANCH  29  30
ENDBRANCH  27  29
TORSDOF 7
ENDMDL
MODEL 2
REMARK VINA RESULT:     -11.4      2.216      4.459
REMARK  Name = 
REMARK  7 active torsions:
REMARK  status: ('A' for Active; 'I' for Inactive)
REMARK    1  A    between atoms: O_2  and  C_3
REMARK    2  A    between atoms: C_6  and  C_9
REMARK    3  A    between atoms: C_16  and  C_17
REMARK    4  A    between atoms: N_19  and  C_20
REMARK    5  A    between atoms: C_27  and  C_29
REMARK    6  A    between atoms: C_29  and  S_30
REMARK    7  A    between atoms: S_30  and  C_33
REMARK                            x       y       z     vdW  Elec       q    Type
REMARK                         _______ _______ _______ _____ _____    ______ ____
ROOT
ATOM      9  C   UNL     1      -2.681   0.621  24.440  0.00  0.00    +0.249 C 
ATOM     10  O   UNL     1      -3.183   1.276  24.452  0.00  0.00    -0.270 OA
ATOM     11  N   UNL     1      -1.895   0.708  24.204  0.00  0.00    -0.266 N 
ATOM     12  C   UNL     1      -1.393   0.054  24.192  0.00  0.00    +0.116 C 
ATOM     13  C   UNL     1      -0.608   0.140  23.957  0.00  0.00    +0.115 C 
ATOM     14  N   UNL     1      -0.324   0.883  23.732  0.00  0.00    -0.274 N 
ATOM     15  C   UNL     1      -0.826   1.537  23.743  0.00  0.00    +0.123 C 
ATOM     16  C   UNL     1      -1.611   1.450  23.979  0.00  0.00    +0.174 C 
ATOM     27  C   UNL     1       0.462   0.969  23.495  0.00  0.00    +0.250 C 
ATOM     28  O   UNL     1       0.746   1.710  23.271  0.00  0.00    -0.273 OA
ENDROOT
BRANCH   9   6
ATOM      3  C   UNL     1      -3.531  -1.603  25.114  0.00  0.00    +0.139 A 
ATOM      4  C   UNL     1      -3.180  -1.108  25.674  0.00  0.00    +0.037 A 
ATOM      5  C   UNL     1      -2.896  -0.367  25.449  0.00  0.00    +0.008 A 
ATOM      6  C   UNL     1      -2.964  -0.120  24.665  0.00  0.00    +0.054 A 
ATOM      7  C   UNL     1      -3.315  -0.614  24.105  0.00  0.00    +0.008 A 
ATOM      8  C   UNL     1      -3.599  -1.355  24.329  0.00  0.00    +0.037 A 
BRANCH   3   2
ATOM      1  C   UNL     1      -3.524  -3.026  24.974  0.00  0.00    +0.252 C 
ATOM      2  O   UNL     1      -3.815  -2.344  25.339  0.00  0.00    -0.471 OA
ENDBRANCH   3   2
ENDBRANCH   9   6
BRANCH  16  17
ATOM     17  C   UNL     1      -2.113   2.104  23.991  0.00  0.00    +0.262 C 
ATOM     18  O   UNL     1      -2.730   2.162  23.446  0.00  0.00    -0.271 OA
ATOM     19  N   UNL     1      -1.999   2.702  24.548  0.00  0.00    -0.196 NA
BRANCH  19  20
ATOM     20  C   UNL     1      -1.382   2.644  25.093  0.00  0.00    +0.173 C 
ATOM     21  C   UNL     1      -1.377   2.036  25.649  0.00  0.00    +0.033 C 
ATOM     22  C   UNL     1      -0.761   1.979  26.193  0.00  0.00    +0.026 C 
ATOM     23  C   UNL     1      -0.147   2.531  26.181  0.00  0.00    +0.115 C 
ATOM     24  N   UNL     1      -0.151   3.140  25.625  0.00  0.00    -0.204 NA
ATOM     25  C   UNL     1      -0.768   3.197  25.081  0.00  0.00    +0.261 C 
ATOM     26  O   UNL     1      -0.773   3.806  24.524  0.00  0.00    -0.271 OA
ENDBRANCH  19  20
ENDBRANCH  16  17
BRANCH  27  29
ATOM     29  C   UNL     1       0.964   0.315  23.484  0.00  0.00    +0.240 C 
BRANCH  29  30
ATOM     30  S   UNL     1       1.717   0.378  23.152  0.00  0.00    +0.018 S 
ATOM     31  O   UNL     1       1.506  -0.170  22.573  0.00  0.00    -0.168 OA
ATOM     32  O   UNL     1       1.927   0.926  23.732  0.00  0.00    -0.168 OA
BRANCH  30  33
ATOM     33  C   UNL     1       2.469   0.440  22.820  0.00  0.00    +0.106 A 
ATOM     34  C   UNL     1       3.068   0.837  23.226  0.00  0.00    +0.018 A 
ATOM     35  C   UNL     1       3.820   0.899  22.894  0.00  0.00    +0.001 A 
ATOM     36  C   UNL     1       3.975   0.564  22.156  0.00  0.00    +0.000 A 
ATOM     37  C   UNL     1       3.377   0.167  21.750  0.00  0.00    +0.001 A 
ATOM     38  C   UNL     1       2.623   0.105  22.083  0.00  0.00    +0.018 A 
ENDBRANCH  30  33
ENDBRANCH  29  30
ENDBRANCH  27  29
TORSDOF 7
ENDMDL
MODEL 3
REMARK VINA RESULT:     -11.4      1.844      5.390
REMARK  Name = 
REMARK  7 active torsions:
REMARK  status: ('A' for Active; 'I' for Inactive)
REMARK    1  A    between atoms: O_2  and  C_3
REMARK    2  A    between atoms: C_6  and  C_9
REMARK    3  A    between atoms: C_16  and  C_17
REMARK    4  A    between atoms: N_19  and  C_20
REMARK    5  A    between atoms: C_27  and  C_29
REMARK    6  A    between atoms: C_29  and  S_30
REMARK    7  A    between atoms: S_30  and  C_33
REMARK                            x       y       z     vdW  Elec       q    Type
REMARK                         _______ _______ _______ _____ _____    ______ ____
ROOT
ATOM      9  C   UNL     1      -0.498  -0.591  24.562  0.00  0.00    +0.249 C 
ATOM     10  O   UNL     1      -0.355  -1.260  25.023  0.00  0.00    -0.270 OA
ATOM     11  N   UNL     1      -1.187  -0.151  24.673  0.00  0.00    -0.266 N 
ATOM     12  C   UNL     1      -1.329   0.518  24.212  0.00  0.00    +0.116 C 
ATOM     13  C   UNL     1      -2.017   0.957  24.324  0.00  0.00    +0.115 C 
ATOM     14  N   UNL     1      -2.565   0.727  24.898  0.00  0.00    -0.274 N 
ATOM     15  C   UNL     1      -2.424   0.058  25.358  0.00  0.00    +0.123 C 
ATOM     16  C   UNL     1      -1.735  -0.381  25.247  0.00  0.00    +0.174 C 
ATOM     27  C   UNL     1      -3.255   1.167  25.009  0.00  0.00    +0.250 C 
ATOM     28  O   UNL     1      -3.802   0.937  25.582  0.00  0.00    -0.273 OA
ENDROOT
BRANCH   9   6
ATOM      3  C   UNL     1       1.144   0.098  22.843  0.00  0.00    +0.139 A 
ATOM      4  C   UNL     1       1.062   0.540  23.536  0.00  0.00    +0.037 A 
ATOM      5  C   UNL     1       0.515   0.310  24.109  0.00  0.00    +0.008 A 
ATOM      6  C   UNL     1       0.050  -0.361  23.989  0.00  0.00    +0.054 A 
ATOM      7  C   UNL     1       0.131  -0.803  23.296  0.00  0.00    +0.008 A 
ATOM      8  C   UNL     1       0.679  -0.573  22.724  0.00  0.00    +0.037 A 
BRANCH   3   2
ATOM      1  C   UNL     1       2.491   0.143  22.364  0.00  0.00    +0.252 C 
ATOM      2  O   UNL     1       1.692   0.328  22.270  0.00  0.00    -0.471 OA
ENDBRANCH   3   2
ENDBRANCH   9   6
BRANCH  16  17
ATOM     17  C   UNL     1      -1.592  -1.051  25.708  0.00  0.00    +0.262 C 
ATOM     18  O   UNL     1      -0.984  -1.047  26.265  0.00  0.00    -0.271 OA
ATOM     19  N   UNL     1      -2.059  -1.724  25.611  0.00  0.00    -0.196 NA
BRANCH  19  20
ATOM     20  C   UNL     1      -2.667  -1.728  25.053  0.00  0.00    +0.173 C 
ATOM     21  C   UNL     1      -2.490  -1.690  24.249  0.00  0.00    +0.033 C 
ATOM     22  C   UNL     1      -3.098  -1.693  23.692  0.00  0.00    +0.026 C 
ATOM     23  C   UNL     1      -3.885  -1.734  23.940  0.00  0.00    +0.115 C 
ATOM     24  N   UNL     1      -4.062  -1.772  24.744  0.00  0.00    -0.204 NA
ATOM     25  C   UNL     1      -3.454  -1.769  25.301  0.00  0.00    +0.261 C 
ATOM     26  O   UNL     1      -3.630  -1.806  26.106  0.00  0.00    -0.271 OA
ENDBRANCH  19  20
ENDBRANCH  16  17
BRANCH  27  29
ATOM     29  C   UNL     1      -3.397   1.836  24.548  0.00  0.00    +0.240 C 
BRANCH  29  30
ATOM     30  S   UNL     1      -3.962   2.388  24.785  0.00  0.00    +0.018 S 
ATOM     31  O   UNL     1      -3.399   2.760  25.259  0.00  0.00    -0.168 OA
ATOM     32  O   UNL     1      -4.525   2.015  24.310  0.00  0.00    -0.168 OA
BRANCH  30  33
ATOM     33  C   UNL     1      -4.527   2.940  25.022  0.00  0.00    +0.106 A 
ATOM     34  C   UNL     1      -5.290   2.694  25.215  0.00  0.00    +0.018 A 
ATOM     35  C   UNL     1      -5.855   3.246  25.451  0.00  0.00    +0.001 A 
ATOM     36  C   UNL     1      -5.657   4.046  25.495  0.00  0.00    +0.000 A 
ATOM     37  C   UNL     1      -4.894   4.293  25.302  0.00  0.00    +0.001 A 
ATOM     38  C   UNL     1      -4.328   3.740  25.065  0.00  0.00    +0.018 A 
ENDBRANCH  30  33
ENDBRANCH  29  30
ENDBRANCH  27  29
TORSDOF 7
ENDMDL
MODEL 4
REMARK VINA RESULT:     -11.2      1.637      3.362
REMARK  Name = 
REMARK  7 active torsions:
REMARK  status: ('A' for Active; 'I' for Inactive)
REMARK    1  A    between atoms: O_2  and  C_3
REMARK    2  A    between atoms: C_6  and  C_9
REMARK    3  A    between atoms: C_16  and  C_17
REMARK    4  A    between atoms: N_19  and  C_20
REMARK    5  A    between atoms: C_27  and  C_29
REMARK    6  A    between atoms: C_29  and  S_30
REMARK    7  A    between atoms: S_30  and  C_33
REMARK                            x       y       z     vdW  Elec       q    Type
REMARK                         _______ _______ _______ _____ _____    ______ ____
ROOT
ATOM      9  C   UNL     1      -3.301   3.440  24.368  0.00  0.00    +0.249 C 
ATOM     10  O   UNL     1      -3.887   3.883  23.991  0.00  0.00    -0.270 OA
ATOM     11  N   UNL     1      -3.412   2.633  24.497  0.00  0.00    -0.266 N 
ATOM     12  C   UNL     1      -2.828   2.190  24.874  0.00  0.00    +0.116 C 
ATOM     13  C   UNL     1      -2.939   1.384  25.003  0.00  0.00    +0.115 C 
ATOM     14  N   UNL     1      -3.637   1.019  24.754  0.00  0.00    -0.274 N 
ATOM     15  C   UNL     1      -4.221   1.461  24.377  0.00  0.00    +0.123 C 
ATOM     16  C   UNL     1      -4.110   2.267  24.249  0.00  0.00    +0.174 C 
ATOM     27  C   UNL     1      -3.748   0.211  24.883  0.00  0.00    +0.250 C 
ATOM     28  O   UNL     1      -4.445  -0.154  24.635  0.00  0.00    -0.273 OA
ENDROOT
BRANCH   9   6
ATOM      3  C   UNL     1      -1.210   4.535  25.113  0.00  0.00    +0.139 A 
ATOM      4  C   UNL     1      -1.917   4.677  25.516  0.00  0.00    +0.037 A 
ATOM      5  C   UNL     1      -2.614   4.312  25.267  0.00  0.00    +0.008 A 
ATOM      6  C   UNL     1      -2.604   3.805  24.616  0.00  0.00    +0.054 A 
ATOM      7  C   UNL     1      -1.898   3.662  24.214  0.00  0.00    +0.008 A 
ATOM      8  C   UNL     1      -1.201   4.027  24.462  0.00  0.00    +0.037 A 
BRANCH   3   2
ATOM      1  C   UNL     1      -0.096   5.388  24.843  0.00  0.00    +0.252 C 
ATOM      2  O   UNL     1      -0.513   4.900  25.362  0.00  0.00    -0.471 OA
ENDBRANCH   3   2
ENDBRANCH   9   6
BRANCH  16  17
ATOM     17  C   UNL     1      -4.695   2.710  23.871  0.00  0.00    +0.262 C 
ATOM     18  O   UNL     1      -4.574   2.988  23.104  0.00  0.00    -0.271 OA
ATOM     19  N   UNL     1      -5.403   2.876  24.262  0.00  0.00    -0.196 NA
BRANCH  19  20
ATOM     20  C   UNL     1      -5.524   2.598  25.029  0.00  0.00    +0.173 C 
ATOM     21  C   UNL     1      -5.073   2.894  25.652  0.00  0.00    +0.033 C 
ATOM     22  C   UNL     1      -5.195   2.616  26.419  0.00  0.00    +0.026 C 
ATOM     23  C   UNL     1      -5.769   2.040  26.563  0.00  0.00    +0.115 C 
ATOM     24  N   UNL     1      -6.221   1.744  25.940  0.00  0.00    -0.204 NA
ATOM     25  C   UNL     1      -6.099   2.022  25.173  0.00  0.00    +0.261 C 
ATOM     26  O   UNL     1      -6.551   1.726  24.550  0.00  0.00    -0.271 OA
ENDBRANCH  19  20
ENDBRANCH  16  17
BRANCH  27  29
ATOM     29  C   UNL     1      -3.163  -0.231  25.260  0.00  0.00    +0.240 C 
BRANCH  29  30
ATOM     30  S   UNL     1      -3.060  -1.028  25.070  0.00  0.00    +0.018 S 
ATOM     31  O   UNL     1      -2.573  -0.813  24.440  0.00  0.00    -0.168 OA
ATOM     32  O   UNL     1      -3.548  -1.241  25.701  0.00  0.00    -0.168 OA
BRANCH  30  33
ATOM     33  C   UNL     1      -2.957  -1.823  24.881  0.00  0.00    +0.106 A 
ATOM     34  C   UNL     1      -3.593  -2.346  24.933  0.00  0.00    +0.018 A 
ATOM     35  C   UNL     1      -3.490  -3.142  24.743  0.00  0.00    +0.001 A 
ATOM     36  C   UNL     1      -2.751  -3.415  24.500  0.00  0.00    +0.000 A 
ATOM     37  C   UNL     1      -2.114  -2.894  24.448  0.00  0.00    +0.001 A 
ATOM     38  C   UNL     1      -2.218  -2.097  24.638  0.00  0.00    +0.018 A 
ENDBRANCH  30  33
ENDBRANCH  29  30
ENDBRANCH  27  29
TORSDOF 7
ENDMDL
MODEL 5
REMARK VINA RESULT:     -11.0      1.128      3.272
REMARK  Name = 
REMARK  7 active torsions:
REMARK  status: ('A' for Active; 'I' for Inactive)
REMARK    1  A    between atoms: O_2  and  C_3
REMARK    2  A    between atoms: C_6  and  C_9
REMARK    3  A    between atoms: C_16  and  C_17
REMARK    4  A    between atoms: N_19  and  C_20
REMARK    5  A    between atoms: C_27  and  C_29
REMARK    6  A    between atoms: C_29  and  S_30
REMARK    7  A    between atoms: S_30  and  C_33
REMARK                            x       y       z     vdW  Elec       q    Type
REMARK                         _______ _______ _______ _____ _____    ______ ____
ROOT
ATOM      9  C   UNL     1      -1.428   2.799  24.808  0.00  0.00    +0.249 C 
ATOM     10  O   UNL     1      -1.527   3.457  24.319  0.00  0.00    -0.270 OA
ATOM     11  N   UNL     1      -1.940   2.156  24.745  0.00  0.00    -0.266 N 
ATOM     12  C   UNL     1      -1.841   1.499  25.233  0.00  0.00    +0.116 C 
ATOM     13  C   UNL     1      -2.353   0.856  25.169  0.00  0.00    +0.115 C 
ATOM     14  N   UNL     1      -2.966   0.870  24.616  0.00  0.00    -0.274 N 
ATOM     15  C   UNL     1      -3.066   1.527  24.128  0.00  0.00    +0.123 C 
ATOM     16  C   UNL     1      -2.554   2.170  24.192  0.00  0.00    +0.174 C 
ATOM     27  C   UNL     1      -3.479   0.227  24.553  0.00  0.00    +0.250 C 
ATOM     28  O   UNL     1      -4.092   0.241  24.001  0.00  0.00    -0.273 OA
ENDROOT
BRANCH   9   6
ATOM      3  C   UNL     1       0.410   2.757  26.465  0.00  0.00    +0.139 A 
ATOM      4  C   UNL     1       0.510   2.399  25.728  0.00  0.00    +0.037 A 
ATOM      5  C   UNL     1      -0.102   2.413  25.175  0.00  0.00    +0.008 A 
ATOM      6  C   UNL     1      -0.815   2.785  25.360  0.00  0.00    +0.054 A 
ATOM      7  C   UNL     1      -0.916   3.144  26.096  0.00  0.00    +0.008 A 
ATOM      8  C   UNL     1      -0.303   3.130  26.649  0.00  0.00    +0.037 A 
BRANCH   3   2
ATOM      1  C   UNL     1       0.896   2.422  27.767  0.00  0.00    +0.252 C 
ATOM      2  O   UNL     1       1.023   2.743  27.017  0.00  0.00    -0.471 OA
ENDBRANCH   3   2
ENDBRANCH   9   6
BRANCH  16  17
ATOM     17  C   UNL     1      -2.653   2.827  23.703  0.00  0.00    +0.262 C 
ATOM     18  O   UNL     1      -2.119   2.972  23.091  0.00  0.00    -0.271 OA
ATOM     19  N   UNL     1      -3.287   3.340  23.827  0.00  0.00    -0.196 NA
BRANCH  19  20
ATOM     20  C   UNL     1      -3.821   3.195  24.439  0.00  0.00    +0.173 C 
ATOM     21  C   UNL     1      -3.585   3.288  25.224  0.00  0.00    +0.033 C 
ATOM     22  C   UNL     1      -4.119   3.143  25.835  0.00  0.00    +0.026 C 
ATOM     23  C   UNL     1      -4.891   2.904  25.661  0.00  0.00    +0.115 C 
ATOM     24  N   UNL     1      -5.127   2.811  24.877  0.00  0.00    -0.204 NA
ATOM     25  C   UNL     1      -4.593   2.957  24.266  0.00  0.00    +0.261 C 
ATOM     26  O   UNL     1      -4.829   2.864  23.480  0.00  0.00    -0.271 OA
ENDBRANCH  19  20
ENDBRANCH  16  17
BRANCH  27  29
ATOM     29  C   UNL     1      -3.379  -0.430  25.041  0.00  0.00    +0.240 C 
BRANCH  29  30
ATOM     30  S   UNL     1      -3.550  -1.186  24.758  0.00  0.00    +0.018 S 
ATOM     31  O   UNL     1      -4.337  -1.092  24.987  0.00  0.00    -0.168 OA
ATOM     32  O   UNL     1      -2.763  -1.278  24.529  0.00  0.00    -0.168 OA
BRANCH  30  33
ATOM     33  C   UNL     1      -3.722  -1.941  24.474  0.00  0.00    +0.106 A 
ATOM     34  C   UNL     1      -4.283  -2.041  23.878  0.00  0.00    +0.018 A 
ATOM     35  C   UNL     1      -4.454  -2.796  23.594  0.00  0.00    +0.001 A 
ATOM     36  C   UNL     1      -4.064  -3.452  23.907  0.00  0.00    +0.000 A 
ATOM     37  C   UNL     1      -3.503  -3.353  24.504  0.00  0.00    +0.001 A 
ATOM     38  C   UNL     1      -3.331  -2.597  24.787  0.00  0.00    +0.018 A 
ENDBRANCH  30  33
ENDBRANCH  29  30
ENDBRANCH  27  29
TORSDOF 7
ENDMDL
MODEL 6
REMARK VINA RESULT:     -10.3      1.911      3.929
REMARK  Name = 
REMARK  7 active torsions:
REMARK  status: ('A' for Active; 'I' for Inactive)
REMARK    1  A    between atoms: O_2  and  C_3
REMARK    2  A    between atoms: C_6  and  C_9
REMARK    3  A    between atoms: C_16  and  C_17
REMARK    4  A    between atoms: N_19  and  C_20
REMARK    5  A    between atoms: C_27  and  C_29
REMARK    6  A    between atoms: C_29  and  S_30
REMARK    7  A    between atoms: S_30  and  C_33
REMARK                            x       y       z     vdW  Elec       q    Type
REMARK                         _______ _______ _______ _____ _____    ______ ____
ROOT
ATOM      9  C   UNL     1      -4.485   0.673  24.435  0.00  0.00    +0.249 C 
ATOM     10  O   UNL     1      -5.074   0.119  24.269  0.00  0.00    -0.270 OA
ATOM     11  N   UNL     1      -3.690   0.471  24.344  0.00  0.00    -0.266 N 
ATOM     12  C   UNL     1      -3.102   1.025  24.510  0.00  0.00    +0.116 C 
ATOM     13  C   UNL     1      -2.308   0.823  24.420  0.00  0.00    +0.115 C 
ATOM     14  N   UNL     1      -2.101   0.065  24.163  0.00  0.00    -0.274 N 
ATOM     15  C   UNL     1      -2.689  -0.488  23.997  0.00  0.00    +0.123 C 
ATOM     16  C   UNL     1      -3.483  -0.286  24.087  0.00  0.00    +0.174 C 
ATOM     27  C   UNL     1      -1.306  -0.136  24.072  0.00  0.00    +0.250 C 
ATOM     28  O   UNL     1      -1.100  -0.893  23.815  0.00  0.00    -0.273 OA
ENDROOT
BRANCH   9   6
ATOM      3  C   UNL     1      -5.104   2.942  25.205  0.00  0.00    +0.139 A 
ATOM      4  C   UNL     1      -4.747   2.839  24.468  0.00  0.00    +0.037 A 
ATOM      5  C   UNL     1      -4.540   2.083  24.211  0.00  0.00    +0.008 A 
ATOM      6  C   UNL     1      -4.691   1.429  24.692  0.00  0.00    +0.054 A 
ATOM      7  C   UNL     1      -5.049   1.531  25.428  0.00  0.00    +0.008 A 
ATOM      8  C   UNL     1      -5.255   2.287  25.685  0.00  0.00    +0.037 A 
BRANCH   3   2
ATOM      1  C   UNL     1      -4.747   4.179  25.827  0.00  0.00    +0.252 C 
ATOM      2  O   UNL     1      -5.311   3.698  25.462  0.00  0.00    -0.471 OA
ENDBRANCH   3   2
ENDBRANCH   9   6
BRANCH  16  17
ATOM     17  C   UNL     1      -4.072  -0.840  23.921  0.00  0.00    +0.262 C 
ATOM     18  O   UNL     1      -4.552  -0.747  23.256  0.00  0.00    -0.271 OA
ATOM     19  N   UNL     1      -4.182  -1.487  24.421  0.00  0.00    -0.196 NA
BRANCH  19  20
ATOM     20  C   UNL     1      -3.703  -1.579  25.086  0.00  0.00    +0.173 C 
ATOM     21  C   UNL     1      -3.737  -1.030  25.700  0.00  0.00    +0.033 C 
ATOM     22  C   UNL     1      -3.258  -1.123  26.364  0.00  0.00    +0.026 C 
ATOM     23  C   UNL     1      -2.743  -1.767  26.415  0.00  0.00    +0.115 C 
ATOM     24  N   UNL     1      -2.709  -2.316  25.802  0.00  0.00    -0.204 NA
ATOM     25  C   UNL     1      -3.188  -2.223  25.137  0.00  0.00    +0.261 C 
ATOM     26  O   UNL     1      -3.153  -2.773  24.523  0.00  0.00    -0.271 OA
ENDBRANCH  19  20
ENDBRANCH  16  17
BRANCH  27  29
ATOM     29  C   UNL     1      -0.718   0.417  24.238  0.00  0.00    +0.240 C 
BRANCH  29  30
ATOM     30  S   UNL     1       0.011   0.374  23.854  0.00  0.00    +0.018 S 
ATOM     31  O   UNL     1      -0.205   1.011  23.376  0.00  0.00    -0.168 OA
ATOM     32  O   UNL     1       0.225  -0.263  24.332  0.00  0.00    -0.168 OA
BRANCH  30  33
ATOM     33  C   UNL     1       0.739   0.331  23.469  0.00  0.00    +0.106 A 
ATOM     34  C   UNL     1       0.866  -0.241  22.889  0.00  0.00    +0.018 A 
ATOM     35  C   UNL     1       1.594  -0.284  22.504  0.00  0.00    +0.001 A 
ATOM     36  C   UNL     1       2.196   0.246  22.700  0.00  0.00    +0.000 A 
ATOM     37  C   UNL     1       2.069   0.818  23.280  0.00  0.00    +0.001 A 
ATOM     38  C   UNL     1       1.340   0.861  23.665  0.00  0.00    +0.018 A 
ENDBRANCH  30  33
ENDBRANCH  29  30
ENDBRANCH  27  29
TORSDOF 7
ENDMDL
MODEL 7
REMARK VINA RESULT:     -10.2      1.384      4.525
REMARK  Name = 
REMARK  7 active torsions:
REMARK  status: ('A' for Active; 'I' for Inactive)
REMARK    1  A    between atoms: O_2  and  C_3
REMARK    2  A    between atoms: C_6  and  C_9
REMARK    3  A    between atoms: C_16  and  C_17
REMARK    4  A    between atoms: N_19  and  C_20
REMARK    5  A    between atoms: C_27  and  C_29
REMARK    6  A    between atoms: C_29  and  S_30
REMARK    7  A    between atoms: S_30  and  C_33
REMARK                            x       y       z     vdW  Elec       q    Type
REMARK                         _______ _______ _______ _____ _____    ______ ____
ROOT
ATOM      9  C   UNL     1      -0.899  -0.363  24.257  0.00  0.00    +0.249 C 
ATOM     10  O   UNL     1      -0.077  -0.307  24.212  0.00  0.00    -0.270 OA
ATOM     11  N   UNL     1      -1.369   0.292  24.081  0.00  0.00    -0.266 N 
ATOM     12  C   UNL     1      -2.190   0.236  24.127  0.00  0.00    +0.116 C 
ATOM     13  C   UNL     1      -2.659   0.891  23.950  0.00  0.00    +0.115 C 
ATOM     14  N   UNL     1      -2.305   1.603  23.727  0.00  0.00    -0.274 N 
ATOM     15  C   UNL     1      -1.484   1.660  23.682  0.00  0.00    +0.123 C 
ATOM     16  C   UNL     1      -1.015   1.005  23.858  0.00  0.00    +0.174 C 
ATOM     27  C   UNL     1      -2.775   2.259  23.551  0.00  0.00    +0.250 C 
ATOM     28  O   UNL     1      -2.422   2.970  23.328  0.00  0.00    -0.273 OA
ENDROOT
BRANCH   9   6
ATOM      3  C   UNL     1      -1.957  -2.498  24.925  0.00  0.00    +0.139 A 
ATOM      4  C   UNL     1      -1.765  -2.362  24.134  0.00  0.00    +0.037 A 
ATOM      5  C   UNL     1      -1.412  -1.650  23.911  0.00  0.00    +0.008 A 
ATOM      6  C   UNL     1      -1.252  -1.074  24.480  0.00  0.00    +0.054 A 
ATOM      7  C   UNL     1      -1.444  -1.209  25.271  0.00  0.00    +0.008 A 
ATOM      8  C   UNL     1      -1.796  -1.921  25.494  0.00  0.00    +0.037 A 
BRANCH   3   2
ATOM      1  C   UNL     1      -3.131  -3.292  25.114  0.00  0.00    +0.252 C 
ATOM      2  O   UNL     1      -2.310  -3.210  25.148  0.00  0.00    -0.471 OA
ENDBRANCH   3   2
ENDBRANCH   9   6
BRANCH  16  17
ATOM     17  C   UNL     1      -0.193   1.061  23.812  0.00  0.00    +0.262 C 
ATOM     18  O   UNL     1       0.216   0.658  23.220  0.00  0.00    -0.271 OA
ATOM     19  N   UNL     1       0.219   1.520  24.359  0.00  0.00    -0.196 NA
BRANCH  19  20
ATOM     20  C   UNL     1      -0.190   1.923  24.952  0.00  0.00    +0.173 C 
ATOM     21  C   UNL     1      -0.574   1.502  25.548  0.00  0.00    +0.033 C 
ATOM     22  C   UNL     1      -0.983   1.904  26.139  0.00  0.00    +0.026 C 
ATOM     23  C   UNL     1      -1.009   2.730  26.135  0.00  0.00    +0.115 C 
ATOM     24  N   UNL     1      -0.625   3.151  25.539  0.00  0.00    -0.204 NA
ATOM     25  C   UNL     1      -0.216   2.748  24.948  0.00  0.00    +0.261 C 
ATOM     26  O   UNL     1       0.169   3.169  24.351  0.00  0.00    -0.271 OA
ENDBRANCH  19  20
ENDBRANCH  16  17
BRANCH  27  29
ATOM     29  C   UNL     1      -3.596   2.202  23.597  0.00  0.00    +0.240 C 
BRANCH  29  30
ATOM     30  S   UNL     1      -4.014   2.676  24.128  0.00  0.00    +0.018 S 
ATOM     31  O   UNL     1      -4.345   2.001  24.468  0.00  0.00    -0.168 OA
ATOM     32  O   UNL     1      -3.683   3.351  23.787  0.00  0.00    -0.168 OA
BRANCH  30  33
ATOM     33  C   UNL     1      -4.432   3.149  24.658  0.00  0.00    +0.106 A 
ATOM     34  C   UNL     1      -4.181   3.920  24.811  0.00  0.00    +0.018 A 
ATOM     35  C   UNL     1      -4.598   4.393  25.341  0.00  0.00    +0.001 A 
ATOM     36  C   UNL     1      -5.268   4.095  25.721  0.00  0.00    +0.000 A 
ATOM     37  C   UNL     1      -5.519   3.324  25.570  0.00  0.00    +0.001 A 
ATOM     38  C   UNL     1      -5.101   2.851  25.038  0.00  0.00    +0.018 A 
ENDBRANCH  30  33
ENDBRANCH  29  30
ENDBRANCH  27  29
TORSDOF 7
ENDMDL
