MODEL 1
REMARK VINA RESULT:     -10.5      0.000      0.000
REMARK  Name = 
REMARK  6 active torsions:
REMARK  status: ('A' for Active; 'I' for Inactive)
REMARK    1  A    between atoms: C_2  and  C_5
REMARK    2  A    between atoms: N_10  and  C_11
REMARK    3  A    between atoms: C_15  and  N_19
REMARK    4  A    between atoms: N_19  and  S_20
REMARK    5  A    between atoms: S_20  and  C_23
REMARK    6  A    between atoms: C_28  and  C_29
REMARK                            x       y       z     vdW  Elec       q    Type
REMARK                         _______ _______ _______ _____ _____    ______ ____
ROOT
ATOM     11  C   UNL     1      -3.611   2.414  24.586  0.00  0.00    +0.154 C 
ATOM     12  C   UNL     1      -4.123   2.258  25.213  0.00  0.00    +0.166 C 
ATOM     13  O   UNL     1      -4.336   1.462  25.177  0.00  0.00    -0.350 OA
ATOM     14  C   UNL     1      -3.956   1.126  24.528  0.00  0.00    +0.164 C 
ATOM     15  C   UNL     1      -3.851   0.426  24.103  0.00  0.00    +0.157 C 
ATOM     16  C   UNL     1      -3.339   0.581  23.476  0.00  0.00    +0.164 C 
ATOM     17  O   UNL     1      -3.126   1.377  23.512  0.00  0.00    -0.350 OA
ATOM     18  C   UNL     1      -3.507   1.714  24.162  0.00  0.00    +0.166 C 
ENDROOT
BRANCH  11  10
ATOM      5  C   UNL     1      -1.665   4.427  25.161  0.00  0.00    +0.063 A 
ATOM      6  C   UNL     1      -1.387   3.977  25.794  0.00  0.00    +0.035 A 
ATOM      7  C   UNL     1      -1.735   3.249  25.967  0.00  0.00    +0.103 A 
ATOM      8  N   UNL     1      -2.360   2.970  25.507  0.00  0.00    -0.211 NA
ATOM      9  C   UNL     1      -2.638   3.421  24.873  0.00  0.00    +0.236 A 
ATOM     10  N   UNL     1      -3.263   3.142  24.413  0.00  0.00    -0.200 NA
ATOM     31  N   UNL     1      -2.290   4.148  24.700  0.00  0.00    -0.217 NA
BRANCH   5   2
ATOM      1  C   UNL     1      -0.969   5.882  24.815  0.00  0.00    +0.006 C 
ATOM      2  C   UNL     1      -1.317   5.154  24.988  0.00  0.00    +0.036 C 
ATOM      3  C   UNL     1      -0.642   4.767  24.717  0.00  0.00    +0.006 C 
ATOM      4  C   UNL     1      -1.993   5.542  25.259  0.00  0.00    +0.006 C 
ENDBRANCH   5   2
ENDBRANCH  11  10
BRANCH  15  19
ATOM     19  N   UNL     1      -4.199  -0.302  24.276  0.00  0.00    -0.074 NA
BRANCH  19  20
ATOM     20  S   UNL     1      -3.727  -0.970  24.384  0.00  0.00    +0.078 S 
ATOM     21  O   UNL     1      -3.901  -0.962  25.190  0.00  0.00    -0.152 OA
ATOM     22  O   UNL     1      -3.553  -0.977  23.577  0.00  0.00    -0.152 OA
BRANCH  20  23
ATOM     23  C   UNL     1      -3.255  -1.638  24.492  0.00  0.00    +0.133 A 
ATOM     24  C   UNL     1      -2.502  -1.562  24.821  0.00  0.00    +0.021 A 
ATOM     25  C   UNL     1      -2.030  -2.230  24.929  0.00  0.00    +0.001 A 
ATOM     26  C   UNL     1      -2.310  -2.973  24.709  0.00  0.00    +0.001 A 
ATOM     27  C   UNL     1      -3.062  -3.049  24.380  0.00  0.00    +0.012 A 
ATOM     28  C   UNL     1      -3.535  -2.382  24.272  0.00  0.00    +0.087 A 
BRANCH  28  29
ATOM     29  C   UNL     1      -4.288  -2.458  23.943  0.00  0.00    +0.102 C 
ATOM     30  N   UNL     1      -5.041  -2.535  23.614  0.00  0.00    -0.191 NA
ENDBRANCH  28  29
ENDBRANCH  20  23
ENDBRANCH  19  20
ENDBRANCH  15  19
TORSDOF 6
ENDMDL
MODEL 2
REMARK VINA RESULT:     -10.4      1.948      6.004
REMARK  Name = 
REMARK  6 active torsions:
REMARK  status: ('A' for Active; 'I' for Inactive)
REMARK    1  A    between atoms: C_2  and  C_5
REMARK    2  A    between atoms: N_10  and  C_11
REMARK    3  A    between atoms: C_15  and  N_19
REMARK    4  A    between atoms: N_19  and  S_20
REMARK    5  A    between atoms: S_20  and  C_23
REMARK    6  A    between atoms: C_28  and  C_29
REMARK                            x       y       z     vdW  Elec       q    Type
REMARK                         _______ _______ _______ _____ _____    ______ ____
ROOT
ATOM     11  C   UNL     1      -1.386   0.014  24.640  0.00  0.00    +0.154 C 
ATOM     12  C   UNL     1      -0.972   0.069  25.351  0.00  0.00    +0.166 C 
ATOM     13  O   UNL     1      -0.758   0.858  25.460  0.00  0.00    -0.350 OA
ATOM     14  C   UNL     1      -1.039   1.291  24.817  0.00  0.00    +0.164 C 
ATOM     15  C   UNL     1      -1.082   2.045  24.486  0.00  0.00    +0.157 C 
ATOM     16  C   UNL     1      -1.496   1.990  23.775  0.00  0.00    +0.164 C 
ATOM     17  O   UNL     1      -1.709   1.201  23.666  0.00  0.00    -0.350 OA
ATOM     18  C   UNL     1      -1.428   0.768  24.310  0.00  0.00    +0.166 C 
ENDROOT
BRANCH  11  10
ATOM      5  C   UNL     1      -3.330  -2.081  24.695  0.00  0.00    +0.063 A 
ATOM      6  C   UNL     1      -3.668  -1.750  25.370  0.00  0.00    +0.035 A 
ATOM      7  C   UNL     1      -3.351  -1.060  25.694  0.00  0.00    +0.103 A 
ATOM      8  N   UNL     1      -2.696  -0.702  25.343  0.00  0.00    -0.211 NA
ATOM      9  C   UNL     1      -2.358  -1.034  24.667  0.00  0.00    +0.236 A 
ATOM     10  N   UNL     1      -1.703  -0.676  24.316  0.00  0.00    -0.200 NA
ATOM     31  N   UNL     1      -2.675  -1.723  24.343  0.00  0.00    -0.217 NA
BRANCH   5   2
ATOM      1  C   UNL     1      -3.964  -3.460  24.047  0.00  0.00    +0.006 C 
ATOM      2  C   UNL     1      -3.646  -2.770  24.371  0.00  0.00    +0.036 C 
ATOM      3  C   UNL     1      -4.116  -2.317  23.867  0.00  0.00    +0.006 C 
ATOM      4  C   UNL     1      -3.176  -3.224  24.875  0.00  0.00    +0.006 C 
ENDBRANCH   5   2
ENDBRANCH  11  10
BRANCH  15  19
ATOM     19  N   UNL     1      -0.765   2.735  24.810  0.00  0.00    -0.074 NA
BRANCH  19  20
ATOM     20  S   UNL     1      -1.266   3.334  25.075  0.00  0.00    +0.078 S 
ATOM     21  O   UNL     1      -0.969   3.243  25.840  0.00  0.00    -0.152 OA
ATOM     22  O   UNL     1      -1.562   3.425  24.311  0.00  0.00    -0.152 OA
BRANCH  20  23
ATOM     23  C   UNL     1      -1.766   3.934  25.342  0.00  0.00    +0.133 A 
ATOM     24  C   UNL     1      -2.473   3.742  25.723  0.00  0.00    +0.021 A 
ATOM     25  C   UNL     1      -2.973   4.341  25.989  0.00  0.00    +0.001 A 
ATOM     26  C   UNL     1      -2.768   5.131  25.875  0.00  0.00    +0.001 A 
ATOM     27  C   UNL     1      -2.062   5.323  25.494  0.00  0.00    +0.012 A 
ATOM     28  C   UNL     1      -1.561   4.724  25.227  0.00  0.00    +0.087 A 
BRANCH  28  29
ATOM     29  C   UNL     1      -0.855   4.916  24.846  0.00  0.00    +0.102 C 
ATOM     30  N   UNL     1      -0.149   5.108  24.465  0.00  0.00    -0.191 NA
ENDBRANCH  28  29
ENDBRANCH  20  23
ENDBRANCH  19  20
ENDBRANCH  15  19
TORSDOF 6
ENDMDL
MODEL 3
REMARK VINA RESULT:      -9.9      1.599      1.953
REMARK  Name = 
REMARK  6 active torsions:
REMARK  status: ('A' for Active; 'I' for Inactive)
REMARK    1  A    between atoms: C_2  and  C_5
REMARK    2  A    between atoms: N_10  and  C_11
REMARK    3  A    between atoms: C_15  and  N_19
REMARK    4  A    between atoms: N_19  and  S_20
REMARK    5  A    between atoms: S_20  and  C_23
REMARK    6  A    between atoms: C_28  and  C_29
REMARK                            x       y       z     vdW  Elec       q    Type
REMARK                         _______ _______ _______ _____ _____    ______ ____
ROOT
ATOM     11  C   UNL     1      -0.862   1.845  25.116  0.00  0.00    +0.154 C 
ATOM     12  C   UNL     1      -0.690   1.545  25.865  0.00  0.00    +0.166 C 
ATOM     13  O   UNL     1      -0.909   0.750  25.876  0.00  0.00    -0.350 OA
ATOM     14  C   UNL     1      -1.216   0.558  25.136  0.00  0.00    +0.164 C 
ATOM     15  C   UNL     1      -1.541  -0.051  24.684  0.00  0.00    +0.157 C 
ATOM     16  C   UNL     1      -1.714   0.249  23.936  0.00  0.00    +0.164 C 
ATOM     17  O   UNL     1      -1.495   1.044  23.924  0.00  0.00    -0.350 OA
ATOM     18  C   UNL     1      -1.187   1.236  24.666  0.00  0.00    +0.166 C 
ENDROOT
BRANCH  11  10
ATOM      5  C   UNL     1      -1.504   4.628  25.231  0.00  0.00    +0.063 A 
ATOM      6  C   UNL     1      -2.085   4.471  25.795  0.00  0.00    +0.035 A 
ATOM      7  C   UNL     1      -2.215   3.696  26.049  0.00  0.00    +0.103 A 
ATOM      8  N   UNL     1      -1.764   3.079  25.738  0.00  0.00    -0.211 NA
ATOM      9  C   UNL     1      -1.183   3.237  25.173  0.00  0.00    +0.236 A 
ATOM     10  N   UNL     1      -0.732   2.620  24.862  0.00  0.00    -0.200 NA
ATOM     31  N   UNL     1      -1.053   4.011  24.920  0.00  0.00    -0.217 NA
BRANCH   5   2
ATOM      1  C   UNL     1      -1.244   6.177  24.724  0.00  0.00    +0.006 C 
ATOM      2  C   UNL     1      -1.374   5.402  24.978  0.00  0.00    +0.036 C 
ATOM      3  C   UNL     1      -0.585   5.220  24.826  0.00  0.00    +0.006 C 
ATOM      4  C   UNL     1      -2.165   5.584  25.129  0.00  0.00    +0.006 C 
ENDBRANCH   5   2
ENDBRANCH  11  10
BRANCH  15  19
ATOM     19  N   UNL     1      -1.671  -0.826  24.938  0.00  0.00    -0.074 NA
BRANCH  19  20
ATOM     20  S   UNL     1      -2.347  -1.231  24.695  0.00  0.00    +0.078 S 
ATOM     21  O   UNL     1      -2.690  -1.101  25.434  0.00  0.00    -0.152 OA
ATOM     22  O   UNL     1      -2.004  -1.362  23.956  0.00  0.00    -0.152 OA
BRANCH  20  23
ATOM     23  C   UNL     1      -3.024  -1.637  24.454  0.00  0.00    +0.133 A 
ATOM     24  C   UNL     1      -3.706  -1.218  24.254  0.00  0.00    +0.021 A 
ATOM     25  C   UNL     1      -4.383  -1.624  24.013  0.00  0.00    +0.001 A 
ATOM     26  C   UNL     1      -4.377  -2.448  23.970  0.00  0.00    +0.001 A 
ATOM     27  C   UNL     1      -3.695  -2.866  24.169  0.00  0.00    +0.012 A 
ATOM     28  C   UNL     1      -3.018  -2.461  24.411  0.00  0.00    +0.087 A 
BRANCH  28  29
ATOM     29  C   UNL     1      -2.335  -2.880  24.610  0.00  0.00    +0.102 C 
ATOM     30  N   UNL     1      -1.653  -3.298  24.808  0.00  0.00    -0.191 NA
ENDBRANCH  28  29
ENDBRANCH  20  23
ENDBRANCH  19  20
ENDBRANCH  15  19
TORSDOF 6
ENDMDL
MODEL 4
REMARK VINA RESULT:      -9.8      1.348      5.843
REMARK  Name = 
REMARK  6 active torsions:
REMARK  status: ('A' for Active; 'I' for Inactive)
REMARK    1  A    between atoms: C_2  and  C_5
REMARK    2  A    between atoms: N_10  and  C_11
REMARK    3  A    between atoms: C_15  and  N_19
REMARK    4  A    between atoms: N_19  and  S_20
REMARK    5  A    between atoms: S_20  and  C_23
REMARK    6  A    between atoms: C_28  and  C_29
REMARK                            x       y       z     vdW  Elec       q    Type
REMARK                         _______ _______ _______ _____ _____    ______ ____
ROOT
ATOM     11  C   UNL     1      -4.224   0.591  24.499  0.00  0.00    +0.154 C 
ATOM     12  C   UNL     1      -4.632   0.825  25.176  0.00  0.00    +0.166 C 
ATOM     13  O   UNL     1      -4.427   1.607  25.339  0.00  0.00    -0.350 OA
ATOM     14  C   UNL     1      -3.892   1.857  24.764  0.00  0.00    +0.164 C 
ATOM     15  C   UNL     1      -3.435   2.493  24.508  0.00  0.00    +0.157 C 
ATOM     16  C   UNL     1      -3.026   2.260  23.831  0.00  0.00    +0.164 C 
ATOM     17  O   UNL     1      -3.232   1.478  23.667  0.00  0.00    -0.350 OA
ATOM     18  C   UNL     1      -3.767   1.228  24.244  0.00  0.00    +0.166 C 
ENDROOT
BRANCH  11  10
ATOM      5  C   UNL     1      -3.738  -2.225  24.569  0.00  0.00    +0.063 A 
ATOM      6  C   UNL     1      -3.411  -2.150  25.322  0.00  0.00    +0.035 A 
ATOM      7  C   UNL     1      -3.370  -1.408  25.682  0.00  0.00    +0.103 A 
ATOM      8  N   UNL     1      -3.654  -0.741  25.288  0.00  0.00    -0.211 NA
ATOM      9  C   UNL     1      -3.981  -0.817  24.533  0.00  0.00    +0.236 A 
ATOM     10  N   UNL     1      -4.266  -0.150  24.139  0.00  0.00    -0.200 NA
ATOM     31  N   UNL     1      -4.023  -1.558  24.174  0.00  0.00    -0.217 NA
BRANCH   5   2
ATOM      1  C   UNL     1      -3.822  -3.707  23.850  0.00  0.00    +0.006 C 
ATOM      2  C   UNL     1      -3.780  -2.966  24.210  0.00  0.00    +0.036 C 
ATOM      3  C   UNL     1      -4.462  -2.733  23.809  0.00  0.00    +0.006 C 
ATOM      4  C   UNL     1      -3.097  -3.199  24.611  0.00  0.00    +0.006 C 
ENDBRANCH   5   2
ENDBRANCH  11  10
BRANCH  15  19
ATOM     19  N   UNL     1      -3.393   3.235  24.868  0.00  0.00    -0.074 NA
BRANCH  19  20
ATOM     20  S   UNL     1      -2.683   3.657  24.863  0.00  0.00    +0.078 S 
ATOM     21  O   UNL     1      -2.932   4.067  24.193  0.00  0.00    -0.152 OA
ATOM     22  O   UNL     1      -2.435   3.246  25.534  0.00  0.00    -0.152 OA
BRANCH  20  23
ATOM     23  C   UNL     1      -1.974   4.079  24.858  0.00  0.00    +0.133 A 
ATOM     24  C   UNL     1      -1.334   3.803  24.417  0.00  0.00    +0.021 A 
ATOM     25  C   UNL     1      -0.625   4.225  24.412  0.00  0.00    +0.001 A 
ATOM     26  C   UNL     1      -0.556   4.922  24.848  0.00  0.00    +0.001 A 
ATOM     27  C   UNL     1      -1.196   5.196  25.289  0.00  0.00    +0.012 A 
ATOM     28  C   UNL     1      -1.905   4.775  25.295  0.00  0.00    +0.087 A 
BRANCH  28  29
ATOM     29  C   UNL     1      -2.546   5.050  25.737  0.00  0.00    +0.102 C 
ATOM     30  N   UNL     1      -3.185   5.325  26.178  0.00  0.00    -0.191 NA
ENDBRANCH  28  29
ENDBRANCH  20  23
ENDBRANCH  19  20
ENDBRANCH  15  19
TORSDOF 6
ENDMDL
MODEL 5
REMARK VINA RESULT:      -9.5      3.714      5.030
REMARK  Name = 
REMARK  6 active torsions:
REMARK  status: ('A' for Active; 'I' for Inactive)
REMARK    1  A    between atoms: C_2  and  C_5
REMARK    2  A    between atoms: N_10  and  C_11
REMARK    3  A    between atoms: C_15  and  N_19
REMARK    4  A    between atoms: N_19  and  S_20
REMARK    5  A    between atoms: S_20  and  C_23
REMARK    6  A    between atoms: C_28  and  C_29
REMARK                            x       y       z     vdW  Elec       q    Type
REMARK                         _______ _______ _______ _____ _____    ______ ____
ROOT
ATOM     11  C   UNL     1       0.198   0.811  23.950  0.00  0.00    +0.154 C 
ATOM     12  C   UNL     1      -0.137   0.057  23.931  0.00  0.00    +0.166 C 
ATOM     13  O   UNL     1      -0.957   0.143  23.937  0.00  0.00    -0.350 OA
ATOM     14  C   UNL     1      -1.130   0.948  23.959  0.00  0.00    +0.164 C 
ATOM     15  C   UNL     1      -1.743   1.500  23.977  0.00  0.00    +0.157 C 
ATOM     16  C   UNL     1      -1.408   2.254  23.995  0.00  0.00    +0.164 C 
ATOM     17  O   UNL     1      -0.588   2.168  23.989  0.00  0.00    -0.350 OA
ATOM     18  C   UNL     1      -0.416   1.361  23.967  0.00  0.00    +0.166 C 
ENDROOT
BRANCH  11  10
ATOM      5  C   UNL     1       2.807   0.451  22.840  0.00  0.00    +0.063 A 
ATOM      6  C   UNL     1       2.498  -0.073  22.283  0.00  0.00    +0.035 A 
ATOM      7  C   UNL     1       1.691  -0.246  22.282  0.00  0.00    +0.103 A 
ATOM      8  N   UNL     1       1.193   0.106  22.838  0.00  0.00    -0.211 NA
ATOM      9  C   UNL     1       1.503   0.631  23.395  0.00  0.00    +0.236 A 
ATOM     10  N   UNL     1       1.005   0.983  23.951  0.00  0.00    -0.200 NA
ATOM     31  N   UNL     1       2.309   0.803  23.395  0.00  0.00    -0.217 NA
BRANCH   5   2
ATOM      1  C   UNL     1       4.421   0.795  22.841  0.00  0.00    +0.006 C 
ATOM      2  C   UNL     1       3.613   0.623  22.840  0.00  0.00    +0.036 C 
ATOM      3  C   UNL     1       3.776  -0.139  23.110  0.00  0.00    +0.006 C 
ATOM      4  C   UNL     1       3.451   1.386  22.570  0.00  0.00    +0.006 C 
ENDBRANCH   5   2
ENDBRANCH  11  10
BRANCH  15  19
ATOM     19  N   UNL     1      -2.550   1.328  23.976  0.00  0.00    -0.074 NA
BRANCH  19  20
ATOM     20  S   UNL     1      -3.088   1.870  24.287  0.00  0.00    +0.078 S 
ATOM     21  O   UNL     1      -3.284   2.113  23.523  0.00  0.00    -0.152 OA
ATOM     22  O   UNL     1      -2.892   1.627  25.051  0.00  0.00    -0.152 OA
BRANCH  20  23
ATOM     23  C   UNL     1      -3.627   2.413  24.597  0.00  0.00    +0.133 A 
ATOM     24  C   UNL     1      -3.414   3.207  24.673  0.00  0.00    +0.021 A 
ATOM     25  C   UNL     1      -3.953   3.749  24.983  0.00  0.00    +0.001 A 
ATOM     26  C   UNL     1      -4.703   3.499  25.217  0.00  0.00    +0.001 A 
ATOM     27  C   UNL     1      -4.915   2.706  25.141  0.00  0.00    +0.012 A 
ATOM     28  C   UNL     1      -4.377   2.162  24.831  0.00  0.00    +0.087 A 
BRANCH  28  29
ATOM     29  C   UNL     1      -4.589   1.368  24.755  0.00  0.00    +0.102 C 
ATOM     30  N   UNL     1      -4.802   0.575  24.679  0.00  0.00    -0.191 NA
ENDBRANCH  28  29
ENDBRANCH  20  23
ENDBRANCH  19  20
ENDBRANCH  15  19
TORSDOF 6
ENDMDL
MODEL 6
REMARK VINA RESULT:      -8.8      3.762      4.365
REMARK  Name = 
REMARK  6 active torsions:
REMARK  status: ('A' for Active; 'I' for Inactive)
REMARK    1  A    between atoms: C_2  and  C_5
REMARK    2  A    between atoms: N_10  and  C_11
REMARK    3  A    between atoms: C_15  and  N_19
REMARK    4  A    between atoms: N_19  and  S_20
REMARK    5  A    between atoms: S_20  and  C_23
REMARK    6  A    between atoms: C_28  and  C_29
REMARK                            x       y       z     vdW  Elec       q    Type
REMARK                         _______ _______ _______ _____ _____    ______ ____
ROOT
ATOM     11  C   UNL     1       0.313   1.096  23.908  0.00  0.00    +0.154 C 
ATOM     12  C   UNL     1      -0.166   1.414  23.317  0.00  0.00    +0.166 C 
ATOM     13  O   UNL     1      -0.949   1.221  23.493  0.00  0.00    -0.350 OA
ATOM     14  C   UNL     1      -0.954   0.785  24.192  0.00  0.00    +0.164 C 
ATOM     15  C   UNL     1      -1.440   0.395  24.733  0.00  0.00    +0.157 C 
ATOM     16  C   UNL     1      -0.961   0.077  25.324  0.00  0.00    +0.164 C 
ATOM     17  O   UNL     1      -0.178   0.270  25.149  0.00  0.00    -0.350 OA
ATOM     18  C   UNL     1      -0.174   0.707  24.449  0.00  0.00    +0.166 C 
ENDROOT
BRANCH  11  10
ATOM      5  C   UNL     1       2.900   0.448  22.879  0.00  0.00    +0.063 A 
ATOM      6  C   UNL     1       2.549   0.004  22.278  0.00  0.00    +0.035 A 
ATOM      7  C   UNL     1       1.727  -0.056  22.235  0.00  0.00    +0.103 A 
ATOM      8  N   UNL     1       1.255   0.328  22.793  0.00  0.00    -0.211 NA
ATOM      9  C   UNL     1       1.607   0.772  23.394  0.00  0.00    +0.236 A 
ATOM     10  N   UNL     1       1.135   1.156  23.951  0.00  0.00    -0.200 NA
ATOM     31  N   UNL     1       2.428   0.832  23.436  0.00  0.00    -0.217 NA
BRANCH   5   2
ATOM      1  C   UNL     1       4.543   0.568  22.964  0.00  0.00    +0.006 C 
ATOM      2  C   UNL     1       3.721   0.508  22.921  0.00  0.00    +0.036 C 
ATOM      3  C   UNL     1       3.680   1.275  22.622  0.00  0.00    +0.006 C 
ATOM      4  C   UNL     1       3.762  -0.260  23.221  0.00  0.00    +0.006 C 
ENDBRANCH   5   2
ENDBRANCH  11  10
BRANCH  15  19
ATOM     19  N   UNL     1      -2.262   0.335  24.690  0.00  0.00    -0.074 NA
BRANCH  19  20
ATOM     20  S   UNL     1      -2.620  -0.407  24.654  0.00  0.00    +0.078 S 
ATOM     21  O   UNL     1      -2.644  -0.354  23.831  0.00  0.00    -0.152 OA
ATOM     22  O   UNL     1      -2.595  -0.459  25.477  0.00  0.00    -0.152 OA
BRANCH  20  23
ATOM     23  C   UNL     1      -2.978  -1.149  24.616  0.00  0.00    +0.133 A 
ATOM     24  C   UNL     1      -2.514  -1.832  24.613  0.00  0.00    +0.021 A 
ATOM     25  C   UNL     1      -2.872  -2.574  24.576  0.00  0.00    +0.001 A 
ATOM     26  C   UNL     1      -3.694  -2.634  24.541  0.00  0.00    +0.001 A 
ATOM     27  C   UNL     1      -4.158  -1.952  24.545  0.00  0.00    +0.012 A 
ATOM     28  C   UNL     1      -3.800  -1.210  24.582  0.00  0.00    +0.087 A 
BRANCH  28  29
ATOM     29  C   UNL     1      -4.265  -0.527  24.586  0.00  0.00    +0.102 C 
ATOM     30  N   UNL     1      -4.729   0.154  24.589  0.00  0.00    -0.191 NA
ENDBRANCH  28  29
ENDBRANCH  20  23
ENDBRANCH  19  20
ENDBRANCH  15  19
TORSDOF 6
ENDMDL
MODEL 7
REMARK VINA RESULT:      -8.6      2.822      4.613
REMARK  Name = 
REMARK  6 active torsions:
REMARK  status: ('A' for Active; 'I' for Inactive)
REMARK    1  A    between atoms: C_2  and  C_5
REMARK    2  A    between atoms: N_10  and  C_11
REMARK    3  A    between atoms: C_15  and  N_19
REMARK    4  A    between atoms: N_19  and  S_20
REMARK    5  A    between atoms: S_20  and  C_23
REMARK    6  A    between atoms: C_28  and  C_29
REMARK                            x       y       z     vdW  Elec       q    Type
REMARK                         _______ _______ _______ _____ _____    ______ ____
ROOT
ATOM     11  C   UNL     1      -0.844   2.193  24.402  0.00  0.00    +0.154 C 
ATOM     12  C   UNL     1      -0.826   2.179  25.226  0.00  0.00    +0.166 C 
ATOM     13  O   UNL     1      -1.560   2.436  25.501  0.00  0.00    -0.350 OA
ATOM     14  C   UNL     1      -2.032   2.608  24.848  0.00  0.00    +0.164 C 
ATOM     15  C   UNL     1      -2.777   2.873  24.612  0.00  0.00    +0.157 C 
ATOM     16  C   UNL     1      -2.795   2.887  23.788  0.00  0.00    +0.164 C 
ATOM     17  O   UNL     1      -2.061   2.631  23.513  0.00  0.00    -0.350 OA
ATOM     18  C   UNL     1      -1.589   2.458  24.168  0.00  0.00    +0.166 C 
ENDROOT
BRANCH  11  10
ATOM      5  C   UNL     1       0.844   0.184  23.271  0.00  0.00    +0.063 A 
ATOM      6  C   UNL     1       0.451  -0.394  23.709  0.00  0.00    +0.035 A 
ATOM      7  C   UNL     1      -0.168  -0.180  24.211  0.00  0.00    +0.103 A 
ATOM      8  N   UNL     1      -0.394   0.611  24.275  0.00  0.00    -0.211 NA
ATOM      9  C   UNL     1       0.000   1.188  23.836  0.00  0.00    +0.236 A 
ATOM     10  N   UNL     1      -0.225   1.980  23.900  0.00  0.00    -0.200 NA
ATOM     31  N   UNL     1       0.619   0.975  23.334  0.00  0.00    -0.217 NA
BRANCH   5   2
ATOM      1  C   UNL     1       2.081  -0.244  22.266  0.00  0.00    +0.006 C 
ATOM      2  C   UNL     1       1.463  -0.030  22.769  0.00  0.00    +0.036 C 
ATOM      3  C   UNL     1       0.924  -0.393  22.260  0.00  0.00    +0.006 C 
ATOM      4  C   UNL     1       2.002   0.332  23.278  0.00  0.00    +0.006 C 
ENDBRANCH   5   2
ENDBRANCH  11  10
BRANCH  15  19
ATOM     19  N   UNL     1      -3.396   3.087  25.114  0.00  0.00    -0.074 NA
BRANCH  19  20
ATOM     20  S   UNL     1      -4.110   2.675  25.088  0.00  0.00    +0.078 S 
ATOM     21  O   UNL     1      -3.933   2.322  25.812  0.00  0.00    -0.152 OA
ATOM     22  O   UNL     1      -4.287   3.028  24.363  0.00  0.00    -0.152 OA
BRANCH  20  23
ATOM     23  C   UNL     1      -4.824   2.263  25.062  0.00  0.00    +0.133 A 
ATOM     24  C   UNL     1      -4.842   1.486  24.783  0.00  0.00    +0.021 A 
ATOM     25  C   UNL     1      -5.556   1.074  24.758  0.00  0.00    +0.001 A 
ATOM     26  C   UNL     1      -6.252   1.437  25.010  0.00  0.00    +0.001 A 
ATOM     27  C   UNL     1      -6.234   2.213  25.289  0.00  0.00    +0.012 A 
ATOM     28  C   UNL     1      -5.520   2.626  25.315  0.00  0.00    +0.087 A 
BRANCH  28  29
ATOM     29  C   UNL     1      -5.503   3.403  25.594  0.00  0.00    +0.102 C 
ATOM     30  N   UNL     1      -5.485   4.178  25.872  0.00  0.00    -0.191 NA
ENDBRANCH  28  29
ENDBRANCH  20  23
ENDBRANCH  19  20
ENDBRANCH  15  19
TORSDOF 6
ENDMDL
