REMARK  Name = 
REMARK  5 active torsions:
REMARK  status: ('A' for Active; 'I' for Inactive)
REMARK    1  A    between atoms: C_2  and  N_4
REMARK    2  A    between atoms: C_5  and  C_7
REMARK    3  A    between atoms: C_7  and  C_8
REMARK    4  A    between atoms: C_13  and  C_15
REMARK    5  A    between atoms: C_26  and  C_28
REMARK                            x       y       z     vdW  Elec       q    Type
REMARK                         _______ _______ _______ _____ _____    ______ ____
ROOT
ATOM      8  C   UNL     1       2.143   1.238   0.000  0.00  0.00    +0.050 C 
ATOM      9  C   UNL     1       2.858   0.825   0.000  0.00  0.00    +0.063 A 
ATOM     10  C   UNL     1       2.858   0.000   0.000  0.00  0.00    +0.023 A 
ATOM     11  C   UNL     1       2.143  -0.412   0.000  0.00  0.00    +0.034 C 
ATOM     12  C   UNL     1       1.429   0.000   0.000  0.00  0.00    +0.010 C 
ATOM     13  C   UNL     1       0.715  -0.412   0.000  0.00  0.00    +0.059 C 
ATOM     14  C   UNL     1       1.245  -1.044   0.000  0.00  0.00    +0.005 C 
ATOM     17  C   UNL     1       0.000   0.000   0.000  0.00  0.00    +0.154 C 
ATOM     18  O   UNL     1      -0.715  -0.412   0.000  0.00  0.00    -0.223 OA
ATOM     19  C   UNL     1       0.000   0.825   0.000  0.00  0.00    +0.033 C 
ATOM     20  C   UNL     1       0.715   1.238   0.000  0.00  0.00    +0.003 C 
ATOM     21  C   UNL     1       1.429   0.825   0.000  0.00  0.00    +0.006 C 
ATOM     22  C   UNL     1       1.429   1.650   0.000  0.00  0.00    +0.000 C 
ATOM     23  S   UNL     1       3.643  -0.255   0.000  0.00  0.00    -0.054 S 
ATOM     24  C   UNL     1       4.127   0.412   0.000  0.00  0.00    +0.185 A 
ATOM     25  N   UNL     1       4.952   0.412   0.000  0.00  0.00    -0.154 NA
ATOM     26  C   UNL     1       5.365   1.127   0.000  0.00  0.00    +0.247 C 
ATOM     27  O   UNL     1       4.952   1.841   0.000  0.00  0.00    -0.273 OA
ATOM     34  N   UNL     1       3.643   1.080   0.000  0.00  0.00    -0.227 NA
ENDROOT
BRANCH  26  28
ATOM     28  C   UNL     1       6.190   1.127   0.000  0.00  0.00    +0.079 C 
ATOM     29  C   UNL     1       6.602   1.841   0.000  0.00  0.00    +0.009 C 
ATOM     30  C   UNL     1       7.427   1.841   0.000  0.00  0.00    +0.000 C 
ATOM     31  C   UNL     1       7.840   1.127   0.000  0.00  0.00    +0.000 C 
ATOM     32  C   UNL     1       7.427   0.412   0.000  0.00  0.00    +0.000 C 
ATOM     33  C   UNL     1       6.602   0.412   0.000  0.00  0.00    +0.009 C 
ENDBRANCH  26  28
BRANCH  13  15
ATOM     15  C   UNL     1       0.184  -1.044   0.000  0.00  0.00    +0.184 C 
ATOM     16  O   UNL     1      -0.628  -0.901   0.000  0.00  0.00    -0.220 OA
ENDBRANCH  13  15
BRANCH   8   7
ATOM      7  C   UNL     1       2.143   2.062   0.000  0.00  0.00    +0.093 C 
BRANCH   7   5
ATOM      4  N   UNL     1       1.429   3.300   0.000  0.00  0.00    -0.207 NA
ATOM      5  C   UNL     1       1.429   2.475   0.000  0.00  0.00    +0.242 C 
ATOM      6  O   UNL     1       0.715   2.062   0.000  0.00  0.00    -0.273 OA
BRANCH   4   2
ATOM      1  C   UNL     1       0.715   4.537   0.000  0.00  0.00    +0.023 C 
ATOM      2  C   UNL     1       0.715   3.712   0.000  0.00  0.00    +0.095 C 
ATOM      3  C   UNL     1       0.000   3.300   0.000  0.00  0.00    +0.023 C 
ENDBRANCH   4   2
ENDBRANCH   7   5
ENDBRANCH   8   7
TORSDOF 5
