MODEL 1
REMARK VINA RESULT:     -11.7      0.000      0.000
REMARK  Name = 
REMARK  7 active torsions:
REMARK  status: ('A' for Active; 'I' for Inactive)
REMARK    1  A    between atoms: O_2  and  C_3
REMARK    2  A    between atoms: C_8  and  O_9
REMARK    3  A    between atoms: C_11  and  C_12
REMARK    4  A    between atoms: C_12  and  C_13
REMARK    5  A    between atoms: C_18  and  C_19
REMARK    6  A    between atoms: C_19  and  C_20
REMARK    7  A    between atoms: C_23  and  C_25
REMARK                            x       y       z     vdW  Elec       q    Type
REMARK                         _______ _______ _______ _____ _____    ______ ____
ROOT
ATOM     13  C   UNL     1      -3.913   1.433  24.759  0.00  0.00    +0.026 C 
ATOM     14  C   UNL     1      -3.338   0.842  24.766  0.00  0.00    +0.094 C 
ATOM     15  N   UNL     1      -3.563   0.047  24.771  0.00  0.00    -0.276 N 
ATOM     16  C   UNL     1      -4.363  -0.154  24.771  0.00  0.00    +0.094 C 
ATOM     17  C   UNL     1      -4.937   0.436  24.764  0.00  0.00    +0.022 C 
ATOM     18  C   UNL     1      -4.713   1.230  24.758  0.00  0.00    +0.015 C 
ATOM     23  C   UNL     1      -2.988  -0.544  24.778  0.00  0.00    +0.249 C 
ATOM     24  O   UNL     1      -2.188  -0.341  24.779  0.00  0.00    -0.270 OA
ENDROOT
BRANCH  23  25
ATOM     25  C   UNL     1      -3.212  -1.337  24.784  0.00  0.00    +0.054 A 
ATOM     26  C   UNL     1      -3.217  -1.759  25.493  0.00  0.00    +0.007 A 
ATOM     27  C   UNL     1      -3.442  -2.553  25.499  0.00  0.00    +0.030 A 
ATOM     28  C   UNL     1      -3.661  -2.925  24.796  0.00  0.00    +0.140 A 
ATOM     29  F   UNL     1      -3.886  -3.719  24.802  0.00  0.00    -0.204 F 
ATOM     30  C   UNL     1      -3.656  -2.503  24.087  0.00  0.00    +0.030 A 
ATOM     31  C   UNL     1      -3.432  -1.710  24.081  0.00  0.00    +0.007 A 
ENDBRANCH  23  25
BRANCH  13  12
ATOM     12  C   UNL     1      -3.689   2.226  24.753  0.00  0.00    +0.047 C 
BRANCH  12  11
ATOM      3  C   UNL     1      -1.594   4.313  25.088  0.00  0.00    +0.172 A 
ATOM      4  C   UNL     1      -1.438   3.944  24.366  0.00  0.00    +0.036 A 
ATOM      5  C   UNL     1      -1.921   3.330  24.102  0.00  0.00    -0.016 A 
ATOM      6  C   UNL     1      -2.564   3.085  24.560  0.00  0.00    +0.012 A 
ATOM      7  C   UNL     1      -2.721   3.454  25.281  0.00  0.00    +0.041 A 
ATOM      8  C   UNL     1      -2.237   4.068  25.545  0.00  0.00    +0.172 A 
ATOM     11  C   UNL     1      -3.047   2.471  24.296  0.00  0.00    +0.054 C 
ATOM     32  N   UNL     1      -2.890   2.103  23.575  0.00  0.00    -0.274 NA
ATOM     33  C   UNL     1      -2.248   2.348  23.118  0.00  0.00    +0.130 C 
ATOM     34  C   UNL     1      -1.764   2.961  23.382  0.00  0.00    +0.053 C 
BRANCH   3   2
ATOM      1  C   UNL     1      -0.617   5.319  24.821  0.00  0.00    +0.253 C 
ATOM      2  O   UNL     1      -1.111   4.926  25.351  0.00  0.00    -0.468 OA
ENDBRANCH   3   2
BRANCH   8   9
ATOM      9  O   UNL     1      -2.394   4.436  26.266  0.00  0.00    -0.468 OA
ATOM     10  C   UNL     1      -3.126   4.334  26.630  0.00  0.00    +0.253 C 
ENDBRANCH   8   9
ENDBRANCH  12  11
ENDBRANCH  13  12
BRANCH  18  19
ATOM     19  C   UNL     1      -5.289   1.821  24.752  0.00  0.00    +0.114 C 
BRANCH  19  20
ATOM     20  C   UNL     1      -6.010   1.699  25.132  0.00  0.00    +0.365 C 
ATOM     21  O   UNL     1      -6.680   1.502  24.693  0.00  0.00    -0.246 OA
ATOM     22  O   UNL     1      -6.061   1.773  25.953  0.00  0.00    -0.246 OA
ENDBRANCH  19  20
ENDBRANCH  18  19
TORSDOF 7
ENDMDL
MODEL 2
REMARK VINA RESULT:     -11.0      1.555      2.807
REMARK  Name = 
REMARK  7 active torsions:
REMARK  status: ('A' for Active; 'I' for Inactive)
REMARK    1  A    between atoms: O_2  and  C_3
REMARK    2  A    between atoms: C_8  and  O_9
REMARK    3  A    between atoms: C_11  and  C_12
REMARK    4  A    between atoms: C_12  and  C_13
REMARK    5  A    between atoms: C_18  and  C_19
REMARK    6  A    between atoms: C_19  and  C_20
REMARK    7  A    between atoms: C_23  and  C_25
REMARK                            x       y       z     vdW  Elec       q    Type
REMARK                         _______ _______ _______ _____ _____    ______ ____
ROOT
ATOM     13  C   UNL     1      -2.328   1.153  24.397  0.00  0.00    +0.026 C 
ATOM     14  C   UNL     1      -3.012   0.720  24.553  0.00  0.00    +0.094 C 
ATOM     15  N   UNL     1      -2.988  -0.106  24.547  0.00  0.00    -0.276 N 
ATOM     16  C   UNL     1      -2.280  -0.496  24.385  0.00  0.00    +0.094 C 
ATOM     17  C   UNL     1      -1.597  -0.063  24.228  0.00  0.00    +0.022 C 
ATOM     18  C   UNL     1      -1.620   0.762  24.234  0.00  0.00    +0.015 C 
ATOM     23  C   UNL     1      -3.673  -0.539  24.703  0.00  0.00    +0.249 C 
ATOM     24  O   UNL     1      -4.381  -0.147  24.865  0.00  0.00    -0.270 OA
ENDROOT
BRANCH  23  25
ATOM     25  C   UNL     1      -3.649  -1.363  24.697  0.00  0.00    +0.054 A 
ATOM     26  C   UNL     1      -3.881  -1.777  24.022  0.00  0.00    +0.007 A 
ATOM     27  C   UNL     1      -3.857  -2.603  24.016  0.00  0.00    +0.030 A 
ATOM     28  C   UNL     1      -3.601  -3.012  24.685  0.00  0.00    +0.140 A 
ATOM     29  F   UNL     1      -3.577  -3.838  24.678  0.00  0.00    -0.204 F 
ATOM     30  C   UNL     1      -3.369  -2.598  25.359  0.00  0.00    +0.030 A 
ATOM     31  C   UNL     1      -3.393  -1.774  25.365  0.00  0.00    +0.007 A 
ENDBRANCH  23  25
BRANCH  13  12
ATOM     12  C   UNL     1      -2.352   1.977  24.402  0.00  0.00    +0.047 C 
BRANCH  12  11
ATOM      3  C   UNL     1      -4.375   4.022  25.163  0.00  0.00    +0.172 A 
ATOM      4  C   UNL     1      -4.490   3.873  24.360  0.00  0.00    +0.036 A 
ATOM      5  C   UNL     1      -4.014   3.325  23.968  0.00  0.00    -0.016 A 
ATOM      6  C   UNL     1      -3.420   2.925  24.381  0.00  0.00    +0.012 A 
ATOM      7  C   UNL     1      -3.305   3.074  25.184  0.00  0.00    +0.041 A 
ATOM      8  C   UNL     1      -3.781   3.622  25.576  0.00  0.00    +0.172 A 
ATOM     11  C   UNL     1      -2.944   2.377  23.990  0.00  0.00    +0.054 C 
ATOM     32  N   UNL     1      -3.060   2.228  23.188  0.00  0.00    -0.274 NA
ATOM     33  C   UNL     1      -3.653   2.628  22.775  0.00  0.00    +0.130 C 
ATOM     34  C   UNL     1      -4.129   3.176  23.166  0.00  0.00    +0.053 C 
BRANCH   3   2
ATOM      1  C   UNL     1      -5.669   4.548  25.458  0.00  0.00    +0.253 C 
ATOM      2  O   UNL     1      -4.851   4.570  25.554  0.00  0.00    -0.468 OA
ENDBRANCH   3   2
BRANCH   8   9
ATOM      9  O   UNL     1      -3.666   3.771  26.379  0.00  0.00    -0.468 OA
ATOM     10  C   UNL     1      -2.915   3.965  26.658  0.00  0.00    +0.253 C 
ENDBRANCH   8   9
ENDBRANCH  12  11
ENDBRANCH  13  12
BRANCH  18  19
ATOM     19  C   UNL     1      -0.935   1.195  24.078  0.00  0.00    +0.114 C 
BRANCH  19  20
ATOM     20  C   UNL     1      -0.197   0.834  24.137  0.00  0.00    +0.365 C 
ATOM     21  O   UNL     1       0.147   0.486  23.472  0.00  0.00    -0.246 OA
ATOM     22  O   UNL     1       0.200   0.821  24.861  0.00  0.00    -0.246 OA
ENDBRANCH  19  20
ENDBRANCH  18  19
TORSDOF 7
ENDMDL
MODEL 3
REMARK VINA RESULT:     -10.8      2.142      5.028
REMARK  Name = 
REMARK  7 active torsions:
REMARK  status: ('A' for Active; 'I' for Inactive)
REMARK    1  A    between atoms: O_2  and  C_3
REMARK    2  A    between atoms: C_8  and  O_9
REMARK    3  A    between atoms: C_11  and  C_12
REMARK    4  A    between atoms: C_12  and  C_13
REMARK    5  A    between atoms: C_18  and  C_19
REMARK    6  A    between atoms: C_19  and  C_20
REMARK    7  A    between atoms: C_23  and  C_25
REMARK                            x       y       z     vdW  Elec       q    Type
REMARK                         _______ _______ _______ _____ _____    ______ ____
ROOT
ATOM     13  C   UNL     1      -3.734   1.688  25.099  0.00  0.00    +0.026 C 
ATOM     14  C   UNL     1      -2.919   1.777  25.011  0.00  0.00    +0.094 C 
ATOM     15  N   UNL     1      -2.586   2.533  24.997  0.00  0.00    -0.276 N 
ATOM     16  C   UNL     1      -3.070   3.197  25.071  0.00  0.00    +0.094 C 
ATOM     17  C   UNL     1      -3.884   3.107  25.160  0.00  0.00    +0.022 C 
ATOM     18  C   UNL     1      -4.217   2.353  25.174  0.00  0.00    +0.015 C 
ATOM     23  C   UNL     1      -1.771   2.623  24.908  0.00  0.00    +0.249 C 
ATOM     24  O   UNL     1      -1.289   1.957  24.834  0.00  0.00    -0.270 OA
ENDROOT
BRANCH  23  25
ATOM     25  C   UNL     1      -1.439   3.377  24.894  0.00  0.00    +0.054 A 
ATOM     26  C   UNL     1      -1.159   3.692  24.185  0.00  0.00    +0.007 A 
ATOM     27  C   UNL     1      -0.827   4.447  24.170  0.00  0.00    +0.030 A 
ATOM     28  C   UNL     1      -0.774   4.887  24.866  0.00  0.00    +0.140 A 
ATOM     29  F   UNL     1      -0.441   5.643  24.852  0.00  0.00    -0.204 F 
ATOM     30  C   UNL     1      -1.054   4.573  25.576  0.00  0.00    +0.030 A 
ATOM     31  C   UNL     1      -1.386   3.818  25.590  0.00  0.00    +0.007 A 
ENDBRANCH  23  25
BRANCH  13  12
ATOM     12  C   UNL     1      -4.067   0.933  25.113  0.00  0.00    +0.047 C 
BRANCH  12  11
ATOM      3  C   UNL     1      -3.481  -1.981  24.983  0.00  0.00    +0.172 A 
ATOM      4  C   UNL     1      -3.482  -1.712  24.202  0.00  0.00    +0.036 A 
ATOM      5  C   UNL     1      -3.629  -0.917  24.039  0.00  0.00    -0.016 A 
ATOM      6  C   UNL     1      -3.775  -0.389  24.658  0.00  0.00    +0.012 A 
ATOM      7  C   UNL     1      -3.773  -0.658  25.438  0.00  0.00    +0.041 A 
ATOM      8  C   UNL     1      -3.626  -1.453  25.601  0.00  0.00    +0.172 A 
ATOM     11  C   UNL     1      -3.922   0.406  24.495  0.00  0.00    +0.054 C 
ATOM     32  N   UNL     1      -3.923   0.674  23.716  0.00  0.00    -0.274 NA
ATOM     33  C   UNL     1      -3.778   0.146  23.097  0.00  0.00    +0.130 C 
ATOM     34  C   UNL     1      -3.631  -0.648  23.260  0.00  0.00    +0.053 C 
BRANCH   3   2
ATOM      1  C   UNL     1      -3.354  -3.332  24.537  0.00  0.00    +0.253 C 
ATOM      2  O   UNL     1      -3.334  -2.776  25.145  0.00  0.00    -0.468 OA
ENDBRANCH   3   2
BRANCH   8   9
ATOM      9  O   UNL     1      -3.624  -1.721  26.381  0.00  0.00    -0.468 OA
ATOM     10  C   UNL     1      -3.065  -1.435  26.914  0.00  0.00    +0.253 C 
ENDBRANCH   8   9
ENDBRANCH  12  11
ENDBRANCH  13  12
BRANCH  18  19
ATOM     19  C   UNL     1      -5.032   2.263  25.262  0.00  0.00    +0.114 C 
BRANCH  19  20
ATOM     20  C   UNL     1      -5.472   2.845  25.647  0.00  0.00    +0.365 C 
ATOM     21  O   UNL     1      -5.717   3.517  25.235  0.00  0.00    -0.246 OA
ATOM     22  O   UNL     1      -5.667   2.756  26.444  0.00  0.00    -0.246 OA
ENDBRANCH  19  20
ENDBRANCH  18  19
TORSDOF 7
ENDMDL
MODEL 4
REMARK VINA RESULT:     -10.1      1.546      2.939
REMARK  Name = 
REMARK  7 active torsions:
REMARK  status: ('A' for Active; 'I' for Inactive)
REMARK    1  A    between atoms: O_2  and  C_3
REMARK    2  A    between atoms: C_8  and  O_9
REMARK    3  A    between atoms: C_11  and  C_12
REMARK    4  A    between atoms: C_12  and  C_13
REMARK    5  A    between atoms: C_18  and  C_19
REMARK    6  A    between atoms: C_19  and  C_20
REMARK    7  A    between atoms: C_23  and  C_25
REMARK                            x       y       z     vdW  Elec       q    Type
REMARK                         _______ _______ _______ _____ _____    ______ ____
ROOT
ATOM     13  C   UNL     1      -1.529   0.634  24.217  0.00  0.00    +0.026 C 
ATOM     14  C   UNL     1      -2.270   0.371  24.463  0.00  0.00    +0.094 C 
ATOM     15  N   UNL     1      -2.446  -0.436  24.453  0.00  0.00    -0.276 N 
ATOM     16  C   UNL     1      -1.880  -0.978  24.195  0.00  0.00    +0.094 C 
ATOM     17  C   UNL     1      -1.140  -0.715  23.948  0.00  0.00    +0.022 C 
ATOM     18  C   UNL     1      -0.963   0.091  23.959  0.00  0.00    +0.015 C 
ATOM     23  C   UNL     1      -3.188  -0.699  24.700  0.00  0.00    +0.249 C 
ATOM     24  O   UNL     1      -3.753  -0.156  24.957  0.00  0.00    -0.270 OA
ENDROOT
BRANCH  23  25
ATOM     25  C   UNL     1      -3.364  -1.504  24.689  0.00  0.00    +0.054 A 
ATOM     26  C   UNL     1      -3.753  -1.833  24.040  0.00  0.00    +0.007 A 
ATOM     27  C   UNL     1      -3.930  -2.639  24.028  0.00  0.00    +0.030 A 
ATOM     28  C   UNL     1      -3.716  -3.116  24.666  0.00  0.00    +0.140 A 
ATOM     29  F   UNL     1      -3.893  -3.923  24.655  0.00  0.00    -0.204 F 
ATOM     30  C   UNL     1      -3.327  -2.788  25.316  0.00  0.00    +0.030 A 
ATOM     31  C   UNL     1      -3.151  -1.983  25.326  0.00  0.00    +0.007 A 
ENDBRANCH  23  25
BRANCH  13  12
ATOM     12  C   UNL     1      -1.352   1.439  24.227  0.00  0.00    +0.047 C 
BRANCH  12  11
ATOM      3  C   UNL     1      -2.335   3.908  25.566  0.00  0.00    +0.172 A 
ATOM      4  C   UNL     1      -2.787   3.823  24.880  0.00  0.00    +0.036 A 
ATOM      5  C   UNL     1      -2.655   3.185  24.374  0.00  0.00    -0.016 A 
ATOM      6  C   UNL     1      -2.069   2.631  24.554  0.00  0.00    +0.012 A 
ATOM      7  C   UNL     1      -1.617   2.716  25.239  0.00  0.00    +0.041 A 
ATOM      8  C   UNL     1      -1.749   3.354  25.745  0.00  0.00    +0.172 A 
ATOM     11  C   UNL     1      -1.937   1.993  24.048  0.00  0.00    +0.054 C 
ATOM     32  N   UNL     1      -2.389   1.908  23.364  0.00  0.00    -0.274 NA
ATOM     33  C   UNL     1      -2.974   2.463  23.184  0.00  0.00    +0.130 C 
ATOM     34  C   UNL     1      -3.107   3.100  23.690  0.00  0.00    +0.053 C 
BRANCH   3   2
ATOM      1  C   UNL     1      -3.231   4.838  26.175  0.00  0.00    +0.253 C 
ATOM      2  O   UNL     1      -2.467   4.546  26.071  0.00  0.00    -0.468 OA
ENDBRANCH   3   2
BRANCH   8   9
ATOM      9  O   UNL     1      -1.298   3.439  26.429  0.00  0.00    -0.468 OA
ATOM     10  C   UNL     1      -0.565   3.065  26.489  0.00  0.00    +0.253 C 
ENDBRANCH   8   9
ENDBRANCH  12  11
ENDBRANCH  13  12
BRANCH  18  19
ATOM     19  C   UNL     1      -0.221   0.354  23.712  0.00  0.00    +0.114 C 
BRANCH  19  20
ATOM     20  C   UNL     1       0.347  -0.189  23.463  0.00  0.00    +0.365 C 
ATOM     21  O   UNL     1       0.746  -0.652  24.017  0.00  0.00    -0.246 OA
ATOM     22  O   UNL     1       0.518  -0.269  22.659  0.00  0.00    -0.246 OA
ENDBRANCH  19  20
ENDBRANCH  18  19
TORSDOF 7
ENDMDL
MODEL 5
REMARK VINA RESULT:      -9.9      2.364      5.527
REMARK  Name = 
REMARK  7 active torsions:
REMARK  status: ('A' for Active; 'I' for Inactive)
REMARK    1  A    between atoms: O_2  and  C_3
REMARK    2  A    between atoms: C_8  and  O_9
REMARK    3  A    between atoms: C_11  and  C_12
REMARK    4  A    between atoms: C_12  and  C_13
REMARK    5  A    between atoms: C_18  and  C_19
REMARK    6  A    between atoms: C_19  and  C_20
REMARK    7  A    between atoms: C_23  and  C_25
REMARK                            x       y       z     vdW  Elec       q    Type
REMARK                         _______ _______ _______ _____ _____    ______ ____
ROOT
ATOM     13  C   UNL     1      -2.476   1.510  23.774  0.00  0.00    +0.026 C 
ATOM     14  C   UNL     1      -2.213   1.865  24.469  0.00  0.00    +0.094 C 
ATOM     15  N   UNL     1      -2.050   2.674  24.485  0.00  0.00    -0.276 N 
ATOM     16  C   UNL     1      -2.152   3.127  23.804  0.00  0.00    +0.094 C 
ATOM     17  C   UNL     1      -2.416   2.773  23.108  0.00  0.00    +0.022 C 
ATOM     18  C   UNL     1      -2.578   1.965  23.092  0.00  0.00    +0.015 C 
ATOM     23  C   UNL     1      -1.786   3.028  25.182  0.00  0.00    +0.249 C 
ATOM     24  O   UNL     1      -1.685   2.574  25.863  0.00  0.00    -0.270 OA
ENDROOT
BRANCH  23  25
ATOM     25  C   UNL     1      -1.624   3.837  25.197  0.00  0.00    +0.054 A 
ATOM     26  C   UNL     1      -0.881   4.112  24.969  0.00  0.00    +0.007 A 
ATOM     27  C   UNL     1      -0.718   4.922  24.984  0.00  0.00    +0.030 A 
ATOM     28  C   UNL     1      -1.299   5.454  25.227  0.00  0.00    +0.140 A 
ATOM     29  F   UNL     1      -1.137   6.263  25.242  0.00  0.00    -0.204 F 
ATOM     30  C   UNL     1      -2.043   5.178  25.455  0.00  0.00    +0.030 A 
ATOM     31  C   UNL     1      -2.205   4.370  25.439  0.00  0.00    +0.007 A 
ENDBRANCH  23  25
BRANCH  13  12
ATOM     12  C   UNL     1      -2.639   0.702  23.758  0.00  0.00    +0.047 C 
BRANCH  12  11
ATOM      3  C   UNL     1      -3.025  -1.942  25.067  0.00  0.00    +0.172 A 
ATOM      4  C   UNL     1      -3.671  -1.479  25.289  0.00  0.00    +0.036 A 
ATOM      5  C   UNL     1      -3.737  -0.703  25.017  0.00  0.00    -0.016 A 
ATOM      6  C   UNL     1      -3.155  -0.388  24.523  0.00  0.00    +0.012 A 
ATOM      7  C   UNL     1      -2.508  -0.851  24.302  0.00  0.00    +0.041 A 
ATOM      8  C   UNL     1      -2.442  -1.627  24.573  0.00  0.00    +0.172 A 
ATOM     11  C   UNL     1      -3.220   0.387  24.251  0.00  0.00    +0.054 C 
ATOM     32  N   UNL     1      -3.866   0.849  24.473  0.00  0.00    -0.274 NA
ATOM     33  C   UNL     1      -4.448   0.534  24.967  0.00  0.00    +0.130 C 
ATOM     34  C   UNL     1      -4.383  -0.241  25.239  0.00  0.00    +0.053 C 
BRANCH   3   2
ATOM      1  C   UNL     1      -3.565  -3.257  25.194  0.00  0.00    +0.253 C 
ATOM      2  O   UNL     1      -2.959  -2.717  25.339  0.00  0.00    -0.468 OA
ENDBRANCH   3   2
BRANCH   8   9
ATOM      9  O   UNL     1      -1.796  -2.089  24.352  0.00  0.00    -0.468 OA
ATOM     10  C   UNL     1      -1.030  -1.798  24.445  0.00  0.00    +0.253 C 
ENDBRANCH   8   9
ENDBRANCH  12  11
ENDBRANCH  13  12
BRANCH  18  19
ATOM     19  C   UNL     1      -2.842   1.610  22.395  0.00  0.00    +0.114 C 
BRANCH  19  20
ATOM     20  C   UNL     1      -2.743   1.996  21.673  0.00  0.00    +0.365 C 
ATOM     21  O   UNL     1      -3.261   2.599  21.452  0.00  0.00    -0.246 OA
ATOM     22  O   UNL     1      -2.124   1.778  21.171  0.00  0.00    -0.246 OA
ENDBRANCH  19  20
ENDBRANCH  18  19
TORSDOF 7
ENDMDL
MODEL 6
REMARK VINA RESULT:      -9.2      2.229      3.452
REMARK  Name = 
REMARK  7 active torsions:
REMARK  status: ('A' for Active; 'I' for Inactive)
REMARK    1  A    between atoms: O_2  and  C_3
REMARK    2  A    between atoms: C_8  and  O_9
REMARK    3  A    between atoms: C_11  and  C_12
REMARK    4  A    between atoms: C_12  and  C_13
REMARK    5  A    between atoms: C_18  and  C_19
REMARK    6  A    between atoms: C_19  and  C_20
REMARK    7  A    between atoms: C_23  and  C_25
REMARK                            x       y       z     vdW  Elec       q    Type
REMARK                         _______ _______ _______ _____ _____    ______ ____
ROOT
ATOM     13  C   UNL     1      -3.329   0.616  24.458  0.00  0.00    +0.026 C 
ATOM     14  C   UNL     1      -2.579   0.957  24.469  0.00  0.00    +0.094 C 
ATOM     15  N   UNL     1      -1.916   0.505  24.275  0.00  0.00    -0.276 N 
ATOM     16  C   UNL     1      -2.006  -0.289  24.070  0.00  0.00    +0.094 C 
ATOM     17  C   UNL     1      -2.755  -0.631  24.059  0.00  0.00    +0.022 C 
ATOM     18  C   UNL     1      -3.418  -0.179  24.253  0.00  0.00    +0.015 C 
ATOM     23  C   UNL     1      -1.166   0.847  24.286  0.00  0.00    +0.249 C 
ATOM     24  O   UNL     1      -1.078   1.641  24.491  0.00  0.00    -0.270 OA
ENDROOT
BRANCH  23  25
ATOM     25  C   UNL     1      -0.504   0.395  24.092  0.00  0.00    +0.054 A 
ATOM     26  C   UNL     1      -0.095   0.541  23.391  0.00  0.00    +0.007 A 
ATOM     27  C   UNL     1       0.567   0.089  23.196  0.00  0.00    +0.030 A 
ATOM     28  C   UNL     1       0.820  -0.510  23.704  0.00  0.00    +0.140 A 
ATOM     29  F   UNL     1       1.483  -0.963  23.510  0.00  0.00    -0.204 F 
ATOM     30  C   UNL     1       0.412  -0.657  24.406  0.00  0.00    +0.030 A 
ATOM     31  C   UNL     1      -0.250  -0.205  24.600  0.00  0.00    +0.007 A 
ENDBRANCH  23  25
BRANCH  13  12
ATOM     12  C   UNL     1      -3.991   1.068  24.652  0.00  0.00    +0.047 C 
BRANCH  12  11
ATOM      3  C   UNL     1      -5.491   3.486  25.520  0.00  0.00    +0.172 A 
ATOM      4  C   UNL     1      -5.105   3.694  24.821  0.00  0.00    +0.036 A 
ATOM      5  C   UNL     1      -4.633   3.142  24.429  0.00  0.00    -0.016 A 
ATOM      6  C   UNL     1      -4.548   2.380  24.736  0.00  0.00    +0.012 A 
ATOM      7  C   UNL     1      -4.934   2.173  25.435  0.00  0.00    +0.041 A 
ATOM      8  C   UNL     1      -5.406   2.725  25.827  0.00  0.00    +0.172 A 
ATOM     11  C   UNL     1      -4.077   1.829  24.345  0.00  0.00    +0.054 C 
ATOM     32  N   UNL     1      -3.691   2.037  23.647  0.00  0.00    -0.274 NA
ATOM     33  C   UNL     1      -3.776   2.799  23.339  0.00  0.00    +0.130 C 
ATOM     34  C   UNL     1      -4.247   3.351  23.731  0.00  0.00    +0.053 C 
BRANCH   3   2
ATOM      1  C   UNL     1      -5.965   4.825  25.666  0.00  0.00    +0.253 C 
ATOM      2  O   UNL     1      -5.962   4.038  25.911  0.00  0.00    -0.468 OA
ENDBRANCH   3   2
BRANCH   8   9
ATOM      9  O   UNL     1      -5.791   2.516  26.525  0.00  0.00    -0.468 OA
ATOM     10  C   UNL     1      -6.238   1.824  26.560  0.00  0.00    +0.253 C 
ENDBRANCH   8   9
ENDBRANCH  12  11
ENDBRANCH  13  12
BRANCH  18  19
ATOM     19  C   UNL     1      -4.168  -0.521  24.242  0.00  0.00    +0.114 C 
BRANCH  19  20
ATOM     20  C   UNL     1      -4.247  -1.341  24.216  0.00  0.00    +0.365 C 
ATOM     21  O   UNL     1      -4.190  -1.784  24.910  0.00  0.00    -0.246 OA
ATOM     22  O   UNL     1      -4.384  -1.720  23.495  0.00  0.00    -0.246 OA
ENDBRANCH  19  20
ENDBRANCH  18  19
TORSDOF 7
ENDMDL
