MODEL 1
REMARK VINA RESULT:      -8.8      0.000      0.000
REMARK  Name = 
REMARK  6 active torsions:
REMARK  status: ('A' for Active; 'I' for Inactive)
REMARK    1  A    between atoms: C_3  and  N_16
REMARK    2  A    between atoms: C_6  and  C_7
REMARK    3  A    between atoms: C_7  and  N_8
REMARK    4  A    between atoms: C_9  and  C_11
REMARK    5  A    between atoms: N_16  and  C_17
REMARK    6  A    between atoms: C_17  and  C_18
REMARK                            x       y       z     vdW  Elec       q    Type
REMARK                         _______ _______ _______ _____ _____    ______ ____
ROOT
ATOM      1  O   UNL     1      -3.748   2.217  24.117  0.00  0.00    -0.219 OA
ATOM      2  C   UNL     1      -3.118   1.834  24.486  0.00  0.00    +0.199 C 
ATOM      3  C   UNL     1      -2.424   2.191  24.755  0.00  0.00    +0.136 C 
ATOM      4  C   UNL     1      -1.948   1.604  25.086  0.00  0.00    +0.162 C 
ATOM      5  O   UNL     1      -2.347   0.885  25.022  0.00  0.00    -0.350 OA
ATOM      6  C   UNL     1      -3.071   1.027  24.651  0.00  0.00    +0.169 C 
ENDROOT
BRANCH   6   7
ATOM      7  C   UNL     1      -3.646   0.462  24.476  0.00  0.00    +0.147 C 
BRANCH   7   8
ATOM      8  N   UNL     1      -3.461  -0.341  24.520  0.00  0.00    -0.203 NA
ATOM      9  C   UNL     1      -4.050  -0.906  24.401  0.00  0.00    +0.241 C 
ATOM     10  O   UNL     1      -4.823  -0.669  24.238  0.00  0.00    -0.273 OA
BRANCH   9  11
ATOM     11  C   UNL     1      -3.866  -1.710  24.446  0.00  0.00    +0.078 C 
ATOM     12  C   UNL     1      -3.503  -2.090  25.082  0.00  0.00    +0.009 C 
ATOM     13  C   UNL     1      -3.425  -2.889  24.891  0.00  0.00    +0.001 C 
ATOM     14  C   UNL     1      -3.739  -3.002  24.136  0.00  0.00    +0.001 C 
ATOM     15  C   UNL     1      -4.011  -2.274  23.861  0.00  0.00    +0.009 C 
ENDBRANCH   9  11
ENDBRANCH   7   8
ENDBRANCH   6   7
BRANCH   3  16
ATOM     16  N   UNL     1      -2.239   2.992  24.702  0.00  0.00    -0.206 NA
BRANCH  16  17
ATOM     17  C   UNL     1      -1.660   3.316  25.193  0.00  0.00    +0.154 C 
BRANCH  17  18
ATOM     18  C   UNL     1      -1.444   4.107  25.109  0.00  0.00    +0.157 A 
ATOM     19  N   UNL     1      -1.893   4.760  25.338  0.00  0.00    -0.226 NA
ATOM     20  C   UNL     1      -1.466   5.441  25.152  0.00  0.00    +0.121 A 
ATOM     21  C   UNL     1      -0.754   5.210  24.809  0.00  0.00    +0.121 A 
ATOM     22  N   UNL     1      -0.739   4.386  24.782  0.00  0.00    -0.226 NA
ENDBRANCH  17  18
ENDBRANCH  16  17
ENDBRANCH   3  16
TORSDOF 6
ENDMDL
MODEL 2
REMARK VINA RESULT:      -8.4      1.084      5.783
REMARK  Name = 
REMARK  6 active torsions:
REMARK  status: ('A' for Active; 'I' for Inactive)
REMARK    1  A    between atoms: C_3  and  N_16
REMARK    2  A    between atoms: C_6  and  C_7
REMARK    3  A    between atoms: C_7  and  N_8
REMARK    4  A    between atoms: C_9  and  C_11
REMARK    5  A    between atoms: N_16  and  C_17
REMARK    6  A    between atoms: C_17  and  C_18
REMARK                            x       y       z     vdW  Elec       q    Type
REMARK                         _______ _______ _______ _____ _____    ______ ____
ROOT
ATOM      1  O   UNL     1      -1.186   0.174  25.252  0.00  0.00    -0.219 OA
ATOM      2  C   UNL     1      -1.876   0.578  25.047  0.00  0.00    +0.199 C 
ATOM      3  C   UNL     1      -2.580   0.234  24.788  0.00  0.00    +0.136 C 
ATOM      4  C   UNL     1      -3.123   0.840  24.646  0.00  0.00    +0.162 C 
ATOM      5  O   UNL     1      -2.754   1.557  24.817  0.00  0.00    -0.350 OA
ATOM      6  C   UNL     1      -1.983   1.395  25.065  0.00  0.00    +0.169 C 
ENDROOT
BRANCH   6   7
ATOM      7  C   UNL     1      -1.419   1.954  25.291  0.00  0.00    +0.147 C 
BRANCH   7   8
ATOM      8  N   UNL     1      -1.538   2.752  25.123  0.00  0.00    -0.203 NA
ATOM      9  C   UNL     1      -1.013   3.317  25.414  0.00  0.00    +0.241 C 
ATOM     10  O   UNL     1      -0.369   3.085  25.874  0.00  0.00    -0.273 OA
BRANCH   9  11
ATOM     11  C   UNL     1      -1.133   4.117  25.245  0.00  0.00    +0.078 C 
ATOM     12  C   UNL     1      -0.621   4.604  24.820  0.00  0.00    +0.009 C 
ATOM     13  C   UNL     1      -0.956   5.357  24.784  0.00  0.00    +0.001 C 
ATOM     14  C   UNL     1      -1.676   5.334  25.188  0.00  0.00    +0.001 C 
ATOM     15  C   UNL     1      -1.785   4.569  25.473  0.00  0.00    +0.009 C 
ENDBRANCH   9  11
ENDBRANCH   7   8
ENDBRANCH   6   7
BRANCH   3  16
ATOM     16  N   UNL     1      -2.718  -0.573  24.689  0.00  0.00    -0.206 NA
BRANCH  16  17
ATOM     17  C   UNL     1      -3.486  -0.870  24.734  0.00  0.00    +0.154 C 
BRANCH  17  18
ATOM     18  C   UNL     1      -3.635  -1.661  24.556  0.00  0.00    +0.157 A 
ATOM     19  N   UNL     1      -4.045  -1.941  23.898  0.00  0.00    -0.226 NA
ATOM     20  C   UNL     1      -4.062  -2.765  23.940  0.00  0.00    +0.121 A 
ATOM     21  C   UNL     1      -3.663  -2.994  24.624  0.00  0.00    +0.121 A 
ATOM     22  N   UNL     1      -3.398  -2.312  25.005  0.00  0.00    -0.226 NA
ENDBRANCH  17  18
ENDBRANCH  16  17
ENDBRANCH   3  16
TORSDOF 6
ENDMDL
MODEL 3
REMARK VINA RESULT:      -7.3      2.779      4.222
REMARK  Name = 
REMARK  6 active torsions:
REMARK  status: ('A' for Active; 'I' for Inactive)
REMARK    1  A    between atoms: C_3  and  N_16
REMARK    2  A    between atoms: C_6  and  C_7
REMARK    3  A    between atoms: C_7  and  N_8
REMARK    4  A    between atoms: C_9  and  C_11
REMARK    5  A    between atoms: N_16  and  C_17
REMARK    6  A    between atoms: C_17  and  C_18
REMARK                            x       y       z     vdW  Elec       q    Type
REMARK                         _______ _______ _______ _____ _____    ______ ____
ROOT
ATOM      1  O   UNL     1      -1.120   2.662  23.748  0.00  0.00    -0.219 OA
ATOM      2  C   UNL     1      -1.372   1.960  24.101  0.00  0.00    +0.199 C 
ATOM      3  C   UNL     1      -0.955   1.248  24.118  0.00  0.00    +0.136 C 
ATOM      4  C   UNL     1      -1.410   0.695  24.528  0.00  0.00    +0.162 C 
ATOM      5  O   UNL     1      -2.109   1.065  24.764  0.00  0.00    -0.350 OA
ATOM      6  C   UNL     1      -2.085   1.847  24.501  0.00  0.00    +0.169 C 
ENDROOT
BRANCH   6   7
ATOM      7  C   UNL     1      -2.671   2.416  24.617  0.00  0.00    +0.147 C 
BRANCH   7   8
ATOM      8  N   UNL     1      -3.434   2.185  24.828  0.00  0.00    -0.203 NA
ATOM      9  C   UNL     1      -4.025   2.752  24.922  0.00  0.00    +0.241 C 
ATOM     10  O   UNL     1      -3.854   3.551  24.804  0.00  0.00    -0.273 OA
BRANCH   9  11
ATOM     11  C   UNL     1      -4.790   2.521  25.134  0.00  0.00    +0.078 C 
ATOM     12  C   UNL     1      -5.284   2.026  24.697  0.00  0.00    +0.009 C 
ATOM     13  C   UNL     1      -5.992   1.943  25.113  0.00  0.00    +0.001 C 
ATOM     14  C   UNL     1      -5.934   2.387  25.806  0.00  0.00    +0.001 C 
ATOM     15  C   UNL     1      -5.191   2.744  25.819  0.00  0.00    +0.009 C 
ENDBRANCH   9  11
ENDBRANCH   7   8
ENDBRANCH   6   7
BRANCH   3  16
ATOM     16  N   UNL     1      -0.213   1.113  23.784  0.00  0.00    -0.206 NA
BRANCH  16  17
ATOM     17  C   UNL     1       0.062   0.341  23.688  0.00  0.00    +0.154 C 
BRANCH  17  18
ATOM     18  C   UNL     1       0.754   0.200  23.263  0.00  0.00    +0.157 A 
ATOM     19  N   UNL     1       0.838  -0.325  22.632  0.00  0.00    -0.226 NA
ATOM     20  C   UNL     1       1.620  -0.290  22.373  0.00  0.00    +0.121 A 
ATOM     21  C   UNL     1       2.021   0.255  22.844  0.00  0.00    +0.121 A 
ATOM     22  N   UNL     1       1.486   0.559  23.394  0.00  0.00    -0.226 NA
ENDBRANCH  17  18
ENDBRANCH  16  17
ENDBRANCH   3  16
TORSDOF 6
ENDMDL
MODEL 4
REMARK VINA RESULT:      -6.9     17.484     19.135
REMARK  Name = 
REMARK  6 active torsions:
REMARK  status: ('A' for Active; 'I' for Inactive)
REMARK    1  A    between atoms: C_3  and  N_16
REMARK    2  A    between atoms: C_6  and  C_7
REMARK    3  A    between atoms: C_7  and  N_8
REMARK    4  A    between atoms: C_9  and  C_11
REMARK    5  A    between atoms: N_16  and  C_17
REMARK    6  A    between atoms: C_17  and  C_18
REMARK                            x       y       z     vdW  Elec       q    Type
REMARK                         _______ _______ _______ _____ _____    ______ ____
ROOT
ATOM      1  O   UNL     1      12.496   6.705  18.908  0.00  0.00    -0.219 OA
ATOM      2  C   UNL     1      13.041   7.276  18.668  0.00  0.00    +0.199 C 
ATOM      3  C   UNL     1      12.926   7.837  18.074  0.00  0.00    +0.136 C 
ATOM      4  C   UNL     1      13.611   8.294  18.019  0.00  0.00    +0.162 C 
ATOM      5  O   UNL     1      14.149   8.016  18.579  0.00  0.00    -0.350 OA
ATOM      6  C   UNL     1      13.796   7.387  18.980  0.00  0.00    +0.169 C 
ENDROOT
BRANCH   6   7
ATOM      7  C   UNL     1      14.139   6.946  19.588  0.00  0.00    +0.147 C 
BRANCH   7   8
ATOM      8  N   UNL     1      14.960   6.898  19.650  0.00  0.00    -0.203 NA
ATOM      9  C   UNL     1      15.304   6.573  20.325  0.00  0.00    +0.241 C 
ATOM     10  O   UNL     1      14.828   6.295  20.939  0.00  0.00    -0.273 OA
BRANCH   9  11
ATOM     11  C   UNL     1      16.127   6.525  20.387  0.00  0.00    +0.078 C 
ATOM     12  C   UNL     1      16.585   6.827  21.002  0.00  0.00    +0.009 C 
ATOM     13  C   UNL     1      17.375   6.655  20.840  0.00  0.00    +0.001 C 
ATOM     14  C   UNL     1      17.405   6.246  20.123  0.00  0.00    +0.001 C 
ATOM     15  C   UNL     1      16.633   6.165  19.843  0.00  0.00    +0.009 C 
ENDBRANCH   9  11
ENDBRANCH   7   8
ENDBRANCH   6   7
BRANCH   3  16
ATOM     16  N   UNL     1      12.246   7.925  17.615  0.00  0.00    -0.206 NA
BRANCH  16  17
ATOM     17  C   UNL     1      12.049   8.664  17.306  0.00  0.00    +0.154 C 
BRANCH  17  18
ATOM     18  C   UNL     1      11.433   8.733  16.762  0.00  0.00    +0.157 A 
ATOM     19  N   UNL     1      11.497   9.017  15.991  0.00  0.00    -0.226 NA
ATOM     20  C   UNL     1      10.748   8.990  15.646  0.00  0.00    +0.121 A 
ATOM     21  C   UNL     1      10.221   8.690  16.205  0.00  0.00    +0.121 A 
ATOM     22  N   UNL     1      10.644   8.531  16.895  0.00  0.00    -0.226 NA
ENDBRANCH  17  18
ENDBRANCH  16  17
ENDBRANCH   3  16
TORSDOF 6
ENDMDL
MODEL 5
REMARK VINA RESULT:      -6.1     17.296     18.757
REMARK  Name = 
REMARK  6 active torsions:
REMARK  status: ('A' for Active; 'I' for Inactive)
REMARK    1  A    between atoms: C_3  and  N_16
REMARK    2  A    between atoms: C_6  and  C_7
REMARK    3  A    between atoms: C_7  and  N_8
REMARK    4  A    between atoms: C_9  and  C_11
REMARK    5  A    between atoms: N_16  and  C_17
REMARK    6  A    between atoms: C_17  and  C_18
REMARK                            x       y       z     vdW  Elec       q    Type
REMARK                         _______ _______ _______ _____ _____    ______ ____
ROOT
ATOM      1  O   UNL     1      13.593   8.652  19.908  0.00  0.00    -0.219 OA
ATOM      2  C   UNL     1      13.452   7.873  19.674  0.00  0.00    +0.199 C 
ATOM      3  C   UNL     1      13.964   7.234  19.783  0.00  0.00    +0.136 C 
ATOM      4  C   UNL     1      13.603   6.563  19.466  0.00  0.00    +0.162 C 
ATOM      5  O   UNL     1      12.869   6.786  19.163  0.00  0.00    -0.350 OA
ATOM      6  C   UNL     1      12.776   7.596  19.291  0.00  0.00    +0.169 C 
ENDROOT
BRANCH   6   7
ATOM      7  C   UNL     1      12.122   8.050  19.075  0.00  0.00    +0.147 C 
BRANCH   7   8
ATOM      8  N   UNL     1      11.990   8.231  18.281  0.00  0.00    -0.203 NA
ATOM      9  C   UNL     1      11.246   8.486  18.034  0.00  0.00    +0.241 C 
ATOM     10  O   UNL     1      10.633   8.561  18.582  0.00  0.00    -0.273 OA
BRANCH   9  11
ATOM     11  C   UNL     1      11.114   8.667  17.239  0.00  0.00    +0.078 C 
ATOM     12  C   UNL     1      10.414   8.537  16.822  0.00  0.00    +0.009 C 
ATOM     13  C   UNL     1      10.526   8.799  16.048  0.00  0.00    +0.001 C 
ATOM     14  C   UNL     1      11.296   9.092  15.988  0.00  0.00    +0.001 C 
ATOM     15  C   UNL     1      11.659   9.011  16.723  0.00  0.00    +0.009 C 
ENDBRANCH   9  11
ENDBRANCH   7   8
ENDBRANCH   6   7
BRANCH   3  16
ATOM     16  N   UNL     1      14.704   7.263  20.144  0.00  0.00    -0.206 NA
BRANCH  16  17
ATOM     17  C   UNL     1      15.204   6.606  20.114  0.00  0.00    +0.154 C 
BRANCH  17  18
ATOM     18  C   UNL     1      15.976   6.662  20.397  0.00  0.00    +0.157 A 
ATOM     19  N   UNL     1      16.661   6.670  19.938  0.00  0.00    -0.226 NA
ATOM     20  C   UNL     1      17.308   6.732  20.446  0.00  0.00    +0.121 A 
ATOM     21  C   UNL     1      17.023   6.763  21.219  0.00  0.00    +0.121 A 
ATOM     22  N   UNL     1      16.200   6.720  21.189  0.00  0.00    -0.226 NA
ENDBRANCH  17  18
ENDBRANCH  16  17
ENDBRANCH   3  16
TORSDOF 6
ENDMDL
MODEL 6
REMARK VINA RESULT:      -5.6     15.854     18.518
REMARK  Name = 
REMARK  6 active torsions:
REMARK  status: ('A' for Active; 'I' for Inactive)
REMARK    1  A    between atoms: C_3  and  N_16
REMARK    2  A    between atoms: C_6  and  C_7
REMARK    3  A    between atoms: C_7  and  N_8
REMARK    4  A    between atoms: C_9  and  C_11
REMARK    5  A    between atoms: N_16  and  C_17
REMARK    6  A    between atoms: C_17  and  C_18
REMARK                            x       y       z     vdW  Elec       q    Type
REMARK                         _______ _______ _______ _____ _____    ______ ____
ROOT
ATOM      1  O   UNL     1      13.242   6.427  19.506  0.00  0.00    -0.219 OA
ATOM      2  C   UNL     1      13.610   7.157  19.615  0.00  0.00    +0.199 C 
ATOM      3  C   UNL     1      14.424   7.294  19.619  0.00  0.00    +0.136 C 
ATOM      4  C   UNL     1      14.546   8.101  19.746  0.00  0.00    +0.162 C 
ATOM      5  O   UNL     1      13.808   8.462  19.822  0.00  0.00    -0.350 OA
ATOM      6  C   UNL     1      13.230   7.878  19.741  0.00  0.00    +0.169 C 
ENDROOT
BRANCH   6   7
ATOM      7  C   UNL     1      12.414   7.996  19.779  0.00  0.00    +0.147 C 
BRANCH   7   8
ATOM      8  N   UNL     1      12.048   8.119  20.508  0.00  0.00    -0.203 NA
ATOM      9  C   UNL     1      11.239   8.274  20.542  0.00  0.00    +0.241 C 
ATOM     10  O   UNL     1      10.795   8.306  19.847  0.00  0.00    -0.273 OA
BRANCH   9  11
ATOM     11  C   UNL     1      10.873   8.397  21.272  0.00  0.00    +0.078 C 
ATOM     12  C   UNL     1      10.416   7.848  21.684  0.00  0.00    +0.009 C 
ATOM     13  C   UNL     1      10.160   8.202  22.384  0.00  0.00    +0.001 C 
ATOM     14  C   UNL     1      10.461   8.971  22.404  0.00  0.00    +0.001 C 
ATOM     15  C   UNL     1      10.901   9.091  21.718  0.00  0.00    +0.009 C 
ENDBRANCH   9  11
ENDBRANCH   7   8
ENDBRANCH   6   7
BRANCH   3  16
ATOM     16  N   UNL     1      15.011   6.726  19.513  0.00  0.00    -0.206 NA
BRANCH  16  17
ATOM     17  C   UNL     1      15.679   6.901  19.061  0.00  0.00    +0.154 C 
BRANCH  17  18
ATOM     18  C   UNL     1      16.353   6.430  19.121  0.00  0.00    +0.157 A 
ATOM     19  N   UNL     1      16.770   6.097  18.493  0.00  0.00    -0.226 NA
ATOM     20  C   UNL     1      17.404   5.671  18.804  0.00  0.00    +0.121 A 
ATOM     21  C   UNL     1      17.379   5.739  19.625  0.00  0.00    +0.121 A 
ATOM     22  N   UNL     1      16.729   6.208  19.822  0.00  0.00    -0.226 NA
ENDBRANCH  17  18
ENDBRANCH  16  17
ENDBRANCH   3  16
TORSDOF 6
ENDMDL
MODEL 7
REMARK VINA RESULT:      -5.1     14.446     16.457
REMARK  Name = 
REMARK  6 active torsions:
REMARK  status: ('A' for Active; 'I' for Inactive)
REMARK    1  A    between atoms: C_3  and  N_16
REMARK    2  A    between atoms: C_6  and  C_7
REMARK    3  A    between atoms: C_7  and  N_8
REMARK    4  A    between atoms: C_9  and  C_11
REMARK    5  A    between atoms: N_16  and  C_17
REMARK    6  A    between atoms: C_17  and  C_18
REMARK                            x       y       z     vdW  Elec       q    Type
REMARK                         _______ _______ _______ _____ _____    ______ ____
ROOT
ATOM      1  O   UNL     1      -6.142  -9.379  12.818  0.00  0.00    -0.219 OA
ATOM      2  C   UNL     1      -5.463  -9.820  12.980  0.00  0.00    +0.199 C 
ATOM      3  C   UNL     1      -4.886 -10.041  12.432  0.00  0.00    +0.136 C 
ATOM      4  C   UNL     1      -4.309 -10.474  12.832  0.00  0.00    +0.162 C 
ATOM      5  O   UNL     1      -4.529 -10.521  13.626  0.00  0.00    -0.350 OA
ATOM      6  C   UNL     1      -5.242 -10.116  13.717  0.00  0.00    +0.169 C 
ENDROOT
BRANCH   6   7
ATOM      7  C   UNL     1      -5.661 -10.024  14.422  0.00  0.00    +0.147 C 
BRANCH   7   8
ATOM      8  N   UNL     1      -5.305 -10.215  15.141  0.00  0.00    -0.203 NA
ATOM      9  C   UNL     1      -5.709 -10.085  15.848  0.00  0.00    +0.241 C 
ATOM     10  O   UNL     1      -6.469  -9.764  15.837  0.00  0.00    -0.273 OA
BRANCH   9  11
ATOM     11  C   UNL     1      -5.352 -10.276  16.569  0.00  0.00    +0.078 C 
ATOM     12  C   UNL     1      -4.542 -10.271  16.724  0.00  0.00    +0.009 C 
ATOM     13  C   UNL     1      -4.433 -10.497  17.510  0.00  0.00    +0.001 C 
ATOM     14  C   UNL     1      -5.176 -10.641  17.839  0.00  0.00    +0.001 C 
ATOM     15  C   UNL     1      -5.744 -10.504  17.258  0.00  0.00    +0.009 C 
ENDBRANCH   9  11
ENDBRANCH   7   8
ENDBRANCH   6   7
BRANCH   3  16
ATOM     16  N   UNL     1      -4.887  -9.860  11.628  0.00  0.00    -0.206 NA
BRANCH  16  17
ATOM     17  C   UNL     1      -4.212  -9.997  11.173  0.00  0.00    +0.154 C 
BRANCH  17  18
ATOM     18  C   UNL     1      -4.190  -9.756  10.385  0.00  0.00    +0.157 A 
ATOM     19  N   UNL     1      -4.458 -10.190   9.738  0.00  0.00    -0.226 NA
ATOM     20  C   UNL     1      -4.329  -9.740   9.058  0.00  0.00    +0.121 A 
ATOM     21  C   UNL     1      -3.980  -9.029   9.285  0.00  0.00    +0.121 A 
ATOM     22  N   UNL     1      -3.894  -9.038  10.105  0.00  0.00    -0.226 NA
ENDBRANCH  17  18
ENDBRANCH  16  17
ENDBRANCH   3  16
TORSDOF 6
ENDMDL
