MODEL 1
REMARK VINA RESULT:     -10.9      0.000      0.000
REMARK  Name = 
REMARK  9 active torsions:
REMARK  status: ('A' for Active; 'I' for Inactive)
REMARK    1  A    between atoms: N_2  and  C_3
REMARK    2  A    between atoms: N_2  and  C_11
REMARK    3  A    between atoms: C_3  and  C_4
REMARK    4  A    between atoms: C_4  and  C_5
REMARK    5  A    between atoms: C_12  and  C_13
REMARK    6  A    between atoms: C_13  and  N_14
REMARK    7  A    between atoms: N_14  and  C_15
REMARK    8  A    between atoms: C_15  and  C_16
REMARK    9  A    between atoms: C_24  and  C_25
REMARK                            x       y       z     vdW  Elec       q    Type
REMARK                         _______ _______ _______ _____ _____    ______ ____
ROOT
ATOM     11  C   UNL     1      -0.328   1.283  24.747  0.00  0.00    +0.120 C 
ATOM     12  C   UNL     1      -0.812   0.638  24.571  0.00  0.00    +0.150 C 
ATOM     23  O   UNL     1      -0.464   0.221  23.951  0.00  0.00    -0.350 OA
ATOM     24  C   UNL     1       0.235   0.607  23.744  0.00  0.00    +0.180 C 
ATOM     27  C   UNL     1       0.318   1.264  24.236  0.00  0.00    +0.198 C 
ATOM     28  O   UNL     1       0.940   1.806  24.219  0.00  0.00    -0.219 OA
ENDROOT
BRANCH  11   2
ATOM      1  C   UNL     1      -0.234   1.701  26.111  0.00  0.00    +0.090 C 
ATOM      2  N   UNL     1      -0.467   1.847  25.332  0.00  0.00    -0.268 NA
BRANCH   2   3
ATOM      3  C   UNL     1      -0.839   2.558  25.140  0.00  0.00    +0.077 C 
BRANCH   3   4
ATOM      4  C   UNL     1      -0.941   3.140  25.716  0.00  0.00    +0.044 C 
BRANCH   4   5
ATOM      5  C   UNL     1      -1.309   3.852  25.522  0.00  0.00    -0.021 A 
ATOM      6  C   UNL     1      -0.878   4.456  25.162  0.00  0.00    -0.004 A 
ATOM      7  C   UNL     1      -1.246   5.168  24.968  0.00  0.00    -0.000 A 
ATOM      8  C   UNL     1      -2.047   5.276  25.133  0.00  0.00    -0.000 A 
ATOM      9  C   UNL     1      -2.479   4.672  25.494  0.00  0.00    -0.000 A 
ATOM     10  C   UNL     1      -2.110   3.961  25.688  0.00  0.00    -0.004 A 
ENDBRANCH   4   5
ENDBRANCH   3   4
ENDBRANCH   2   3
ENDBRANCH  11   2
BRANCH  24  25
ATOM     25  C   UNL     1       0.758   0.378  23.148  0.00  0.00    +0.214 C 
ATOM     26  O   UNL     1       0.743  -0.397  22.863  0.00  0.00    -0.218 OA
ENDBRANCH  24  25
BRANCH  12  13
ATOM     13  C   UNL     1      -1.519   0.444  24.949  0.00  0.00    +0.120 C 
BRANCH  13  14
ATOM     14  N   UNL     1      -1.999  -0.153  24.644  0.00  0.00    -0.211 NA
BRANCH  14  15
ATOM     15  C   UNL     1      -2.673  -0.391  25.057  0.00  0.00    +0.115 C 
BRANCH  15  16
ATOM     16  C   UNL     1      -3.188  -0.943  24.723  0.00  0.00    -0.004 A 
ATOM     17  C   UNL     1      -3.806  -0.690  24.238  0.00  0.00    -0.003 A 
ATOM     18  C   UNL     1      -4.321  -1.242  23.904  0.00  0.00    +0.001 A 
ATOM     19  C   UNL     1      -4.217  -2.046  24.055  0.00  0.00    +0.011 A 
ATOM     20  C   UNL     1      -3.599  -2.299  24.539  0.00  0.00    +0.057 A 
ATOM     21 CL   UNL     1      -3.495  -3.104  24.689  0.00  0.00    -0.082 Cl
ATOM     22  C   UNL     1      -3.084  -1.747  24.872  0.00  0.00    +0.009 A 
ENDBRANCH  15  16
ENDBRANCH  14  15
ENDBRANCH  13  14
ENDBRANCH  12  13
TORSDOF 9
ENDMDL
MODEL 2
REMARK VINA RESULT:     -10.8      1.626      4.874
REMARK  Name = 
REMARK  9 active torsions:
REMARK  status: ('A' for Active; 'I' for Inactive)
REMARK    1  A    between atoms: N_2  and  C_3
REMARK    2  A    between atoms: N_2  and  C_11
REMARK    3  A    between atoms: C_3  and  C_4
REMARK    4  A    between atoms: C_4  and  C_5
REMARK    5  A    between atoms: C_12  and  C_13
REMARK    6  A    between atoms: C_13  and  N_14
REMARK    7  A    between atoms: N_14  and  C_15
REMARK    8  A    between atoms: C_15  and  C_16
REMARK    9  A    between atoms: C_24  and  C_25
REMARK                            x       y       z     vdW  Elec       q    Type
REMARK                         _______ _______ _______ _____ _____    ______ ____
ROOT
ATOM     11  C   UNL     1      -0.650  -0.146  24.586  0.00  0.00    +0.120 C 
ATOM     12  C   UNL     1      -0.496   0.661  24.660  0.00  0.00    +0.150 C 
ATOM     23  O   UNL     1       0.099   0.856  24.123  0.00  0.00    -0.350 OA
ATOM     24  C   UNL     1       0.312   0.170  23.718  0.00  0.00    +0.180 C 
ATOM     27  C   UNL     1      -0.151  -0.449  24.004  0.00  0.00    +0.198 C 
ATOM     28  O   UNL     1      -0.120  -1.234  23.752  0.00  0.00    -0.219 OA
ENDROOT
BRANCH  11   2
ATOM      1  C   UNL     1      -1.047  -0.788  25.800  0.00  0.00    +0.090 C 
ATOM      2  N   UNL     1      -1.207  -0.574  25.019  0.00  0.00    -0.268 NA
BRANCH   2   3
ATOM      3  C   UNL     1      -1.924  -0.789  24.672  0.00  0.00    +0.077 C 
BRANCH   3   4
ATOM      4  C   UNL     1      -2.477  -1.225  25.102  0.00  0.00    +0.044 C 
BRANCH   4   5
ATOM      5  C   UNL     1      -3.120  -1.569  24.716  0.00  0.00    -0.021 A 
ATOM      6  C   UNL     1      -3.698  -1.093  24.372  0.00  0.00    -0.004 A 
ATOM      7  C   UNL     1      -4.341  -1.438  23.986  0.00  0.00    -0.000 A 
ATOM      8  C   UNL     1      -4.405  -2.259  23.945  0.00  0.00    -0.000 A 
ATOM      9  C   UNL     1      -3.826  -2.736  24.290  0.00  0.00    -0.000 A 
ATOM     10  C   UNL     1      -3.184  -2.391  24.675  0.00  0.00    -0.004 A 
ENDBRANCH   4   5
ENDBRANCH   3   4
ENDBRANCH   2   3
ENDBRANCH  11   2
BRANCH  24  25
ATOM     25  C   UNL     1       0.888   0.114  23.129  0.00  0.00    +0.214 C 
ATOM     26  O   UNL     1       1.523   0.641  23.122  0.00  0.00    -0.218 OA
ENDBRANCH  24  25
BRANCH  12  13
ATOM     13  C   UNL     1      -0.870   1.181  25.179  0.00  0.00    +0.120 C 
BRANCH  13  14
ATOM     14  N   UNL     1      -0.821   1.995  25.054  0.00  0.00    -0.211 NA
BRANCH  14  15
ATOM     15  C   UNL     1      -0.911   2.516  25.688  0.00  0.00    +0.115 C 
BRANCH  15  16
ATOM     16  C   UNL     1      -1.201   3.277  25.558  0.00  0.00    -0.004 A 
ATOM     17  C   UNL     1      -0.733   3.836  25.172  0.00  0.00    -0.003 A 
ATOM     18  C   UNL     1      -1.022   4.598  25.042  0.00  0.00    +0.001 A 
ATOM     19  C   UNL     1      -1.780   4.800  25.298  0.00  0.00    +0.011 A 
ATOM     20  C   UNL     1      -2.247   4.242  25.685  0.00  0.00    +0.057 A 
ATOM     21 CL   UNL     1      -3.005   4.445  25.942  0.00  0.00    -0.082 Cl
ATOM     22  C   UNL     1      -1.958   3.481  25.815  0.00  0.00    +0.009 A 
ENDBRANCH  15  16
ENDBRANCH  14  15
ENDBRANCH  13  14
ENDBRANCH  12  13
TORSDOF 9
ENDMDL
MODEL 3
REMARK VINA RESULT:     -10.6      2.750      3.790
REMARK  Name = 
REMARK  9 active torsions:
REMARK  status: ('A' for Active; 'I' for Inactive)
REMARK    1  A    between atoms: N_2  and  C_3
REMARK    2  A    between atoms: N_2  and  C_11
REMARK    3  A    between atoms: C_3  and  C_4
REMARK    4  A    between atoms: C_4  and  C_5
REMARK    5  A    between atoms: C_12  and  C_13
REMARK    6  A    between atoms: C_13  and  N_14
REMARK    7  A    between atoms: N_14  and  C_15
REMARK    8  A    between atoms: C_15  and  C_16
REMARK    9  A    between atoms: C_24  and  C_25
REMARK                            x       y       z     vdW  Elec       q    Type
REMARK                         _______ _______ _______ _____ _____    ______ ____
ROOT
ATOM     11  C   UNL     1      -4.615   2.519  24.861  0.00  0.00    +0.120 C 
ATOM     12  C   UNL     1      -4.663   1.695  24.877  0.00  0.00    +0.150 C 
ATOM     23  O   UNL     1      -5.277   1.486  25.386  0.00  0.00    -0.350 OA
ATOM     24  C   UNL     1      -5.607   2.180  25.686  0.00  0.00    +0.180 C 
ATOM     27  C   UNL     1      -5.198   2.818  25.361  0.00  0.00    +0.198 C 
ATOM     28  O   UNL     1      -5.346   3.616  25.511  0.00  0.00    -0.219 OA
ENDROOT
BRANCH  11   2
ATOM      1  C   UNL     1      -4.244   3.158  23.637  0.00  0.00    +0.090 C 
ATOM      2  N   UNL     1      -4.077   2.964  24.422  0.00  0.00    -0.268 NA
BRANCH   2   3
ATOM      3  C   UNL     1      -3.371   3.217  24.767  0.00  0.00    +0.077 C 
BRANCH   3   4
ATOM      4  C   UNL     1      -2.823   3.643  24.321  0.00  0.00    +0.044 C 
BRANCH   4   5
ATOM      5  C   UNL     1      -2.116   3.892  24.666  0.00  0.00    -0.021 A 
ATOM      6  C   UNL     1      -2.034   4.670  24.925  0.00  0.00    -0.004 A 
ATOM      7  C   UNL     1      -1.327   4.919  25.270  0.00  0.00    -0.000 A 
ATOM      8  C   UNL     1      -0.701   4.388  25.356  0.00  0.00    -0.000 A 
ATOM      9  C   UNL     1      -0.783   3.608  25.097  0.00  0.00    -0.000 A 
ATOM     10  C   UNL     1      -1.490   3.361  24.752  0.00  0.00    -0.004 A 
ENDBRANCH   4   5
ENDBRANCH   3   4
ENDBRANCH   2   3
ENDBRANCH  11   2
BRANCH  24  25
ATOM     25  C   UNL     1      -6.237   2.227  26.218  0.00  0.00    +0.214 C 
ATOM     26  O   UNL     1      -6.472   1.557  26.639  0.00  0.00    -0.218 OA
ENDBRANCH  24  25
BRANCH  12  13
ATOM     13  C   UNL     1      -4.183   1.173  24.456  0.00  0.00    +0.120 C 
BRANCH  13  14
ATOM     14  N   UNL     1      -4.177   0.371  24.650  0.00  0.00    -0.211 NA
BRANCH  14  15
ATOM     15  C   UNL     1      -3.686  -0.149  24.239  0.00  0.00    +0.115 C 
BRANCH  15  16
ATOM     16  C   UNL     1      -3.651  -0.944  24.458  0.00  0.00    -0.004 A 
ATOM     17  C   UNL     1      -3.270  -1.163  25.156  0.00  0.00    -0.003 A 
ATOM     18  C   UNL     1      -3.236  -1.958  25.375  0.00  0.00    +0.001 A 
ATOM     19  C   UNL     1      -3.582  -2.533  24.895  0.00  0.00    +0.011 A 
ATOM     20  C   UNL     1      -3.963  -2.314  24.198  0.00  0.00    +0.057 A 
ATOM     21 CL   UNL     1      -4.310  -2.889  23.718  0.00  0.00    -0.082 Cl
ATOM     22  C   UNL     1      -3.998  -1.519  23.979  0.00  0.00    +0.009 A 
ENDBRANCH  15  16
ENDBRANCH  14  15
ENDBRANCH  13  14
ENDBRANCH  12  13
TORSDOF 9
ENDMDL
MODEL 4
REMARK VINA RESULT:     -10.4      2.015      2.885
REMARK  Name = 
REMARK  9 active torsions:
REMARK  status: ('A' for Active; 'I' for Inactive)
REMARK    1  A    between atoms: N_2  and  C_3
REMARK    2  A    between atoms: N_2  and  C_11
REMARK    3  A    between atoms: C_3  and  C_4
REMARK    4  A    between atoms: C_4  and  C_5
REMARK    5  A    between atoms: C_12  and  C_13
REMARK    6  A    between atoms: C_13  and  N_14
REMARK    7  A    between atoms: N_14  and  C_15
REMARK    8  A    between atoms: C_15  and  C_16
REMARK    9  A    between atoms: C_24  and  C_25
REMARK                            x       y       z     vdW  Elec       q    Type
REMARK                         _______ _______ _______ _____ _____    ______ ____
ROOT
ATOM     11  C   UNL     1      -1.708   2.425  25.045  0.00  0.00    +0.120 C 
ATOM     12  C   UNL     1      -1.368   1.672  25.053  0.00  0.00    +0.150 C 
ATOM     23  O   UNL     1      -0.698   1.700  25.532  0.00  0.00    -0.350 OA
ATOM     24  C   UNL     1      -0.623   2.470  25.821  0.00  0.00    +0.180 C 
ATOM     27  C   UNL     1      -1.247   2.917  25.520  0.00  0.00    +0.198 C 
ATOM     28  O   UNL     1      -1.385   3.717  25.667  0.00  0.00    -0.219 OA
ENDROOT
BRANCH  11   2
ATOM      1  C   UNL     1      -2.333   2.908  23.853  0.00  0.00    +0.090 C 
ATOM      2  N   UNL     1      -2.388   2.646  24.634  0.00  0.00    -0.268 NA
BRANCH   2   3
ATOM      3  C   UNL     1      -3.125   2.605  25.003  0.00  0.00    +0.077 C 
BRANCH   3   4
ATOM      4  C   UNL     1      -3.810   2.781  24.579  0.00  0.00    +0.044 C 
BRANCH   4   5
ATOM      5  C   UNL     1      -4.549   2.597  24.895  0.00  0.00    -0.021 A 
ATOM      6  C   UNL     1      -4.978   1.958  24.598  0.00  0.00    -0.004 A 
ATOM      7  C   UNL     1      -5.718   1.774  24.915  0.00  0.00    -0.000 A 
ATOM      8  C   UNL     1      -6.028   2.229  25.528  0.00  0.00    -0.000 A 
ATOM      9  C   UNL     1      -5.599   2.869  25.826  0.00  0.00    -0.000 A 
ATOM     10  C   UNL     1      -4.860   3.052  25.509  0.00  0.00    -0.004 A 
ENDBRANCH   4   5
ENDBRANCH   3   4
ENDBRANCH   2   3
ENDBRANCH  11   2
BRANCH  24  25
ATOM     25  C   UNL     1      -0.028   2.743  26.323  0.00  0.00    +0.214 C 
ATOM     26  O   UNL     1       0.707   2.368  26.333  0.00  0.00    -0.218 OA
ENDBRANCH  24  25
BRANCH  12  13
ATOM     13  C   UNL     1      -1.650   1.010  24.651  0.00  0.00    +0.120 C 
BRANCH  13  14
ATOM     14  N   UNL     1      -1.748   0.295  25.053  0.00  0.00    -0.211 NA
BRANCH  14  15
ATOM     15  C   UNL     1      -1.876  -0.402  24.629  0.00  0.00    +0.115 C 
BRANCH  15  16
ATOM     16  C   UNL     1      -2.522  -0.882  24.811  0.00  0.00    -0.004 A 
ATOM     17  C   UNL     1      -2.634  -1.146  25.585  0.00  0.00    -0.003 A 
ATOM     18  C   UNL     1      -3.280  -1.626  25.766  0.00  0.00    +0.001 A 
ATOM     19  C   UNL     1      -3.813  -1.842  25.174  0.00  0.00    +0.011 A 
ATOM     20  C   UNL     1      -3.701  -1.577  24.401  0.00  0.00    +0.057 A 
ATOM     21 CL   UNL     1      -4.234  -1.793  23.809  0.00  0.00    -0.082 Cl
ATOM     22  C   UNL     1      -3.055  -1.097  24.220  0.00  0.00    +0.009 A 
ENDBRANCH  15  16
ENDBRANCH  14  15
ENDBRANCH  13  14
ENDBRANCH  12  13
TORSDOF 9
ENDMDL
MODEL 5
REMARK VINA RESULT:     -10.3      3.024      6.049
REMARK  Name = 
REMARK  9 active torsions:
REMARK  status: ('A' for Active; 'I' for Inactive)
REMARK    1  A    between atoms: N_2  and  C_3
REMARK    2  A    between atoms: N_2  and  C_11
REMARK    3  A    between atoms: C_3  and  C_4
REMARK    4  A    between atoms: C_4  and  C_5
REMARK    5  A    between atoms: C_12  and  C_13
REMARK    6  A    between atoms: C_13  and  N_14
REMARK    7  A    between atoms: N_14  and  C_15
REMARK    8  A    between atoms: C_15  and  C_16
REMARK    9  A    between atoms: C_24  and  C_25
REMARK                            x       y       z     vdW  Elec       q    Type
REMARK                         _______ _______ _______ _____ _____    ______ ____
ROOT
ATOM     11  C   UNL     1      -4.333   1.553  24.707  0.00  0.00    +0.120 C 
ATOM     12  C   UNL     1      -3.898   2.126  25.112  0.00  0.00    +0.150 C 
ATOM     23  O   UNL     1      -4.429   2.604  25.524  0.00  0.00    -0.350 OA
ATOM     24  C   UNL     1      -5.191   2.327  25.374  0.00  0.00    +0.180 C 
ATOM     27  C   UNL     1      -5.132   1.678  24.869  0.00  0.00    +0.198 C 
ATOM     28  O   UNL     1      -5.762   1.231  24.577  0.00  0.00    -0.219 OA
ENDROOT
BRANCH  11   2
ATOM      1  C   UNL     1      -3.753   1.143  23.466  0.00  0.00    +0.090 C 
ATOM      2  N   UNL     1      -4.023   0.960  24.225  0.00  0.00    -0.268 NA
BRANCH   2   3
ATOM      3  C   UNL     1      -3.982   0.183  24.500  0.00  0.00    +0.077 C 
BRANCH   3   4
ATOM      4  C   UNL     1      -3.637  -0.403  24.033  0.00  0.00    +0.044 C 
BRANCH   4   5
ATOM      5  C   UNL     1      -3.633  -1.187  24.291  0.00  0.00    -0.021 A 
ATOM      6  C   UNL     1      -3.210  -1.397  24.966  0.00  0.00    -0.004 A 
ATOM      7  C   UNL     1      -3.207  -2.181  25.224  0.00  0.00    -0.000 A 
ATOM      8  C   UNL     1      -3.627  -2.754  24.806  0.00  0.00    -0.000 A 
ATOM      9  C   UNL     1      -4.051  -2.544  24.129  0.00  0.00    -0.000 A 
ATOM     10  C   UNL     1      -4.054  -1.760  23.872  0.00  0.00    -0.004 A 
ENDBRANCH   4   5
ENDBRANCH   3   4
ENDBRANCH   2   3
ENDBRANCH  11   2
BRANCH  24  25
ATOM     25  C   UNL     1      -5.891   2.644  25.676  0.00  0.00    +0.214 C 
ATOM     26  O   UNL     1      -5.871   3.347  26.109  0.00  0.00    -0.218 OA
ENDBRANCH  24  25
BRANCH  12  13
ATOM     13  C   UNL     1      -3.078   2.206  25.106  0.00  0.00    +0.120 C 
BRANCH  13  14
ATOM     14  N   UNL     1      -2.734   2.943  25.242  0.00  0.00    -0.211 NA
BRANCH  14  15
ATOM     15  C   UNL     1      -1.940   2.995  25.459  0.00  0.00    +0.115 C 
BRANCH  15  16
ATOM     16  C   UNL     1      -1.489   3.645  25.224  0.00  0.00    -0.004 A 
ATOM     17  C   UNL     1      -0.740   3.532  24.896  0.00  0.00    -0.003 A 
ATOM     18  C   UNL     1      -0.290   4.182  24.662  0.00  0.00    +0.001 A 
ATOM     19  C   UNL     1      -0.589   4.945  24.755  0.00  0.00    +0.011 A 
ATOM     20  C   UNL     1      -1.337   5.059  25.082  0.00  0.00    +0.057 A 
ATOM     21 CL   UNL     1      -1.636   5.822  25.176  0.00  0.00    -0.082 Cl
ATOM     22  C   UNL     1      -1.787   4.409  25.317  0.00  0.00    +0.009 A 
ENDBRANCH  15  16
ENDBRANCH  14  15
ENDBRANCH  13  14
ENDBRANCH  12  13
TORSDOF 9
ENDMDL
MODEL 6
REMARK VINA RESULT:     -10.3      1.694      4.411
REMARK  Name = 
REMARK  9 active torsions:
REMARK  status: ('A' for Active; 'I' for Inactive)
REMARK    1  A    between atoms: N_2  and  C_3
REMARK    2  A    between atoms: N_2  and  C_11
REMARK    3  A    between atoms: C_3  and  C_4
REMARK    4  A    between atoms: C_4  and  C_5
REMARK    5  A    between atoms: C_12  and  C_13
REMARK    6  A    between atoms: C_13  and  N_14
REMARK    7  A    between atoms: N_14  and  C_15
REMARK    8  A    between atoms: C_15  and  C_16
REMARK    9  A    between atoms: C_24  and  C_25
REMARK                            x       y       z     vdW  Elec       q    Type
REMARK                         _______ _______ _______ _____ _____    ______ ____
ROOT
ATOM     11  C   UNL     1      -0.927   0.095  24.774  0.00  0.00    +0.120 C 
ATOM     12  C   UNL     1      -1.018   0.915  24.803  0.00  0.00    +0.150 C 
ATOM     23  O   UNL     1      -0.422   1.254  24.346  0.00  0.00    -0.350 OA
ATOM     24  C   UNL     1       0.038   0.643  24.033  0.00  0.00    +0.180 C 
ATOM     27  C   UNL     1      -0.275  -0.072  24.298  0.00  0.00    +0.198 C 
ATOM     28  O   UNL     1       0.014  -0.824  24.118  0.00  0.00    -0.219 OA
ENDROOT
BRANCH  11   2
ATOM      1  C   UNL     1      -1.282  -0.634  25.952  0.00  0.00    +0.090 C 
ATOM      2  N   UNL     1      -1.405  -0.459  25.154  0.00  0.00    -0.268 NA
BRANCH   2   3
ATOM      3  C   UNL     1      -2.007  -0.840  24.738  0.00  0.00    +0.077 C 
BRANCH   3   4
ATOM      4  C   UNL     1      -2.562  -1.298  25.141  0.00  0.00    +0.044 C 
BRANCH   4   5
ATOM      5  C   UNL     1      -3.157  -1.688  24.722  0.00  0.00    -0.021 A 
ATOM      6  C   UNL     1      -3.134  -2.507  24.637  0.00  0.00    -0.004 A 
ATOM      7  C   UNL     1      -3.729  -2.897  24.219  0.00  0.00    -0.000 A 
ATOM      8  C   UNL     1      -4.347  -2.466  23.885  0.00  0.00    -0.000 A 
ATOM      9  C   UNL     1      -4.371  -1.645  23.970  0.00  0.00    -0.000 A 
ATOM     10  C   UNL     1      -3.776  -1.256  24.388  0.00  0.00    -0.004 A 
ENDBRANCH   4   5
ENDBRANCH   3   4
ENDBRANCH   2   3
ENDBRANCH  11   2
BRANCH  24  25
ATOM     25  C   UNL     1       0.695   0.734  23.542  0.00  0.00    +0.214 C 
ATOM     26  O   UNL     1       1.185   1.393  23.626  0.00  0.00    -0.218 OA
ENDBRANCH  24  25
BRANCH  12  13
ATOM     13  C   UNL     1      -1.602   1.323  25.218  0.00  0.00    +0.120 C 
BRANCH  13  14
ATOM     14  N   UNL     1      -1.973   1.974  24.873  0.00  0.00    -0.211 NA
BRANCH  14  15
ATOM     15  C   UNL     1      -2.487   2.441  25.320  0.00  0.00    +0.115 C 
BRANCH  15  16
ATOM     16  C   UNL     1      -3.171   2.747  24.976  0.00  0.00    -0.004 A 
ATOM     17  C   UNL     1      -3.147   3.471  24.582  0.00  0.00    -0.003 A 
ATOM     18  C   UNL     1      -3.832   3.777  24.238  0.00  0.00    +0.001 A 
ATOM     19  C   UNL     1      -4.541   3.358  24.289  0.00  0.00    +0.011 A 
ATOM     20  C   UNL     1      -4.565   2.634  24.682  0.00  0.00    +0.057 A 
ATOM     21 CL   UNL     1      -5.274   2.214  24.733  0.00  0.00    -0.082 Cl
ATOM     22  C   UNL     1      -3.881   2.328  25.026  0.00  0.00    +0.009 A 
ENDBRANCH  15  16
ENDBRANCH  14  15
ENDBRANCH  13  14
ENDBRANCH  12  13
TORSDOF 9
ENDMDL
MODEL 7
REMARK VINA RESULT:      -7.4     15.462     17.513
REMARK  Name = 
REMARK  9 active torsions:
REMARK  status: ('A' for Active; 'I' for Inactive)
REMARK    1  A    between atoms: N_2  and  C_3
REMARK    2  A    between atoms: N_2  and  C_11
REMARK    3  A    between atoms: C_3  and  C_4
REMARK    4  A    between atoms: C_4  and  C_5
REMARK    5  A    between atoms: C_12  and  C_13
REMARK    6  A    between atoms: C_13  and  N_14
REMARK    7  A    between atoms: N_14  and  C_15
REMARK    8  A    between atoms: C_15  and  C_16
REMARK    9  A    between atoms: C_24  and  C_25
REMARK                            x       y       z     vdW  Elec       q    Type
REMARK                         _______ _______ _______ _____ _____    ______ ____
ROOT
ATOM     11  C   UNL     1      13.709   7.753  18.670  0.00  0.00    +0.120 C 
ATOM     12  C   UNL     1      13.055   7.517  19.115  0.00  0.00    +0.150 C 
ATOM     23  O   UNL     1      12.426   7.394  18.597  0.00  0.00    -0.350 OA
ATOM     24  C   UNL     1      12.690   7.554  17.832  0.00  0.00    +0.180 C 
ATOM     27  C   UNL     1      13.483   7.776  17.877  0.00  0.00    +0.198 C 
ATOM     28  O   UNL     1      13.966   7.984  17.241  0.00  0.00    -0.219 OA
ENDROOT
BRANCH  11   2
ATOM      1  C   UNL     1      14.654   8.717  19.142  0.00  0.00    +0.090 C 
ATOM      2  N   UNL     1      14.457   7.934  18.967  0.00  0.00    -0.268 NA
BRANCH   2   3
ATOM      3  C   UNL     1      15.010   7.334  19.088  0.00  0.00    +0.077 C 
BRANCH   3   4
ATOM      4  C   UNL     1      15.769   7.519  19.354  0.00  0.00    +0.044 C 
BRANCH   4   5
ATOM      5  C   UNL     1      16.314   6.916  19.495  0.00  0.00    -0.021 A 
ATOM      6  C   UNL     1      16.537   6.410  18.884  0.00  0.00    -0.004 A 
ATOM      7  C   UNL     1      17.083   5.807  19.025  0.00  0.00    -0.000 A 
ATOM      8  C   UNL     1      17.405   5.711  19.778  0.00  0.00    -0.000 A 
ATOM      9  C   UNL     1      17.182   6.218  20.391  0.00  0.00    -0.000 A 
ATOM     10  C   UNL     1      16.637   6.820  20.248  0.00  0.00    -0.004 A 
ENDBRANCH   4   5
ENDBRANCH   3   4
ENDBRANCH   2   3
ENDBRANCH  11   2
BRANCH  24  25
ATOM     25  C   UNL     1      12.240   7.501  17.142  0.00  0.00    +0.214 C 
ATOM     26  O   UNL     1      11.422   7.608  17.175  0.00  0.00    -0.218 OA
ENDBRANCH  24  25
BRANCH  12  13
ATOM     13  C   UNL     1      13.035   7.421  19.934  0.00  0.00    +0.120 C 
BRANCH  13  14
ATOM     14  N   UNL     1      12.311   7.355  20.323  0.00  0.00    -0.211 NA
BRANCH  14  15
ATOM     15  C   UNL     1      12.291   7.185  21.131  0.00  0.00    +0.115 C 
BRANCH  15  16
ATOM     16  C   UNL     1      11.639   7.410  21.584  0.00  0.00    -0.004 A 
ATOM     17  C   UNL     1      10.990   6.905  21.651  0.00  0.00    -0.003 A 
ATOM     18  C   UNL     1      10.338   7.130  22.103  0.00  0.00    +0.001 A 
ATOM     19  C   UNL     1      10.336   7.860  22.489  0.00  0.00    +0.011 A 
ATOM     20  C   UNL     1      10.985   8.364  22.422  0.00  0.00    +0.057 A 
ATOM     21 CL   UNL     1      10.983   9.093  22.808  0.00  0.00    -0.082 Cl
ATOM     22  C   UNL     1      11.636   8.139  21.969  0.00  0.00    +0.009 A 
ENDBRANCH  15  16
ENDBRANCH  14  15
ENDBRANCH  13  14
ENDBRANCH  12  13
TORSDOF 9
ENDMDL
