MODEL 1
REMARK VINA RESULT:     -11.4      0.000      0.000
REMARK  Name = 
REMARK  6 active torsions:
REMARK  status: ('A' for Active; 'I' for Inactive)
REMARK    1  A    between atoms: C_1  and  N_2
REMARK    2  A    between atoms: C_1  and  C_23
REMARK    3  A    between atoms: N_2  and  C_3
REMARK    4  A    between atoms: C_7  and  N_11
REMARK    5  A    between atoms: C_13  and  C_14
REMARK    6  A    between atoms: C_14  and  C_15
REMARK                            x       y       z     vdW  Elec       q    Type
REMARK                         _______ _______ _______ _____ _____    ______ ____
ROOT
ATOM      3  C   UNL     1      -3.877   0.301  24.261  0.00  0.00    +0.132 C 
ATOM      4  C   UNL     1      -3.201   0.634  23.927  0.00  0.00    +0.162 C 
ATOM      5  O   UNL     1      -3.173   1.428  24.147  0.00  0.00    -0.350 OA
ATOM      6  C   UNL     1      -3.831   1.587  24.617  0.00  0.00    +0.168 C 
ATOM      7  C   UNL     1      -4.222   2.175  25.044  0.00  0.00    +0.166 C 
ATOM      8  C   UNL     1      -4.898   1.842  25.379  0.00  0.00    +0.169 C 
ATOM      9  O   UNL     1      -4.926   1.048  25.159  0.00  0.00    -0.350 OA
ATOM     10  C   UNL     1      -4.267   0.890  24.688  0.00  0.00    +0.163 C 
ENDROOT
BRANCH   7  11
ATOM     11  N   UNL     1      -3.978   2.959  25.123  0.00  0.00    -0.227 N 
ATOM     12  C   UNL     1      -3.342   3.227  25.577  0.00  0.00    +0.113 A 
ATOM     13  C   UNL     1      -3.298   4.046  25.496  0.00  0.00    +0.101 A 
ATOM     21  N   UNL     1      -3.906   4.286  24.993  0.00  0.00    -0.133 NA
ATOM     22  N   UNL     1      -4.326   3.614  24.763  0.00  0.00    -0.064 NA
BRANCH  13  14
ATOM     14  C   UNL     1      -2.743   4.540  25.855  0.00  0.00    +0.049 C 
BRANCH  14  15
ATOM     15  C   UNL     1      -2.005   4.656  25.504  0.00  0.00    +0.006 C 
ATOM     16  C   UNL     1      -1.837   5.368  25.125  0.00  0.00    +0.000 C 
ATOM     17  C   UNL     1      -1.100   5.484  24.774  0.00  0.00    +0.000 C 
ATOM     18  C   UNL     1      -0.530   4.888  24.802  0.00  0.00    +0.000 C 
ATOM     19  C   UNL     1      -0.699   4.175  25.182  0.00  0.00    +0.000 C 
ATOM     20  C   UNL     1      -1.437   4.059  25.533  0.00  0.00    +0.000 C 
ENDBRANCH  14  15
ENDBRANCH  13  14
ENDBRANCH   7  11
BRANCH   3   2
ATOM      2  N   UNL     1      -4.121  -0.483  24.183  0.00  0.00    -0.210 NA
BRANCH   2   1
ATOM      1  C   UNL     1      -3.603  -1.048  23.877  0.00  0.00    +0.115 C 
BRANCH   1  23
ATOM     23  C   UNL     1      -3.690  -1.842  24.083  0.00  0.00    -0.005 A 
ATOM     24  C   UNL     1      -4.237  -2.314  23.684  0.00  0.00    -0.003 A 
ATOM     25  C   UNL     1      -4.324  -3.108  23.890  0.00  0.00    -0.000 A 
ATOM     26  C   UNL     1      -3.864  -3.430  24.495  0.00  0.00    -0.000 A 
ATOM     27  C   UNL     1      -3.318  -2.958  24.894  0.00  0.00    -0.000 A 
ATOM     28  C   UNL     1      -3.231  -2.164  24.688  0.00  0.00    -0.003 A 
ENDBRANCH   1  23
ENDBRANCH   2   1
ENDBRANCH   3   2
TORSDOF 6
ENDMDL
MODEL 2
REMARK VINA RESULT:     -10.7      3.958      6.156
REMARK  Name = 
REMARK  6 active torsions:
REMARK  status: ('A' for Active; 'I' for Inactive)
REMARK    1  A    between atoms: C_1  and  N_2
REMARK    2  A    between atoms: C_1  and  C_23
REMARK    3  A    between atoms: N_2  and  C_3
REMARK    4  A    between atoms: C_7  and  N_11
REMARK    5  A    between atoms: C_13  and  C_14
REMARK    6  A    between atoms: C_14  and  C_15
REMARK                            x       y       z     vdW  Elec       q    Type
REMARK                         _______ _______ _______ _____ _____    ______ ____
ROOT
ATOM      3  C   UNL     1       1.033   0.456  23.382  0.00  0.00    +0.132 C 
ATOM      4  C   UNL     1       0.662  -0.206  23.060  0.00  0.00    +0.162 C 
ATOM      5  O   UNL     1      -0.135  -0.177  23.269  0.00  0.00    -0.350 OA
ATOM      6  C   UNL     1      -0.257   0.502  23.720  0.00  0.00    +0.168 C 
ATOM      7  C   UNL     1      -0.824   0.941  24.128  0.00  0.00    +0.166 C 
ATOM      8  C   UNL     1      -0.452   1.603  24.450  0.00  0.00    +0.169 C 
ATOM      9  O   UNL     1       0.345   1.574  24.241  0.00  0.00    -0.350 OA
ATOM     10  C   UNL     1       0.466   0.894  23.789  0.00  0.00    +0.163 C 
ENDROOT
BRANCH   7  11
ATOM     11  N   UNL     1      -1.623   0.751  24.201  0.00  0.00    -0.227 N 
ATOM     12  C   UNL     1      -1.948   0.217  24.741  0.00  0.00    +0.113 A 
ATOM     13  C   UNL     1      -2.763   0.197  24.621  0.00  0.00    +0.101 A 
ATOM     21  N   UNL     1      -2.943   0.718  24.007  0.00  0.00    -0.133 NA
ATOM     22  N   UNL     1      -2.239   1.060  23.748  0.00  0.00    -0.064 NA
BRANCH  13  14
ATOM     14  C   UNL     1      -3.304  -0.264  25.041  0.00  0.00    +0.049 C 
BRANCH  14  15
ATOM     15  C   UNL     1      -3.495  -1.021  24.775  0.00  0.00    +0.006 C 
ATOM     16  C   UNL     1      -3.137  -1.680  25.117  0.00  0.00    +0.000 C 
ATOM     17  C   UNL     1      -3.328  -2.438  24.851  0.00  0.00    +0.000 C 
ATOM     18  C   UNL     1      -3.877  -2.536  24.243  0.00  0.00    +0.000 C 
ATOM     19  C   UNL     1      -4.235  -1.876  23.901  0.00  0.00    +0.000 C 
ATOM     20  C   UNL     1      -4.044  -1.118  24.167  0.00  0.00    +0.000 C 
ENDBRANCH  14  15
ENDBRANCH  13  14
ENDBRANCH   7  11
BRANCH   3   2
ATOM      2  N   UNL     1       1.833   0.647  23.308  0.00  0.00    -0.210 NA
BRANCH   2   1
ATOM      1  C   UNL     1       2.332   0.168  22.858  0.00  0.00    +0.115 C 
BRANCH   1  23
ATOM     23  C   UNL     1       3.150   0.261  22.909  0.00  0.00    -0.005 A 
ATOM     24  C   UNL     1       3.614  -0.339  23.232  0.00  0.00    -0.003 A 
ATOM     25  C   UNL     1       4.432  -0.246  23.283  0.00  0.00    -0.000 A 
ATOM     26  C   UNL     1       4.786   0.448  23.012  0.00  0.00    -0.000 A 
ATOM     27  C   UNL     1       4.322   1.049  22.689  0.00  0.00    -0.000 A 
ATOM     28  C   UNL     1       3.504   0.955  22.638  0.00  0.00    -0.003 A 
ENDBRANCH   1  23
ENDBRANCH   2   1
ENDBRANCH   3   2
TORSDOF 6
ENDMDL
MODEL 3
REMARK VINA RESULT:     -10.4      2.210      6.437
REMARK  Name = 
REMARK  6 active torsions:
REMARK  status: ('A' for Active; 'I' for Inactive)
REMARK    1  A    between atoms: C_1  and  N_2
REMARK    2  A    between atoms: C_1  and  C_23
REMARK    3  A    between atoms: N_2  and  C_3
REMARK    4  A    between atoms: C_7  and  N_11
REMARK    5  A    between atoms: C_13  and  C_14
REMARK    6  A    between atoms: C_14  and  C_15
REMARK                            x       y       z     vdW  Elec       q    Type
REMARK                         _______ _______ _______ _____ _____    ______ ____
ROOT
ATOM      3  C   UNL     1      -0.836   2.035  25.177  0.00  0.00    +0.132 C 
ATOM      4  C   UNL     1      -1.296   1.698  25.773  0.00  0.00    +0.162 C 
ATOM      5  O   UNL     1      -1.291   0.880  25.667  0.00  0.00    -0.350 OA
ATOM      6  C   UNL     1      -0.828   0.711  25.006  0.00  0.00    +0.168 C 
ATOM      7  C   UNL     1      -0.538   0.102  24.531  0.00  0.00    +0.166 C 
ATOM      8  C   UNL     1      -0.078   0.439  23.935  0.00  0.00    +0.169 C 
ATOM      9  O   UNL     1      -0.084   1.257  24.041  0.00  0.00    -0.350 OA
ATOM     10  C   UNL     1      -0.547   1.425  24.703  0.00  0.00    +0.163 C 
ENDROOT
BRANCH   7  11
ATOM     11  N   UNL     1      -0.683  -0.704  24.634  0.00  0.00    -0.227 N 
ATOM     12  C   UNL     1      -1.291  -1.137  24.282  0.00  0.00    +0.113 A 
ATOM     13  C   UNL     1      -1.229  -1.918  24.539  0.00  0.00    +0.101 A 
ATOM     21  N   UNL     1      -0.584  -1.969  25.049  0.00  0.00    -0.133 NA
ATOM     22  N   UNL     1      -0.246  -1.218  25.108  0.00  0.00    -0.064 NA
BRANCH  13  14
ATOM     14  C   UNL     1      -1.727  -2.540  24.322  0.00  0.00    +0.049 C 
BRANCH  14  15
ATOM     15  C   UNL     1      -2.539  -2.484  24.453  0.00  0.00    +0.006 C 
ATOM     16  C   UNL     1      -2.841  -2.570  25.216  0.00  0.00    +0.000 C 
ATOM     17  C   UNL     1      -3.653  -2.514  25.346  0.00  0.00    +0.000 C 
ATOM     18  C   UNL     1      -4.164  -2.370  24.715  0.00  0.00    +0.000 C 
ATOM     19  C   UNL     1      -3.862  -2.284  23.952  0.00  0.00    +0.000 C 
ATOM     20  C   UNL     1      -3.050  -2.341  23.821  0.00  0.00    +0.000 C 
ENDBRANCH  14  15
ENDBRANCH  13  14
ENDBRANCH   7  11
BRANCH   3   2
ATOM      2  N   UNL     1      -0.691   2.840  25.074  0.00  0.00    -0.210 NA
BRANCH   2   1
ATOM      1  C   UNL     1      -1.069   3.393  25.556  0.00  0.00    +0.115 C 
BRANCH   1  23
ATOM     23  C   UNL     1      -1.147   4.175  25.304  0.00  0.00    -0.005 A 
ATOM     24  C   UNL     1      -1.847   4.587  25.449  0.00  0.00    -0.003 A 
ATOM     25  C   UNL     1      -1.924   5.369  25.198  0.00  0.00    -0.000 A 
ATOM     26  C   UNL     1      -1.303   5.739  24.801  0.00  0.00    -0.000 A 
ATOM     27  C   UNL     1      -0.603   5.327  24.656  0.00  0.00    -0.000 A 
ATOM     28  C   UNL     1      -0.525   4.544  24.907  0.00  0.00    -0.003 A 
ENDBRANCH   1  23
ENDBRANCH   2   1
ENDBRANCH   3   2
TORSDOF 6
ENDMDL
MODEL 4
REMARK VINA RESULT:     -10.0      2.242      2.720
REMARK  Name = 
REMARK  6 active torsions:
REMARK  status: ('A' for Active; 'I' for Inactive)
REMARK    1  A    between atoms: C_1  and  N_2
REMARK    2  A    between atoms: C_1  and  C_23
REMARK    3  A    between atoms: N_2  and  C_3
REMARK    4  A    between atoms: C_7  and  N_11
REMARK    5  A    between atoms: C_13  and  C_14
REMARK    6  A    between atoms: C_14  and  C_15
REMARK                            x       y       z     vdW  Elec       q    Type
REMARK                         _______ _______ _______ _____ _____    ______ ____
ROOT
ATOM      3  C   UNL     1      -1.719  -0.799  25.083  0.00  0.00    +0.132 C 
ATOM      4  C   UNL     1      -1.695  -0.533  25.864  0.00  0.00    +0.162 C 
ATOM      5  O   UNL     1      -1.291   0.186  25.875  0.00  0.00    -0.350 OA
ATOM      6  C   UNL     1      -1.065   0.365  25.103  0.00  0.00    +0.168 C 
ATOM      7  C   UNL     1      -0.676   0.919  24.631  0.00  0.00    +0.166 C 
ATOM      8  C   UNL     1      -0.700   0.652  23.851  0.00  0.00    +0.169 C 
ATOM      9  O   UNL     1      -1.104  -0.066  23.840  0.00  0.00    -0.350 OA
ATOM     10  C   UNL     1      -1.330  -0.245  24.613  0.00  0.00    +0.163 C 
ENDROOT
BRANCH   7  11
ATOM     11  N   UNL     1      -0.325   1.617  24.895  0.00  0.00    -0.227 N 
ATOM     12  C   UNL     1      -0.702   2.225  25.307  0.00  0.00    +0.113 A 
ATOM     13  C   UNL     1      -0.144   2.814  25.459  0.00  0.00    +0.101 A 
ATOM     21  N   UNL     1       0.576   2.570  25.141  0.00  0.00    -0.133 NA
ATOM     22  N   UNL     1       0.465   1.831  24.792  0.00  0.00    -0.064 NA
BRANCH  13  14
ATOM     14  C   UNL     1      -0.284   3.522  25.859  0.00  0.00    +0.049 C 
BRANCH  14  15
ATOM     15  C   UNL     1      -0.806   4.078  25.544  0.00  0.00    +0.006 C 
ATOM     16  C   UNL     1      -0.530   4.650  25.019  0.00  0.00    +0.000 C 
ATOM     17  C   UNL     1      -1.052   5.206  24.705  0.00  0.00    +0.000 C 
ATOM     18  C   UNL     1      -1.850   5.189  24.915  0.00  0.00    +0.000 C 
ATOM     19  C   UNL     1      -2.126   4.615  25.440  0.00  0.00    +0.000 C 
ATOM     20  C   UNL     1      -1.604   4.060  25.755  0.00  0.00    +0.000 C 
ENDBRANCH  14  15
ENDBRANCH  13  14
ENDBRANCH   7  11
BRANCH   3   2
ATOM      2  N   UNL     1      -2.071  -1.498  24.820  0.00  0.00    -0.210 NA
BRANCH   2   1
ATOM      1  C   UNL     1      -2.800  -1.733  25.125  0.00  0.00    +0.115 C 
BRANCH   1  23
ATOM     23  C   UNL     1      -3.329  -2.154  24.651  0.00  0.00    -0.005 A 
ATOM     24  C   UNL     1      -3.937  -1.759  24.258  0.00  0.00    -0.003 A 
ATOM     25  C   UNL     1      -4.464  -2.180  23.786  0.00  0.00    -0.000 A 
ATOM     26  C   UNL     1      -4.385  -2.997  23.705  0.00  0.00    -0.000 A 
ATOM     27  C   UNL     1      -3.777  -3.393  24.098  0.00  0.00    -0.000 A 
ATOM     28  C   UNL     1      -3.248  -2.971  24.571  0.00  0.00    -0.003 A 
ENDBRANCH   1  23
ENDBRANCH   2   1
ENDBRANCH   3   2
TORSDOF 6
ENDMDL
MODEL 5
REMARK VINA RESULT:      -9.9      1.001      5.903
REMARK  Name = 
REMARK  6 active torsions:
REMARK  status: ('A' for Active; 'I' for Inactive)
REMARK    1  A    between atoms: C_1  and  N_2
REMARK    2  A    between atoms: C_1  and  C_23
REMARK    3  A    between atoms: N_2  and  C_3
REMARK    4  A    between atoms: C_7  and  N_11
REMARK    5  A    between atoms: C_13  and  C_14
REMARK    6  A    between atoms: C_14  and  C_15
REMARK                            x       y       z     vdW  Elec       q    Type
REMARK                         _______ _______ _______ _____ _____    ______ ____
ROOT
ATOM      3  C   UNL     1      -2.674   2.622  25.026  0.00  0.00    +0.132 C 
ATOM      4  C   UNL     1      -2.207   1.991  25.281  0.00  0.00    +0.162 C 
ATOM      5  O   UNL     1      -2.625   1.294  25.141  0.00  0.00    -0.350 OA
ATOM      6  C   UNL     1      -3.348   1.493  24.800  0.00  0.00    +0.168 C 
ATOM      7  C   UNL     1      -4.054   1.186  24.502  0.00  0.00    +0.166 C 
ATOM      8  C   UNL     1      -4.520   1.817  24.247  0.00  0.00    +0.169 C 
ATOM      9  O   UNL     1      -4.103   2.514  24.387  0.00  0.00    -0.350 OA
ATOM     10  C   UNL     1      -3.378   2.314  24.729  0.00  0.00    +0.163 C 
ENDROOT
BRANCH   7  11
ATOM     11  N   UNL     1      -4.257   0.387  24.466  0.00  0.00    -0.227 N 
ATOM     12  C   UNL     1      -3.884  -0.189  24.006  0.00  0.00    +0.113 A 
ATOM     13  C   UNL     1      -4.266  -0.908  24.139  0.00  0.00    +0.101 A 
ATOM     21  N   UNL     1      -4.873  -0.777  24.681  0.00  0.00    -0.133 NA
ATOM     22  N   UNL     1      -4.868   0.023  24.883  0.00  0.00    -0.064 NA
BRANCH  13  14
ATOM     14  C   UNL     1      -4.073  -1.631  23.791  0.00  0.00    +0.049 C 
BRANCH  14  15
ATOM     15  C   UNL     1      -3.520  -2.127  24.150  0.00  0.00    +0.006 C 
ATOM     16  C   UNL     1      -2.717  -2.033  23.991  0.00  0.00    +0.000 C 
ATOM     17  C   UNL     1      -2.164  -2.529  24.350  0.00  0.00    +0.000 C 
ATOM     18  C   UNL     1      -2.415  -3.119  24.869  0.00  0.00    +0.000 C 
ATOM     19  C   UNL     1      -3.219  -3.213  25.028  0.00  0.00    +0.000 C 
ATOM     20  C   UNL     1      -3.772  -2.717  24.669  0.00  0.00    +0.000 C 
ENDBRANCH  14  15
ENDBRANCH  13  14
ENDBRANCH   7  11
BRANCH   3   2
ATOM      2  N   UNL     1      -2.470   3.421  25.062  0.00  0.00    -0.210 NA
BRANCH   2   1
ATOM      1  C   UNL     1      -1.730   3.646  25.348  0.00  0.00    +0.115 C 
BRANCH   1  23
ATOM     23  C   UNL     1      -1.421   4.387  25.157  0.00  0.00    -0.005 A 
ATOM     24  C   UNL     1      -0.658   4.449  24.848  0.00  0.00    -0.003 A 
ATOM     25  C   UNL     1      -0.350   5.189  24.657  0.00  0.00    -0.000 A 
ATOM     26  C   UNL     1      -0.804   5.869  24.774  0.00  0.00    -0.000 A 
ATOM     27  C   UNL     1      -1.567   5.807  25.082  0.00  0.00    -0.000 A 
ATOM     28  C   UNL     1      -1.875   5.065  25.274  0.00  0.00    -0.003 A 
ENDBRANCH   1  23
ENDBRANCH   2   1
ENDBRANCH   3   2
TORSDOF 6
ENDMDL
MODEL 6
REMARK VINA RESULT:      -9.8      3.963      5.612
REMARK  Name = 
REMARK  6 active torsions:
REMARK  status: ('A' for Active; 'I' for Inactive)
REMARK    1  A    between atoms: C_1  and  N_2
REMARK    2  A    between atoms: C_1  and  C_23
REMARK    3  A    between atoms: N_2  and  C_3
REMARK    4  A    between atoms: C_7  and  N_11
REMARK    5  A    between atoms: C_13  and  C_14
REMARK    6  A    between atoms: C_14  and  C_15
REMARK                            x       y       z     vdW  Elec       q    Type
REMARK                         _______ _______ _______ _____ _____    ______ ____
ROOT
ATOM      3  C   UNL     1       1.046   0.479  23.381  0.00  0.00    +0.132 C 
ATOM      4  C   UNL     1       0.664  -0.210  23.137  0.00  0.00    +0.162 C 
ATOM      5  O   UNL     1      -0.113  -0.181  23.410  0.00  0.00    -0.350 OA
ATOM      6  C   UNL     1      -0.212   0.525  23.823  0.00  0.00    +0.168 C 
ATOM      7  C   UNL     1      -0.753   0.981  24.248  0.00  0.00    +0.166 C 
ATOM      8  C   UNL     1      -0.372   1.670  24.492  0.00  0.00    +0.169 C 
ATOM      9  O   UNL     1       0.406   1.641  24.218  0.00  0.00    -0.350 OA
ATOM     10  C   UNL     1       0.505   0.933  23.805  0.00  0.00    +0.163 C 
ENDROOT
BRANCH   7  11
ATOM     11  N   UNL     1      -1.539   0.782  24.401  0.00  0.00    -0.227 N 
ATOM     12  C   UNL     1      -2.193   1.001  23.948  0.00  0.00    +0.113 A 
ATOM     13  C   UNL     1      -2.867   0.683  24.302  0.00  0.00    +0.101 A 
ATOM     21  N   UNL     1      -2.630   0.267  24.973  0.00  0.00    -0.133 NA
ATOM     22  N   UNL     1      -1.809   0.328  25.035  0.00  0.00    -0.064 NA
BRANCH  13  14
ATOM     14  C   UNL     1      -3.642   0.766  24.031  0.00  0.00    +0.049 C 
BRANCH  14  15
ATOM     15  C   UNL     1      -4.158   1.286  24.410  0.00  0.00    +0.006 C 
ATOM     16  C   UNL     1      -4.145   2.089  24.223  0.00  0.00    +0.000 C 
ATOM     17  C   UNL     1      -4.660   2.609  24.602  0.00  0.00    +0.000 C 
ATOM     18  C   UNL     1      -5.189   2.327  25.168  0.00  0.00    +0.000 C 
ATOM     19  C   UNL     1      -5.202   1.523  25.356  0.00  0.00    +0.000 C 
ATOM     20  C   UNL     1      -4.687   1.003  24.977  0.00  0.00    +0.000 C 
ENDBRANCH  14  15
ENDBRANCH  13  14
ENDBRANCH   7  11
BRANCH   3   2
ATOM      2  N   UNL     1       1.832   0.678  23.227  0.00  0.00    -0.210 NA
BRANCH   2   1
ATOM      1  C   UNL     1       2.337   0.127  22.878  0.00  0.00    +0.115 C 
BRANCH   1  23
ATOM     23  C   UNL     1       3.155   0.233  22.918  0.00  0.00    -0.005 A 
ATOM     24  C   UNL     1       3.496   0.924  22.623  0.00  0.00    -0.003 A 
ATOM     25  C   UNL     1       4.312   1.029  22.662  0.00  0.00    -0.000 A 
ATOM     26  C   UNL     1       4.789   0.445  22.997  0.00  0.00    -0.000 A 
ATOM     27  C   UNL     1       4.448  -0.246  23.292  0.00  0.00    -0.000 A 
ATOM     28  C   UNL     1       3.630  -0.352  23.253  0.00  0.00    -0.003 A 
ENDBRANCH   1  23
ENDBRANCH   2   1
ENDBRANCH   3   2
TORSDOF 6
ENDMDL
MODEL 7
REMARK VINA RESULT:      -9.4      2.959      4.507
REMARK  Name = 
REMARK  6 active torsions:
REMARK  status: ('A' for Active; 'I' for Inactive)
REMARK    1  A    between atoms: C_1  and  N_2
REMARK    2  A    between atoms: C_1  and  C_23
REMARK    3  A    between atoms: N_2  and  C_3
REMARK    4  A    between atoms: C_7  and  N_11
REMARK    5  A    between atoms: C_13  and  C_14
REMARK    6  A    between atoms: C_14  and  C_15
REMARK                            x       y       z     vdW  Elec       q    Type
REMARK                         _______ _______ _______ _____ _____    ______ ____
ROOT
ATOM      3  C   UNL     1      -0.313   1.644  24.306  0.00  0.00    +0.132 C 
ATOM      4  C   UNL     1      -0.895   1.141  24.602  0.00  0.00    +0.162 C 
ATOM      5  O   UNL     1      -1.524   1.606  24.864  0.00  0.00    -0.350 OA
ATOM      6  C   UNL     1      -1.331   2.396  24.729  0.00  0.00    +0.168 C 
ATOM      7  C   UNL     1      -1.599   3.172  24.807  0.00  0.00    +0.166 C 
ATOM      8  C   UNL     1      -1.017   3.675  24.511  0.00  0.00    +0.169 C 
ATOM      9  O   UNL     1      -0.388   3.210  24.250  0.00  0.00    -0.350 OA
ATOM     10  C   UNL     1      -0.582   2.419  24.384  0.00  0.00    +0.163 C 
ENDROOT
BRANCH   7  11
ATOM     11  N   UNL     1      -2.324   3.404  25.126  0.00  0.00    -0.227 N 
ATOM     12  C   UNL     1      -3.055   3.373  24.744  0.00  0.00    +0.113 A 
ATOM     13  C   UNL     1      -3.628   3.657  25.265  0.00  0.00    +0.101 A 
ATOM     21  N   UNL     1      -3.251   3.865  25.968  0.00  0.00    -0.133 NA
ATOM     22  N   UNL     1      -2.446   3.708  25.883  0.00  0.00    -0.064 NA
BRANCH  13  14
ATOM     14  C   UNL     1      -4.435   3.723  25.108  0.00  0.00    +0.049 C 
BRANCH  14  15
ATOM     15  C   UNL     1      -4.932   3.075  25.224  0.00  0.00    +0.006 C 
ATOM     16  C   UNL     1      -5.333   2.986  25.939  0.00  0.00    +0.000 C 
ATOM     17  C   UNL     1      -5.830   2.337  26.055  0.00  0.00    +0.000 C 
ATOM     18  C   UNL     1      -5.925   1.778  25.457  0.00  0.00    +0.000 C 
ATOM     19  C   UNL     1      -5.524   1.868  24.741  0.00  0.00    +0.000 C 
ATOM     20  C   UNL     1      -5.027   2.516  24.625  0.00  0.00    +0.000 C 
ENDBRANCH  14  15
ENDBRANCH  13  14
ENDBRANCH   7  11
BRANCH   3   2
ATOM      2  N   UNL     1       0.412   1.412  23.987  0.00  0.00    -0.210 NA
BRANCH   2   1
ATOM      1  C   UNL     1       0.525   0.631  23.744  0.00  0.00    +0.115 C 
BRANCH   1  23
ATOM     23  C   UNL     1       1.173   0.436  23.272  0.00  0.00    -0.005 A 
ATOM     24  C   UNL     1       1.913   0.765  23.430  0.00  0.00    -0.003 A 
ATOM     25  C   UNL     1       2.560   0.569  22.957  0.00  0.00    -0.000 A 
ATOM     26  C   UNL     1       2.468   0.045  22.326  0.00  0.00    -0.000 A 
ATOM     27  C   UNL     1       1.728  -0.283  22.169  0.00  0.00    -0.000 A 
ATOM     28  C   UNL     1       1.080  -0.088  22.641  0.00  0.00    -0.003 A 
ENDBRANCH   1  23
ENDBRANCH   2   1
ENDBRANCH   3   2
TORSDOF 6
ENDMDL
