REMARK  Name = 
REMARK  2 active torsions:
REMARK  status: ('A' for Active; 'I' for Inactive)
REMARK    1  A    between atoms: N_9  and  C_11
REMARK    2  A    between atoms: C_20  and  C_21
REMARK                            x       y       z     vdW  Elec       q    Type
REMARK                         _______ _______ _______ _____ _____    ______ ____
ROOT
ATOM      1  O   UNL     1       0.679  -3.514   0.000  0.00  0.00    -0.267 OA
ATOM      2  C   UNL     1       1.157  -2.841   0.000  0.00  0.00    +0.261 A 
ATOM      3  N   UNL     1       0.813  -2.091   0.000  0.00  0.00    -0.299 N 
ATOM      4  C   UNL     1       1.629  -1.912   0.000  0.00  0.00    +0.110 C 
ATOM      5  C   UNL     1       1.582  -0.925   0.000  0.00  0.00    +0.039 C 
ATOM      6  C   UNL     1       1.713  -0.121   0.000  0.00  0.00    +0.011 C 
ATOM      7  C   UNL     1       1.163  -0.557   0.000  0.00  0.00    +0.054 C 
ATOM      8  C   UNL     1       0.244  -0.558   0.000  0.00  0.00    +0.078 C 
ATOM      9  N   UNL     1       0.117  -1.360   0.000  0.00  0.00    -0.273 NA
ATOM     10  C   UNL     1       0.622  -0.936   0.000  0.00  0.00    +0.074 C 
ATOM     17  C   UNL     1       1.290  -1.419   0.000  0.00  0.00    +0.041 A 
ATOM     18  C   UNL     1       2.111  -1.496   0.000  0.00  0.00    +0.013 A 
ATOM     19  C   UNL     1       2.455  -2.245   0.000  0.00  0.00    +0.006 A 
ATOM     20  C   UNL     1       1.978  -2.918   0.000  0.00  0.00    +0.062 A 
ENDROOT
BRANCH  20  21
ATOM     21  C   UNL     1       2.322  -3.668   0.000  0.00  0.00    +0.034 A 
ATOM     22  C   UNL     1       1.918  -4.387   0.000  0.00  0.00    +0.007 A 
ATOM     23  C   UNL     1       2.477  -4.994   0.000  0.00  0.00    +0.006 A 
ATOM     24  C   UNL     1       3.227  -4.650   0.000  0.00  0.00    +0.029 A 
ATOM     25  S   UNL     1       3.131  -3.830   0.000  0.00  0.00    -0.087 S 
ATOM     26  C   UNL     1       3.899  -5.127   0.000  0.00  0.00    +0.006 A 
ATOM     27  C   UNL     1       3.822  -5.949   0.000  0.00  0.00    +0.001 A 
ATOM     28  C   UNL     1       3.073  -6.293   0.000  0.00  0.00    +0.000 A 
ATOM     29  C   UNL     1       2.400  -5.815   0.000  0.00  0.00    +0.001 A 
ENDBRANCH  20  21
BRANCH   9  11
ATOM     11  C   UNL     1      -0.288  -2.078   0.000  0.00  0.00    +0.063 C 
ATOM     12  C   UNL     1       0.131  -2.789   0.000  0.00  0.00    +0.048 C 
ATOM     13  C   UNL     1      -0.275  -3.507   0.000  0.00  0.00    +0.144 C 
ATOM     14  O   UNL     1      -1.100  -3.515   0.000  0.00  0.00    -0.354 OA
ATOM     15  C   UNL     1      -1.519  -2.804   0.000  0.00  0.00    +0.144 C 
ATOM     16  C   UNL     1      -1.113  -2.086   0.000  0.00  0.00    +0.048 C 
ENDBRANCH   9  11
TORSDOF 2
