MODEL 1
REMARK VINA RESULT:     -10.3      0.000      0.000
REMARK  Name = 
REMARK  7 active torsions:
REMARK  status: ('A' for Active; 'I' for Inactive)
REMARK    1  A    between atoms: C_2  and  C_3
REMARK    2  A    between atoms: C_5  and  O_26
REMARK    3  A    between atoms: C_10  and  C_11
REMARK    4  A    between atoms: C_11  and  C_12
REMARK    5  A    between atoms: C_18  and  C_19
REMARK    6  A    between atoms: O_26  and  C_27
REMARK    7  A    between atoms: N_29  and  C_30
REMARK                            x       y       z     vdW  Elec       q    Type
REMARK                         _______ _______ _______ _____ _____    ______ ____
ROOT
ATOM      1  C   UNL     1      -3.386   0.532  24.439  0.00  0.00    +0.006 C 
ATOM      2  C   UNL     1      -2.579   0.383  24.361  0.00  0.00    +0.068 C 
ATOM      5  C   UNL     1      -2.611   1.154  24.071  0.00  0.00    +0.173 C 
ATOM      6  C   UNL     1      -1.920   1.527  23.813  0.00  0.00    +0.044 C 
ATOM      7  C   UNL     1      -1.200   1.128  23.846  0.00  0.00    +0.004 C 
ATOM      8  C   UNL     1      -1.168   0.357  24.136  0.00  0.00    +0.003 C 
ATOM      9  C   UNL     1      -0.479   0.729  23.878  0.00  0.00    +0.000 C 
ATOM     10  C   UNL     1      -0.446  -0.042  24.168  0.00  0.00    +0.040 C 
ATOM     21  C   UNL     1      -0.414  -0.814  24.458  0.00  0.00    +0.152 C 
ATOM     22  O   UNL     1       0.307  -1.213  24.491  0.00  0.00    -0.223 OA
ATOM     23  C   UNL     1      -1.105  -1.187  24.716  0.00  0.00    +0.033 C 
ATOM     24  C   UNL     1      -1.825  -0.788  24.683  0.00  0.00    +0.003 C 
ATOM     25  C   UNL     1      -1.858  -0.016  24.394  0.00  0.00    +0.006 C 
ENDROOT
BRANCH   2   3
ATOM      3  C   UNL     1      -2.827  -0.337  24.678  0.00  0.00    +0.185 C 
ATOM      4  O   UNL     1      -3.613  -0.435  24.913  0.00  0.00    -0.220 OA
ENDBRANCH   2   3
BRANCH  10  11
ATOM     11  C   UNL     1       0.243   0.330  23.911  0.00  0.00    +0.088 C 
BRANCH  11  12
ATOM     12  C   UNL     1       0.649   0.039  23.254  0.00  0.00    +0.226 C 
ATOM     13  O   UNL     1       0.287  -0.510  22.756  0.00  0.00    -0.275 OA
ATOM     14  N   UNL     1       1.416   0.297  23.096  0.00  0.00    -0.279 N 
ATOM     15  C   UNL     1       1.847   0.840  23.542  0.00  0.00    +0.093 C 
ATOM     16  C   UNL     1       2.585   0.935  23.186  0.00  0.00    +0.023 C 
ATOM     17  C   UNL     1       2.610   0.450  22.519  0.00  0.00    +0.024 C 
ATOM     18  C   UNL     1       1.888   0.055  22.463  0.00  0.00    +0.108 C 
BRANCH  18  19
ATOM     19  C   UNL     1       1.675  -0.486  21.879  0.00  0.00    +0.202 C 
ATOM     20  O   UNL     1       2.026  -0.445  21.132  0.00  0.00    -0.219 OA
ENDBRANCH  18  19
ENDBRANCH  11  12
ENDBRANCH  10  11
BRANCH   5  26
ATOM     26  O   UNL     1      -3.332   1.554  24.039  0.00  0.00    -0.437 OA
BRANCH  26  27
ATOM     27  C   UNL     1      -3.486   2.080  23.422  0.00  0.00    +0.425 C 
ATOM     28  O   UNL     1      -3.115   1.978  22.691  0.00  0.00    -0.224 OA
ATOM     29  N   UNL     1      -4.009   2.707  23.536  0.00  0.00    -0.142 NA
BRANCH  29  30
ATOM     30  C   UNL     1      -4.379   2.809  24.266  0.00  0.00    +0.078 A 
ATOM     31  C   UNL     1      -4.039   3.298  24.836  0.00  0.00    +0.029 A 
ATOM     32  C   UNL     1      -4.408   3.400  25.566  0.00  0.00    +0.069 A 
ATOM     33 CL   UNL     1      -4.068   3.889  26.137  0.00  0.00    -0.081 Cl
ATOM     34  C   UNL     1      -5.119   3.012  25.727  0.00  0.00    +0.068 A 
ATOM     35 CL   UNL     1      -5.488   3.114  26.457  0.00  0.00    -0.081 Cl
ATOM     36  C   UNL     1      -5.458   2.523  25.156  0.00  0.00    +0.014 A 
ATOM     37  C   UNL     1      -5.089   2.421  24.427  0.00  0.00    +0.018 A 
ENDBRANCH  29  30
ENDBRANCH  26  27
ENDBRANCH   5  26
TORSDOF 7
ENDMDL
MODEL 2
REMARK VINA RESULT:     -10.2      1.677      2.383
REMARK  Name = 
REMARK  7 active torsions:
REMARK  status: ('A' for Active; 'I' for Inactive)
REMARK    1  A    between atoms: C_2  and  C_3
REMARK    2  A    between atoms: C_5  and  O_26
REMARK    3  A    between atoms: C_10  and  C_11
REMARK    4  A    between atoms: C_11  and  C_12
REMARK    5  A    between atoms: C_18  and  C_19
REMARK    6  A    between atoms: O_26  and  C_27
REMARK    7  A    between atoms: N_29  and  C_30
REMARK                            x       y       z     vdW  Elec       q    Type
REMARK                         _______ _______ _______ _____ _____    ______ ____
ROOT
ATOM      1  C   UNL     1      -2.835   3.602  25.411  0.00  0.00    +0.006 C 
ATOM      2  C   UNL     1      -2.177   3.124  25.274  0.00  0.00    +0.068 C 
ATOM      5  C   UNL     1      -2.715   2.780  24.753  0.00  0.00    +0.173 C 
ATOM      6  C   UNL     1      -2.487   2.134  24.291  0.00  0.00    +0.044 C 
ATOM      7  C   UNL     1      -1.722   1.833  24.352  0.00  0.00    +0.004 C 
ATOM      8  C   UNL     1      -1.184   2.177  24.873  0.00  0.00    +0.003 C 
ATOM      9  C   UNL     1      -0.957   1.533  24.412  0.00  0.00    +0.000 C 
ATOM     10  C   UNL     1      -0.418   1.877  24.934  0.00  0.00    +0.040 C 
ATOM     21  C   UNL     1       0.120   2.221  25.455  0.00  0.00    +0.152 C 
ATOM     22  O   UNL     1       0.886   1.920  25.516  0.00  0.00    -0.223 OA
ATOM     23  C   UNL     1      -0.107   2.867  25.917  0.00  0.00    +0.033 C 
ATOM     24  C   UNL     1      -0.873   3.167  25.856  0.00  0.00    +0.003 C 
ATOM     25  C   UNL     1      -1.412   2.823  25.335  0.00  0.00    +0.006 C 
ENDROOT
BRANCH   2   3
ATOM      3  C   UNL     1      -1.867   3.634  25.843  0.00  0.00    +0.185 C 
ATOM      4  O   UNL     1      -2.358   4.183  26.216  0.00  0.00    -0.220 OA
ENDBRANCH   2   3
BRANCH  10  11
ATOM     11  C   UNL     1      -0.190   1.231  24.473  0.00  0.00    +0.088 C 
BRANCH  11  12
ATOM     12  C   UNL     1       0.524   1.250  24.060  0.00  0.00    +0.226 C 
ATOM     13  O   UNL     1       1.000   1.924  24.091  0.00  0.00    -0.275 OA
ATOM     14  N   UNL     1       0.761   0.597  23.618  0.00  0.00    -0.279 N 
ATOM     15  C   UNL     1       0.346  -0.111  23.536  0.00  0.00    +0.093 C 
ATOM     16  C   UNL     1       0.784  -0.610  23.046  0.00  0.00    +0.023 C 
ATOM     17  C   UNL     1       1.472  -0.210  22.825  0.00  0.00    +0.024 C 
ATOM     18  C   UNL     1       1.458   0.536  23.179  0.00  0.00    +0.108 C 
BRANCH  18  19
ATOM     19  C   UNL     1       2.037   1.118  23.106  0.00  0.00    +0.202 C 
ATOM     20  O   UNL     1       2.779   0.925  22.797  0.00  0.00    -0.219 OA
ENDBRANCH  18  19
ENDBRANCH  11  12
ENDBRANCH  10  11
BRANCH   5  26
ATOM     26  O   UNL     1      -3.481   3.080  24.692  0.00  0.00    -0.437 OA
BRANCH  26  27
ATOM     27  C   UNL     1      -3.862   3.097  23.960  0.00  0.00    +0.425 C 
ATOM     28  O   UNL     1      -3.444   3.317  23.282  0.00  0.00    -0.224 OA
ATOM     29  N   UNL     1      -4.659   2.893  23.904  0.00  0.00    -0.142 NA
BRANCH  29  30
ATOM     30  C   UNL     1      -5.076   2.672  24.581  0.00  0.00    +0.078 A 
ATOM     31  C   UNL     1      -5.182   1.874  24.759  0.00  0.00    +0.029 A 
ATOM     32  C   UNL     1      -5.598   1.653  25.435  0.00  0.00    +0.069 A 
ATOM     33 CL   UNL     1      -5.704   0.854  25.613  0.00  0.00    -0.081 Cl
ATOM     34  C   UNL     1      -5.911   2.231  25.934  0.00  0.00    +0.068 A 
ATOM     35 CL   UNL     1      -6.328   2.010  26.611  0.00  0.00    -0.081 Cl
ATOM     36  C   UNL     1      -5.805   3.029  25.756  0.00  0.00    +0.014 A 
ATOM     37  C   UNL     1      -5.388   3.250  25.080  0.00  0.00    +0.018 A 
ENDBRANCH  29  30
ENDBRANCH  26  27
ENDBRANCH   5  26
TORSDOF 7
ENDMDL
MODEL 3
REMARK VINA RESULT:     -10.0      3.266      5.991
REMARK  Name = 
REMARK  7 active torsions:
REMARK  status: ('A' for Active; 'I' for Inactive)
REMARK    1  A    between atoms: C_2  and  C_3
REMARK    2  A    between atoms: C_5  and  O_26
REMARK    3  A    between atoms: C_10  and  C_11
REMARK    4  A    between atoms: C_11  and  C_12
REMARK    5  A    between atoms: C_18  and  C_19
REMARK    6  A    between atoms: O_26  and  C_27
REMARK    7  A    between atoms: N_29  and  C_30
REMARK                            x       y       z     vdW  Elec       q    Type
REMARK                         _______ _______ _______ _____ _____    ______ ____
ROOT
ATOM      1  C   UNL     1       1.264   1.245  23.616  0.00  0.00    +0.006 C 
ATOM      2  C   UNL     1       0.608   0.861  23.937  0.00  0.00    +0.068 C 
ATOM      5  C   UNL     1       0.929   0.246  23.492  0.00  0.00    +0.173 C 
ATOM      6  C   UNL     1       0.561  -0.493  23.485  0.00  0.00    +0.044 C 
ATOM      7  C   UNL     1      -0.126  -0.616  23.922  0.00  0.00    +0.004 C 
ATOM      8  C   UNL     1      -0.448  -0.001  24.367  0.00  0.00    +0.003 C 
ATOM      9  C   UNL     1      -0.814  -0.739  24.359  0.00  0.00    +0.000 C 
ATOM     10  C   UNL     1      -1.136  -0.123  24.805  0.00  0.00    +0.040 C 
ATOM     21  C   UNL     1      -1.457   0.492  25.250  0.00  0.00    +0.152 C 
ATOM     22  O   UNL     1      -2.146   0.370  25.688  0.00  0.00    -0.223 OA
ATOM     23  C   UNL     1      -1.090   1.232  25.258  0.00  0.00    +0.033 C 
ATOM     24  C   UNL     1      -0.402   1.354  24.820  0.00  0.00    +0.003 C 
ATOM     25  C   UNL     1      -0.080   0.739  24.375  0.00  0.00    +0.006 C 
ENDROOT
BRANCH   2   3
ATOM      3  C   UNL     1       0.515   1.610  24.271  0.00  0.00    +0.185 C 
ATOM      4  O   UNL     1       1.107   2.178  24.181  0.00  0.00    -0.220 OA
ENDBRANCH   2   3
BRANCH  10  11
ATOM     11  C   UNL     1      -1.503  -0.862  24.797  0.00  0.00    +0.088 C 
BRANCH  11  12
ATOM     12  C   UNL     1      -2.290  -0.930  24.558  0.00  0.00    +0.226 C 
ATOM     13  O   UNL     1      -2.680  -0.277  24.235  0.00  0.00    -0.275 OA
ATOM     14  N   UNL     1      -2.686  -1.648  24.639  0.00  0.00    -0.279 N 
ATOM     15  C   UNL     1      -2.369  -2.343  24.950  0.00  0.00    +0.093 C 
ATOM     16  C   UNL     1      -2.956  -2.923  24.927  0.00  0.00    +0.023 C 
ATOM     17  C   UNL     1      -3.636  -2.586  24.603  0.00  0.00    +0.024 C 
ATOM     18  C   UNL     1      -3.469  -1.797  24.425  0.00  0.00    +0.108 C 
BRANCH  18  19
ATOM     19  C   UNL     1      -3.992  -1.254  24.091  0.00  0.00    +0.202 C 
ATOM     20  O   UNL     1      -4.748  -1.497  23.862  0.00  0.00    -0.219 OA
ENDBRANCH  18  19
ENDBRANCH  11  12
ENDBRANCH  10  11
BRANCH   5  26
ATOM     26  O   UNL     1       1.618   0.369  23.054  0.00  0.00    -0.437 OA
BRANCH  26  27
ATOM     27  C   UNL     1       1.695   0.036  22.303  0.00  0.00    +0.425 C 
ATOM     28  O   UNL     1       1.021  -0.146  21.861  0.00  0.00    -0.224 OA
ATOM     29  N   UNL     1       2.444  -0.115  21.993  0.00  0.00    -0.142 NA
BRANCH  29  30
ATOM     30  C   UNL     1       3.117   0.067  22.435  0.00  0.00    +0.078 A 
ATOM     31  C   UNL     1       3.467  -0.510  22.910  0.00  0.00    +0.029 A 
ATOM     32  C   UNL     1       4.139  -0.328  23.351  0.00  0.00    +0.069 A 
ATOM     33 CL   UNL     1       4.490  -0.905  23.826  0.00  0.00    -0.081 Cl
ATOM     34  C   UNL     1       4.463   0.430  23.317  0.00  0.00    +0.068 A 
ATOM     35 CL   UNL     1       5.136   0.611  23.759  0.00  0.00    -0.081 Cl
ATOM     36  C   UNL     1       4.113   1.006  22.842  0.00  0.00    +0.014 A 
ATOM     37  C   UNL     1       3.441   0.825  22.401  0.00  0.00    +0.018 A 
ENDBRANCH  29  30
ENDBRANCH  26  27
ENDBRANCH   5  26
TORSDOF 7
ENDMDL
MODEL 4
REMARK VINA RESULT:      -9.6      3.479      4.783
REMARK  Name = 
REMARK  7 active torsions:
REMARK  status: ('A' for Active; 'I' for Inactive)
REMARK    1  A    between atoms: C_2  and  C_3
REMARK    2  A    between atoms: C_5  and  O_26
REMARK    3  A    between atoms: C_10  and  C_11
REMARK    4  A    between atoms: C_11  and  C_12
REMARK    5  A    between atoms: C_18  and  C_19
REMARK    6  A    between atoms: O_26  and  C_27
REMARK    7  A    between atoms: N_29  and  C_30
REMARK                            x       y       z     vdW  Elec       q    Type
REMARK                         _______ _______ _______ _____ _____    ______ ____
ROOT
ATOM      1  C   UNL     1      -3.803   3.765  25.006  0.00  0.00    +0.006 C 
ATOM      2  C   UNL     1      -3.980   2.959  25.013  0.00  0.00    +0.068 C 
ATOM      5  C   UNL     1      -3.208   2.938  25.301  0.00  0.00    +0.173 C 
ATOM      6  C   UNL     1      -2.859   2.215  25.496  0.00  0.00    +0.044 C 
ATOM      7  C   UNL     1      -3.284   1.515  25.402  0.00  0.00    +0.004 C 
ATOM      8  C   UNL     1      -4.056   1.536  25.114  0.00  0.00    +0.003 C 
ATOM      9  C   UNL     1      -3.708   0.814  25.308  0.00  0.00    +0.000 C 
ATOM     10  C   UNL     1      -4.481   0.835  25.019  0.00  0.00    +0.040 C 
ATOM     21  C   UNL     1      -5.253   0.855  24.731  0.00  0.00    +0.152 C 
ATOM     22  O   UNL     1      -5.678   0.155  24.636  0.00  0.00    -0.223 OA
ATOM     23  C   UNL     1      -5.601   1.579  24.536  0.00  0.00    +0.033 C 
ATOM     24  C   UNL     1      -5.177   2.279  24.630  0.00  0.00    +0.003 C 
ATOM     25  C   UNL     1      -4.404   2.259  24.919  0.00  0.00    +0.006 C 
ENDROOT
BRANCH   2   3
ATOM      3  C   UNL     1      -4.691   3.260  24.722  0.00  0.00    +0.185 C 
ATOM      4  O   UNL     1      -4.746   4.056  24.510  0.00  0.00    -0.220 OA
ENDBRANCH   2   3
BRANCH  10  11
ATOM     11  C   UNL     1      -4.132   0.112  25.213  0.00  0.00    +0.088 C 
BRANCH  11  12
ATOM     12  C   UNL     1      -4.137  -0.508  24.670  0.00  0.00    +0.226 C 
ATOM     13  O   UNL     1      -4.424  -0.384  23.906  0.00  0.00    -0.275 OA
ATOM     14  N   UNL     1      -3.857  -1.251  24.890  0.00  0.00    -0.279 N 
ATOM     15  C   UNL     1      -3.556  -1.457  25.629  0.00  0.00    +0.093 C 
ATOM     16  C   UNL     1      -3.341  -2.253  25.605  0.00  0.00    +0.023 C 
ATOM     17  C   UNL     1      -3.509  -2.540  24.850  0.00  0.00    +0.024 C 
ATOM     18  C   UNL     1      -3.828  -1.920  24.407  0.00  0.00    +0.108 C 
BRANCH  18  19
ATOM     19  C   UNL     1      -4.075  -1.963  23.622  0.00  0.00    +0.202 C 
ATOM     20  O   UNL     1      -4.249  -2.696  23.283  0.00  0.00    -0.219 OA
ENDBRANCH  18  19
ENDBRANCH  11  12
ENDBRANCH  10  11
BRANCH   5  26
ATOM     26  O   UNL     1      -2.783   3.639  25.396  0.00  0.00    -0.437 OA
BRANCH  26  27
ATOM     27  C   UNL     1      -2.448   3.825  26.127  0.00  0.00    +0.425 C 
ATOM     28  O   UNL     1      -2.855   3.650  26.824  0.00  0.00    -0.224 OA
ATOM     29  N   UNL     1      -1.706   4.183  26.162  0.00  0.00    -0.142 NA
BRANCH  29  30
ATOM     30  C   UNL     1      -1.299   4.358  25.466  0.00  0.00    +0.078 A 
ATOM     31  C   UNL     1      -0.786   3.801  25.137  0.00  0.00    +0.029 A 
ATOM     32  C   UNL     1      -0.379   3.975  24.442  0.00  0.00    +0.069 A 
ATOM     33 CL   UNL     1       0.134   3.418  24.114  0.00  0.00    -0.081 Cl
ATOM     34  C   UNL     1      -0.485   4.706  24.074  0.00  0.00    +0.068 A 
ATOM     35 CL   UNL     1      -0.078   4.880  23.377  0.00  0.00    -0.081 Cl
ATOM     36  C   UNL     1      -0.998   5.262  24.402  0.00  0.00    +0.014 A 
ATOM     37  C   UNL     1      -1.404   5.088  25.097  0.00  0.00    +0.018 A 
ENDBRANCH  29  30
ENDBRANCH  26  27
ENDBRANCH   5  26
TORSDOF 7
ENDMDL
MODEL 5
REMARK VINA RESULT:      -9.6      2.306      4.012
REMARK  Name = 
REMARK  7 active torsions:
REMARK  status: ('A' for Active; 'I' for Inactive)
REMARK    1  A    between atoms: C_2  and  C_3
REMARK    2  A    between atoms: C_5  and  O_26
REMARK    3  A    between atoms: C_10  and  C_11
REMARK    4  A    between atoms: C_11  and  C_12
REMARK    5  A    between atoms: C_18  and  C_19
REMARK    6  A    between atoms: O_26  and  C_27
REMARK    7  A    between atoms: N_29  and  C_30
REMARK                            x       y       z     vdW  Elec       q    Type
REMARK                         _______ _______ _______ _____ _____    ______ ____
ROOT
ATOM      1  C   UNL     1       0.141   2.044  24.605  0.00  0.00    +0.006 C 
ATOM      2  C   UNL     1      -0.188   1.288  24.596  0.00  0.00    +0.068 C 
ATOM      5  C   UNL     1      -0.627   1.627  25.205  0.00  0.00    +0.173 C 
ATOM      6  C   UNL     1      -1.203   1.183  25.596  0.00  0.00    +0.044 C 
ATOM      7  C   UNL     1      -1.339   0.400  25.376  0.00  0.00    +0.004 C 
ATOM      8  C   UNL     1      -0.900   0.060  24.766  0.00  0.00    +0.003 C 
ATOM      9  C   UNL     1      -1.475  -0.383  25.156  0.00  0.00    +0.000 C 
ATOM     10  C   UNL     1      -1.036  -0.723  24.546  0.00  0.00    +0.040 C 
ATOM     21  C   UNL     1      -0.597  -1.063  23.936  0.00  0.00    +0.152 C 
ATOM     22  O   UNL     1      -0.732  -1.846  23.716  0.00  0.00    -0.223 OA
ATOM     23  C   UNL     1      -0.020  -0.618  23.546  0.00  0.00    +0.033 C 
ATOM     24  C   UNL     1       0.116   0.165  23.766  0.00  0.00    +0.003 C 
ATOM     25  C   UNL     1      -0.324   0.505  24.376  0.00  0.00    +0.006 C 
ENDROOT
BRANCH   2   3
ATOM      3  C   UNL     1       0.366   1.211  23.989  0.00  0.00    +0.185 C 
ATOM      4  O   UNL     1       0.875   1.836  23.814  0.00  0.00    -0.220 OA
ENDBRANCH   2   3
BRANCH  10  11
ATOM     11  C   UNL     1      -1.612  -1.167  24.936  0.00  0.00    +0.088 C 
BRANCH  11  12
ATOM     12  C   UNL     1      -2.298  -1.394  24.539  0.00  0.00    +0.226 C 
ATOM     13  O   UNL     1      -2.506  -1.023  23.830  0.00  0.00    -0.275 OA
ATOM     14  N   UNL     1      -2.776  -1.990  24.848  0.00  0.00    -0.279 N 
ATOM     15  C   UNL     1      -2.640  -2.407  25.546  0.00  0.00    +0.093 C 
ATOM     16  C   UNL     1      -3.255  -2.949  25.643  0.00  0.00    +0.023 C 
ATOM     17  C   UNL     1      -3.771  -2.866  25.004  0.00  0.00    +0.024 C 
ATOM     18  C   UNL     1      -3.475  -2.273  24.513  0.00  0.00    +0.108 C 
BRANCH  18  19
ATOM     19  C   UNL     1      -3.818  -2.010  23.811  0.00  0.00    +0.202 C 
ATOM     20  O   UNL     1      -4.526  -2.343  23.547  0.00  0.00    -0.219 OA
ENDBRANCH  18  19
ENDBRANCH  11  12
ENDBRANCH  10  11
BRANCH   5  26
ATOM     26  O   UNL     1      -0.491   2.411  25.426  0.00  0.00    -0.437 OA
BRANCH  26  27
ATOM     27  C   UNL     1      -0.454   2.615  26.224  0.00  0.00    +0.425 C 
ATOM     28  O   UNL     1      -0.042   2.134  26.754  0.00  0.00    -0.224 OA
ATOM     29  N   UNL     1      -0.828   3.299  26.493  0.00  0.00    -0.142 NA
BRANCH  29  30
ATOM     30  C   UNL     1      -1.239   3.780  25.964  0.00  0.00    +0.078 A 
ATOM     31  C   UNL     1      -2.059   3.717  25.901  0.00  0.00    +0.029 A 
ATOM     32  C   UNL     1      -2.471   4.197  25.372  0.00  0.00    +0.069 A 
ATOM     33 CL   UNL     1      -3.292   4.134  25.310  0.00  0.00    -0.081 Cl
ATOM     34  C   UNL     1      -2.063   4.740  24.905  0.00  0.00    +0.068 A 
ATOM     35 CL   UNL     1      -2.474   5.221  24.375  0.00  0.00    -0.081 Cl
ATOM     36  C   UNL     1      -1.243   4.803  24.967  0.00  0.00    +0.014 A 
ATOM     37  C   UNL     1      -0.831   4.323  25.496  0.00  0.00    +0.018 A 
ENDBRANCH  29  30
ENDBRANCH  26  27
ENDBRANCH   5  26
TORSDOF 7
ENDMDL
MODEL 6
REMARK VINA RESULT:      -9.4      2.403      4.759
REMARK  Name = 
REMARK  7 active torsions:
REMARK  status: ('A' for Active; 'I' for Inactive)
REMARK    1  A    between atoms: C_2  and  C_3
REMARK    2  A    between atoms: C_5  and  O_26
REMARK    3  A    between atoms: C_10  and  C_11
REMARK    4  A    between atoms: C_11  and  C_12
REMARK    5  A    between atoms: C_18  and  C_19
REMARK    6  A    between atoms: O_26  and  C_27
REMARK    7  A    between atoms: N_29  and  C_30
REMARK                            x       y       z     vdW  Elec       q    Type
REMARK                         _______ _______ _______ _____ _____    ______ ____
ROOT
ATOM      1  C   UNL     1      -0.780  -0.865  24.449  0.00  0.00    +0.006 C 
ATOM      2  C   UNL     1      -0.801  -0.049  24.567  0.00  0.00    +0.068 C 
ATOM      5  C   UNL     1      -1.416  -0.281  25.064  0.00  0.00    +0.173 C 
ATOM      6  C   UNL     1      -1.836   0.286  25.493  0.00  0.00    +0.044 C 
ATOM      7  C   UNL     1      -1.640   1.084  25.423  0.00  0.00    +0.004 C 
ATOM      8  C   UNL     1      -1.025   1.316  24.926  0.00  0.00    +0.003 C 
ATOM      9  C   UNL     1      -1.445   1.882  25.353  0.00  0.00    +0.000 C 
ATOM     10  C   UNL     1      -0.829   2.115  24.856  0.00  0.00    +0.040 C 
ATOM     21  C   UNL     1      -0.214   2.346  24.358  0.00  0.00    +0.152 C 
ATOM     22  O   UNL     1      -0.018   3.145  24.288  0.00  0.00    -0.223 OA
ATOM     23  C   UNL     1       0.207   1.779  23.930  0.00  0.00    +0.033 C 
ATOM     24  C   UNL     1       0.011   0.982  23.999  0.00  0.00    +0.003 C 
ATOM     25  C   UNL     1      -0.605   0.749  24.497  0.00  0.00    +0.006 C 
ENDROOT
BRANCH   2   3
ATOM      3  C   UNL     1      -0.178  -0.101  24.028  0.00  0.00    +0.185 C 
ATOM      4  O   UNL     1       0.042  -0.834  23.721  0.00  0.00    -0.220 OA
ENDBRANCH   2   3
BRANCH  10  11
ATOM     11  C   UNL     1      -1.249   2.681  25.284  0.00  0.00    +0.088 C 
BRANCH  11  12
ATOM     12  C   UNL     1      -1.803   3.160  24.904  0.00  0.00    +0.226 C 
ATOM     13  O   UNL     1      -1.921   3.086  24.090  0.00  0.00    -0.275 OA
ATOM     14  N   UNL     1      -2.238   3.710  25.335  0.00  0.00    -0.279 N 
ATOM     15  C   UNL     1      -2.181   3.845  26.147  0.00  0.00    +0.093 C 
ATOM     16  C   UNL     1      -2.716   4.442  26.345  0.00  0.00    +0.023 C 
ATOM     17  C   UNL     1      -3.103   4.676  25.655  0.00  0.00    +0.024 C 
ATOM     18  C   UNL     1      -2.808   4.224  25.031  0.00  0.00    +0.108 C 
BRANCH  18  19
ATOM     19  C   UNL     1      -3.042   4.276  24.242  0.00  0.00    +0.202 C 
ATOM     20  O   UNL     1      -3.797   4.553  24.053  0.00  0.00    -0.219 OA
ENDBRANCH  18  19
ENDBRANCH  11  12
ENDBRANCH  10  11
BRANCH   5  26
ATOM     26  O   UNL     1      -1.612  -1.079  25.134  0.00  0.00    -0.437 OA
BRANCH  26  27
ATOM     27  C   UNL     1      -1.823  -1.390  25.869  0.00  0.00    +0.425 C 
ATOM     28  O   UNL     1      -1.376  -1.208  26.538  0.00  0.00    -0.224 OA
ATOM     29  N   UNL     1      -2.481  -1.883  25.934  0.00  0.00    -0.142 NA
BRANCH  29  30
ATOM     30  C   UNL     1      -2.928  -2.066  25.265  0.00  0.00    +0.078 A 
ATOM     31  C   UNL     1      -3.582  -1.604  25.067  0.00  0.00    +0.029 A 
ATOM     32  C   UNL     1      -4.029  -1.787  24.399  0.00  0.00    +0.069 A 
ATOM     33 CL   UNL     1      -4.684  -1.325  24.201  0.00  0.00    -0.081 Cl
ATOM     34  C   UNL     1      -3.822  -2.431  23.928  0.00  0.00    +0.068 A 
ATOM     35 CL   UNL     1      -4.269  -2.614  23.259  0.00  0.00    -0.081 Cl
ATOM     36  C   UNL     1      -3.168  -2.893  24.126  0.00  0.00    +0.014 A 
ATOM     37  C   UNL     1      -2.721  -2.710  24.794  0.00  0.00    +0.018 A 
ENDBRANCH  29  30
ENDBRANCH  26  27
ENDBRANCH   5  26
TORSDOF 7
ENDMDL
MODEL 7
REMARK VINA RESULT:      -9.2      3.362      4.923
REMARK  Name = 
REMARK  7 active torsions:
REMARK  status: ('A' for Active; 'I' for Inactive)
REMARK    1  A    between atoms: C_2  and  C_3
REMARK    2  A    between atoms: C_5  and  O_26
REMARK    3  A    between atoms: C_10  and  C_11
REMARK    4  A    between atoms: C_11  and  C_12
REMARK    5  A    between atoms: C_18  and  C_19
REMARK    6  A    between atoms: O_26  and  C_27
REMARK    7  A    between atoms: N_29  and  C_30
REMARK                            x       y       z     vdW  Elec       q    Type
REMARK                         _______ _______ _______ _____ _____    ______ ____
ROOT
ATOM      1  C   UNL     1      -4.415  -0.126  24.988  0.00  0.00    +0.006 C 
ATOM      2  C   UNL     1      -4.048   0.590  24.809  0.00  0.00    +0.068 C 
ATOM      5  C   UNL     1      -3.393   0.151  25.050  0.00  0.00    +0.173 C 
ATOM      6  C   UNL     1      -2.642   0.495  25.050  0.00  0.00    +0.044 C 
ATOM      7  C   UNL     1      -2.548   1.277  24.808  0.00  0.00    +0.004 C 
ATOM      8  C   UNL     1      -3.202   1.716  24.566  0.00  0.00    +0.003 C 
ATOM      9  C   UNL     1      -2.453   2.060  24.566  0.00  0.00    +0.000 C 
ATOM     10  C   UNL     1      -3.108   2.500  24.324  0.00  0.00    +0.040 C 
ATOM     21  C   UNL     1      -3.762   2.939  24.082  0.00  0.00    +0.152 C 
ATOM     22  O   UNL     1      -3.668   3.722  23.840  0.00  0.00    -0.223 OA
ATOM     23  C   UNL     1      -4.513   2.595  24.082  0.00  0.00    +0.033 C 
ATOM     24  C   UNL     1      -4.608   1.812  24.325  0.00  0.00    +0.003 C 
ATOM     25  C   UNL     1      -3.953   1.372  24.567  0.00  0.00    +0.006 C 
ENDROOT
BRANCH   2   3
ATOM      3  C   UNL     1      -4.830   0.780  24.629  0.00  0.00    +0.185 C 
ATOM      4  O   UNL     1      -5.410   0.193  24.636  0.00  0.00    -0.220 OA
ENDBRANCH   2   3
BRANCH  10  11
ATOM     11  C   UNL     1      -2.358   2.843  24.323  0.00  0.00    +0.088 C 
BRANCH  11  12
ATOM     12  C   UNL     1      -2.238   3.574  24.687  0.00  0.00    +0.226 C 
ATOM     13  O   UNL     1      -2.857   3.938  25.095  0.00  0.00    -0.275 OA
ATOM     14  N   UNL     1      -1.501   3.940  24.644  0.00  0.00    -0.279 N 
ATOM     15  C   UNL     1      -0.835   3.645  24.259  0.00  0.00    +0.093 C 
ATOM     16  C   UNL     1      -0.222   4.190  24.355  0.00  0.00    +0.023 C 
ATOM     17  C   UNL     1      -0.510   4.821  24.801  0.00  0.00    +0.024 C 
ATOM     18  C   UNL     1      -1.301   4.668  24.979  0.00  0.00    +0.108 C 
BRANCH  18  19
ATOM     19  C   UNL     1      -1.803   5.155  25.416  0.00  0.00    +0.202 C 
ATOM     20  O   UNL     1      -1.685   5.972  25.420  0.00  0.00    -0.219 OA
ENDBRANCH  18  19
ENDBRANCH  11  12
ENDBRANCH  10  11
BRANCH   5  26
ATOM     26  O   UNL     1      -3.488  -0.632  25.293  0.00  0.00    -0.437 OA
BRANCH  26  27
ATOM     27  C   UNL     1      -3.134  -0.895  25.991  0.00  0.00    +0.425 C 
ATOM     28  O   UNL     1      -3.097  -0.395  26.647  0.00  0.00    -0.224 OA
ATOM     29  N   UNL     1      -2.819  -1.655  26.033  0.00  0.00    -0.142 NA
BRANCH  29  30
ATOM     30  C   UNL     1      -2.857  -2.154  25.377  0.00  0.00    +0.078 A 
ATOM     31  C   UNL     1      -2.197  -2.249  24.892  0.00  0.00    +0.029 A 
ATOM     32  C   UNL     1      -2.234  -2.748  24.237  0.00  0.00    +0.069 A 
ATOM     33 CL   UNL     1      -1.573  -2.842  23.752  0.00  0.00    -0.081 Cl
ATOM     34  C   UNL     1      -2.932  -3.153  24.066  0.00  0.00    +0.068 A 
ATOM     35 CL   UNL     1      -2.970  -3.652  23.410  0.00  0.00    -0.081 Cl
ATOM     36  C   UNL     1      -3.592  -3.058  24.551  0.00  0.00    +0.014 A 
ATOM     37  C   UNL     1      -3.555  -2.560  25.206  0.00  0.00    +0.018 A 
ENDBRANCH  29  30
ENDBRANCH  26  27
ENDBRANCH   5  26
TORSDOF 7
ENDMDL
MODEL 8
REMARK VINA RESULT:      -9.0      2.519      6.067
REMARK  Name = 
REMARK  7 active torsions:
REMARK  status: ('A' for Active; 'I' for Inactive)
REMARK    1  A    between atoms: C_2  and  C_3
REMARK    2  A    between atoms: C_5  and  O_26
REMARK    3  A    between atoms: C_10  and  C_11
REMARK    4  A    between atoms: C_11  and  C_12
REMARK    5  A    between atoms: C_18  and  C_19
REMARK    6  A    between atoms: O_26  and  C_27
REMARK    7  A    between atoms: N_29  and  C_30
REMARK                            x       y       z     vdW  Elec       q    Type
REMARK                         _______ _______ _______ _____ _____    ______ ____
ROOT
ATOM      1  C   UNL     1      -0.092   1.865  24.384  0.00  0.00    +0.006 C 
ATOM      2  C   UNL     1      -0.879   2.108  24.422  0.00  0.00    +0.068 C 
ATOM      5  C   UNL     1      -0.985   1.299  24.302  0.00  0.00    +0.173 C 
ATOM      6  C   UNL     1      -1.747   0.985  24.258  0.00  0.00    +0.044 C 
ATOM      7  C   UNL     1      -2.402   1.479  24.333  0.00  0.00    +0.004 C 
ATOM      8  C   UNL     1      -2.297   2.288  24.453  0.00  0.00    +0.003 C 
ATOM      9  C   UNL     1      -3.057   1.974  24.408  0.00  0.00    +0.000 C 
ATOM     10  C   UNL     1      -2.952   2.783  24.528  0.00  0.00    +0.040 C 
ATOM     21  C   UNL     1      -2.847   3.592  24.648  0.00  0.00    +0.152 C 
ATOM     22  O   UNL     1      -3.503   4.088  24.723  0.00  0.00    -0.223 OA
ATOM     23  C   UNL     1      -2.085   3.907  24.693  0.00  0.00    +0.033 C 
ATOM     24  C   UNL     1      -1.430   3.412  24.617  0.00  0.00    +0.003 C 
ATOM     25  C   UNL     1      -1.535   2.603  24.497  0.00  0.00    +0.006 C 
ENDROOT
BRANCH   2   3
ATOM      3  C   UNL     1      -0.500   2.833  24.529  0.00  0.00    +0.185 C 
ATOM      4  O   UNL     1       0.320   2.885  24.454  0.00  0.00    -0.220 OA
ENDBRANCH   2   3
BRANCH  10  11
ATOM     11  C   UNL     1      -3.714   2.469  24.484  0.00  0.00    +0.088 C 
BRANCH  11  12
ATOM     12  C   UNL     1      -4.243   2.577  25.107  0.00  0.00    +0.226 C 
ATOM     13  O   UNL     1      -3.998   2.969  25.792  0.00  0.00    -0.275 OA
ATOM     14  N   UNL     1      -5.015   2.296  25.047  0.00  0.00    -0.279 N 
ATOM     15  C   UNL     1      -5.336   1.896  24.401  0.00  0.00    +0.093 C 
ATOM     16  C   UNL     1      -6.123   1.717  24.577  0.00  0.00    +0.023 C 
ATOM     17  C   UNL     1      -6.287   2.006  25.333  0.00  0.00    +0.024 C 
ATOM     18  C   UNL     1      -5.602   2.363  25.623  0.00  0.00    +0.108 C 
BRANCH  18  19
ATOM     19  C   UNL     1      -5.519   2.725  26.360  0.00  0.00    +0.202 C 
ATOM     20  O   UNL     1      -6.135   2.688  26.909  0.00  0.00    -0.219 OA
ENDBRANCH  18  19
ENDBRANCH  11  12
ENDBRANCH  10  11
BRANCH   5  26
ATOM     26  O   UNL     1      -0.329   0.804  24.227  0.00  0.00    -0.437 OA
BRANCH  26  27
ATOM     27  C   UNL     1      -0.324   0.065  24.594  0.00  0.00    +0.425 C 
ATOM     28  O   UNL     1      -0.756  -0.053  25.289  0.00  0.00    -0.224 OA
ATOM     29  N   UNL     1       0.111  -0.555  24.269  0.00  0.00    -0.142 NA
BRANCH  29  30
ATOM     30  C   UNL     1       0.541  -0.437  23.575  0.00  0.00    +0.078 A 
ATOM     31  C   UNL     1       1.337  -0.223  23.615  0.00  0.00    +0.029 A 
ATOM     32  C   UNL     1       1.768  -0.106  22.922  0.00  0.00    +0.069 A 
ATOM     33 CL   UNL     1       2.564   0.108  22.962  0.00  0.00    -0.081 Cl
ATOM     34  C   UNL     1       1.403  -0.201  22.188  0.00  0.00    +0.068 A 
ATOM     35 CL   UNL     1       1.834  -0.084  21.495  0.00  0.00    -0.081 Cl
ATOM     36  C   UNL     1       0.608  -0.415  22.149  0.00  0.00    +0.014 A 
ATOM     37  C   UNL     1       0.177  -0.533  22.842  0.00  0.00    +0.018 A 
ENDBRANCH  29  30
ENDBRANCH  26  27
ENDBRANCH   5  26
TORSDOF 7
ENDMDL
MODEL 9
REMARK VINA RESULT:      -8.3      2.476      5.853
REMARK  Name = 
REMARK  7 active torsions:
REMARK  status: ('A' for Active; 'I' for Inactive)
REMARK    1  A    between atoms: C_2  and  C_3
REMARK    2  A    between atoms: C_5  and  O_26
REMARK    3  A    between atoms: C_10  and  C_11
REMARK    4  A    between atoms: C_11  and  C_12
REMARK    5  A    between atoms: C_18  and  C_19
REMARK    6  A    between atoms: O_26  and  C_27
REMARK    7  A    between atoms: N_29  and  C_30
REMARK                            x       y       z     vdW  Elec       q    Type
REMARK                         _______ _______ _______ _____ _____    ______ ____
ROOT
ATOM      1  C   UNL     1      -1.024   0.626  24.003  0.00  0.00    +0.006 C 
ATOM      2  C   UNL     1      -1.741   1.033  23.984  0.00  0.00    +0.068 C 
ATOM      5  C   UNL     1      -1.910   0.473  24.565  0.00  0.00    +0.173 C 
ATOM      6  C   UNL     1      -2.652   0.465  24.928  0.00  0.00    +0.044 C 
ATOM      7  C   UNL     1      -3.223   1.018  24.710  0.00  0.00    +0.004 C 
ATOM      8  C   UNL     1      -3.055   1.578  24.129  0.00  0.00    +0.003 C 
ATOM      9  C   UNL     1      -3.795   1.570  24.491  0.00  0.00    +0.000 C 
ATOM     10  C   UNL     1      -3.626   2.131  23.910  0.00  0.00    +0.040 C 
ATOM     21  C   UNL     1      -3.458   2.691  23.329  0.00  0.00    +0.152 C 
ATOM     22  O   UNL     1      -4.030   3.244  23.110  0.00  0.00    -0.223 OA
ATOM     23  C   UNL     1      -2.716   2.699  22.966  0.00  0.00    +0.033 C 
ATOM     24  C   UNL     1      -2.145   2.147  23.184  0.00  0.00    +0.003 C 
ATOM     25  C   UNL     1      -2.313   1.586  23.766  0.00  0.00    +0.006 C 
ENDROOT
BRANCH   2   3
ATOM      3  C   UNL     1      -1.323   1.452  23.410  0.00  0.00    +0.185 C 
ATOM      4  O   UNL     1      -0.571   1.201  23.181  0.00  0.00    -0.220 OA
ENDBRANCH   2   3
BRANCH  10  11
ATOM     11  C   UNL     1      -4.367   2.123  24.273  0.00  0.00    +0.088 C 
BRANCH  11  12
ATOM     12  C   UNL     1      -4.632   2.787  24.685  0.00  0.00    +0.226 C 
ATOM     13  O   UNL     1      -4.188   3.482  24.676  0.00  0.00    -0.275 OA
ATOM     14  N   UNL     1      -5.340   2.755  25.106  0.00  0.00    -0.279 N 
ATOM     15  C   UNL     1      -5.840   2.102  25.166  0.00  0.00    +0.093 C 
ATOM     16  C   UNL     1      -6.482   2.315  25.639  0.00  0.00    +0.023 C 
ATOM     17  C   UNL     1      -6.378   3.100  25.872  0.00  0.00    +0.024 C 
ATOM     18  C   UNL     1      -5.672   3.372  25.543  0.00  0.00    +0.108 C 
BRANCH  18  19
ATOM     19  C   UNL     1      -5.355   4.128  25.633  0.00  0.00    +0.202 C 
ATOM     20  O   UNL     1      -5.846   4.760  25.837  0.00  0.00    -0.219 OA
ENDBRANCH  18  19
ENDBRANCH  11  12
ENDBRANCH  10  11
BRANCH   5  26
ATOM     26  O   UNL     1      -1.338  -0.080  24.784  0.00  0.00    -0.437 OA
BRANCH  26  27
ATOM     27  C   UNL     1      -1.218  -0.258  25.581  0.00  0.00    +0.425 C 
ATOM     28  O   UNL     1      -1.063   0.348  26.120  0.00  0.00    -0.224 OA
ATOM     29  N   UNL     1      -1.253  -1.040  25.839  0.00  0.00    -0.142 NA
BRANCH  29  30
ATOM     30  C   UNL     1      -1.408  -1.646  25.300  0.00  0.00    +0.078 A 
ATOM     31  C   UNL     1      -2.166  -1.966  25.246  0.00  0.00    +0.029 A 
ATOM     32  C   UNL     1      -2.321  -2.571  24.708  0.00  0.00    +0.069 A 
ATOM     33 CL   UNL     1      -3.080  -2.891  24.653  0.00  0.00    -0.081 Cl
ATOM     34  C   UNL     1      -1.717  -2.857  24.224  0.00  0.00    +0.068 A 
ATOM     35 CL   UNL     1      -1.872  -3.463  23.685  0.00  0.00    -0.081 Cl
ATOM     36  C   UNL     1      -0.959  -2.537  24.278  0.00  0.00    +0.014 A 
ATOM     37  C   UNL     1      -0.805  -1.932  24.816  0.00  0.00    +0.018 A 
ENDBRANCH  29  30
ENDBRANCH  26  27
ENDBRANCH   5  26
TORSDOF 7
ENDMDL
