MODEL 1
REMARK VINA RESULT:     -11.5      0.000      0.000
REMARK  Name = 
REMARK  5 active torsions:
REMARK  status: ('A' for Active; 'I' for Inactive)
REMARK    1  A    between atoms: C_4  and  C_14
REMARK    2  A    between atoms: N_5  and  C_6
REMARK    3  A    between atoms: C_6  and  C_7
REMARK    4  A    between atoms: C_16  and  C_17
REMARK    5  A    between atoms: C_17  and  C_18
REMARK                            x       y       z     vdW  Elec       q    Type
REMARK                         _______ _______ _______ _____ _____    ______ ____
ROOT
ATOM      1  O   UNL     1      -6.786   1.615  25.348  0.00  0.00    -0.222 OA
ATOM      2  C   UNL     1      -5.988   1.757  25.194  0.00  0.00    +0.170 C 
ATOM      3  C   UNL     1      -5.618   2.495  25.194  0.00  0.00    +0.060 C 
ATOM      4  C   UNL     1      -4.821   2.380  25.012  0.00  0.00    +0.140 C 
ATOM      5  N   UNL     1      -4.699   1.572  24.901  0.00  0.00    -0.260 NA
ATOM     13  C   UNL     1      -5.420   1.187  25.013  0.00  0.00    +0.106 C 
ENDROOT
BRANCH   4  14
ATOM     14  C   UNL     1      -4.248   2.970  24.953  0.00  0.00    +0.251 A 
ATOM     15  N   UNL     1      -3.778   3.254  25.570  0.00  0.00    -0.193 NA
ATOM     16  C   UNL     1      -3.284   3.839  25.263  0.00  0.00    +0.185 A 
ATOM     24  N   UNL     1      -3.447   3.917  24.459  0.00  0.00    -0.060 NA
ATOM     25  O   UNL     1      -4.043   3.380  24.267  0.00  0.00    -0.336 OA
BRANCH  16  17
ATOM     17  C   UNL     1      -2.724   4.271  25.689  0.00  0.00    +0.095 C 
BRANCH  17  18
ATOM     18  C   UNL     1      -1.926   4.231  25.480  0.00  0.00    -0.014 A 
ATOM     19  C   UNL     1      -1.483   3.564  25.673  0.00  0.00    -0.004 A 
ATOM     20  C   UNL     1      -0.685   3.524  25.465  0.00  0.00    -0.000 A 
ATOM     21  C   UNL     1      -0.333   4.152  25.063  0.00  0.00    -0.000 A 
ATOM     22  C   UNL     1      -0.777   4.820  24.870  0.00  0.00    -0.000 A 
ATOM     23  C   UNL     1      -1.573   4.859  25.078  0.00  0.00    -0.004 A 
ENDBRANCH  17  18
ENDBRANCH  16  17
ENDBRANCH   4  14
BRANCH   5   6
ATOM      6  C   UNL     1      -3.982   1.211  24.710  0.00  0.00    +0.101 C 
BRANCH   6   7
ATOM      7  C   UNL     1      -3.923   0.388  24.703  0.00  0.00    +0.013 A 
ATOM      8  C   UNL     1      -4.021  -0.026  23.997  0.00  0.00    +0.000 A 
ATOM      9  C   UNL     1      -3.962  -0.849  23.989  0.00  0.00    +0.020 A 
ATOM     10  C   UNL     1      -3.803  -1.258  24.689  0.00  0.00    +0.099 A 
ATOM     11  N   UNL     1      -3.705  -0.843  25.395  0.00  0.00    -0.243 NA
ATOM     12  C   UNL     1      -3.764  -0.020  25.402  0.00  0.00    +0.096 A 
ENDBRANCH   6   7
ENDBRANCH   5   6
TORSDOF 5
ENDMDL
MODEL 2
REMARK VINA RESULT:     -11.5      1.696      4.662
REMARK  Name = 
REMARK  5 active torsions:
REMARK  status: ('A' for Active; 'I' for Inactive)
REMARK    1  A    between atoms: C_4  and  C_14
REMARK    2  A    between atoms: N_5  and  C_6
REMARK    3  A    between atoms: C_6  and  C_7
REMARK    4  A    between atoms: C_16  and  C_17
REMARK    5  A    between atoms: C_17  and  C_18
REMARK                            x       y       z     vdW  Elec       q    Type
REMARK                         _______ _______ _______ _____ _____    ______ ____
ROOT
ATOM      1  O   UNL     1      -3.534   4.166  24.614  0.00  0.00    -0.222 OA
ATOM      2  C   UNL     1      -3.276   3.386  24.545  0.00  0.00    +0.170 C 
ATOM      3  C   UNL     1      -3.736   2.741  24.312  0.00  0.00    +0.060 C 
ATOM      4  C   UNL     1      -3.256   2.070  24.319  0.00  0.00    +0.140 C 
ATOM      5  N   UNL     1      -2.500   2.299  24.556  0.00  0.00    -0.260 NA
ATOM     13  C   UNL     1      -2.512   3.112  24.695  0.00  0.00    +0.106 C 
ENDROOT
BRANCH   4  14
ATOM     14  C   UNL     1      -3.492   1.304  24.123  0.00  0.00    +0.251 A 
ATOM     15  N   UNL     1      -3.940   0.798  24.596  0.00  0.00    -0.193 NA
ATOM     16  C   UNL     1      -4.045   0.091  24.184  0.00  0.00    +0.185 A 
ATOM     24  N   UNL     1      -3.662   0.159  23.457  0.00  0.00    -0.060 NA
ATOM     25  O   UNL     1      -3.320   0.909  23.419  0.00  0.00    -0.336 OA
BRANCH  16  17
ATOM     17  C   UNL     1      -4.461  -0.569  24.453  0.00  0.00    +0.095 C 
BRANCH  17  18
ATOM     18  C   UNL     1      -4.066  -1.282  24.580  0.00  0.00    -0.014 A 
ATOM     19  C   UNL     1      -4.100  -1.879  24.012  0.00  0.00    -0.004 A 
ATOM     20  C   UNL     1      -3.705  -2.592  24.139  0.00  0.00    -0.000 A 
ATOM     21  C   UNL     1      -3.276  -2.707  24.834  0.00  0.00    -0.000 A 
ATOM     22  C   UNL     1      -3.242  -2.110  25.402  0.00  0.00    -0.000 A 
ATOM     23  C   UNL     1      -3.637  -1.398  25.275  0.00  0.00    -0.004 A 
ENDBRANCH  17  18
ENDBRANCH  16  17
ENDBRANCH   4  14
BRANCH   5   6
ATOM      6  C   UNL     1      -1.846   1.803  24.639  0.00  0.00    +0.101 C 
BRANCH   6   7
ATOM      7  C   UNL     1      -1.160   2.081  25.003  0.00  0.00    +0.013 A 
ATOM      8  C   UNL     1      -1.070   2.015  25.820  0.00  0.00    +0.000 A 
ATOM      9  C   UNL     1      -0.384   2.294  26.183  0.00  0.00    +0.020 A 
ATOM     10  C   UNL     1       0.213   2.638  25.730  0.00  0.00    +0.099 A 
ATOM     11  N   UNL     1       0.123   2.704  24.912  0.00  0.00    -0.243 NA
ATOM     12  C   UNL     1      -0.564   2.426  24.548  0.00  0.00    +0.096 A 
ENDBRANCH   6   7
ENDBRANCH   5   6
TORSDOF 5
ENDMDL
MODEL 3
REMARK VINA RESULT:     -11.3      1.968      5.101
REMARK  Name = 
REMARK  5 active torsions:
REMARK  status: ('A' for Active; 'I' for Inactive)
REMARK    1  A    between atoms: C_4  and  C_14
REMARK    2  A    between atoms: N_5  and  C_6
REMARK    3  A    between atoms: C_6  and  C_7
REMARK    4  A    between atoms: C_16  and  C_17
REMARK    5  A    between atoms: C_17  and  C_18
REMARK                            x       y       z     vdW  Elec       q    Type
REMARK                         _______ _______ _______ _____ _____    ______ ____
ROOT
ATOM      1  O   UNL     1      -2.660   2.538  21.962  0.00  0.00    -0.222 OA
ATOM      2  C   UNL     1      -2.573   2.281  22.741  0.00  0.00    +0.170 C 
ATOM      3  C   UNL     1      -2.696   1.511  23.015  0.00  0.00    +0.060 C 
ATOM      4  C   UNL     1      -2.547   1.503  23.827  0.00  0.00    +0.140 C 
ATOM      5  N   UNL     1      -2.332   2.266  24.055  0.00  0.00    -0.260 NA
ATOM     13  C   UNL     1      -2.349   2.747  23.384  0.00  0.00    +0.106 C 
ENDROOT
BRANCH   4  14
ATOM     14  C   UNL     1      -2.602   0.846  24.322  0.00  0.00    +0.251 A 
ATOM     15  N   UNL     1      -3.287   0.413  24.479  0.00  0.00    -0.193 NA
ATOM     16  C   UNL     1      -3.090  -0.193  25.003  0.00  0.00    +0.185 A 
ATOM     24  N   UNL     1      -2.284  -0.136  25.169  0.00  0.00    -0.060 NA
ATOM     25  O   UNL     1      -1.983   0.506  24.749  0.00  0.00    -0.336 OA
BRANCH  16  17
ATOM     17  C   UNL     1      -3.609  -0.759  25.306  0.00  0.00    +0.095 C 
BRANCH  17  18
ATOM     18  C   UNL     1      -3.693  -1.487  24.929  0.00  0.00    -0.014 A 
ATOM     19  C   UNL     1      -4.182  -1.555  24.269  0.00  0.00    -0.004 A 
ATOM     20  C   UNL     1      -4.266  -2.284  23.891  0.00  0.00    -0.000 A 
ATOM     21  C   UNL     1      -3.860  -2.944  24.174  0.00  0.00    -0.000 A 
ATOM     22  C   UNL     1      -3.370  -2.875  24.835  0.00  0.00    -0.000 A 
ATOM     23  C   UNL     1      -3.287  -2.147  25.211  0.00  0.00    -0.004 A 
ENDBRANCH  17  18
ENDBRANCH  16  17
ENDBRANCH   4  14
BRANCH   5   6
ATOM      6  C   UNL     1      -2.136   2.507  24.818  0.00  0.00    +0.101 C 
BRANCH   6   7
ATOM      7  C   UNL     1      -1.942   3.295  24.966  0.00  0.00    +0.013 A 
ATOM      8  C   UNL     1      -1.159   3.547  24.900  0.00  0.00    +0.000 A 
ATOM      9  C   UNL     1      -0.965   4.335  25.047  0.00  0.00    +0.020 A 
ATOM     10  C   UNL     1      -1.554   4.872  25.261  0.00  0.00    +0.099 A 
ATOM     11  N   UNL     1      -2.337   4.620  25.328  0.00  0.00    -0.243 NA
ATOM     12  C   UNL     1      -2.531   3.831  25.180  0.00  0.00    +0.096 A 
ENDBRANCH   6   7
ENDBRANCH   5   6
TORSDOF 5
ENDMDL
MODEL 4
REMARK VINA RESULT:     -11.1      2.109      3.861
REMARK  Name = 
REMARK  5 active torsions:
REMARK  status: ('A' for Active; 'I' for Inactive)
REMARK    1  A    between atoms: C_4  and  C_14
REMARK    2  A    between atoms: N_5  and  C_6
REMARK    3  A    between atoms: C_6  and  C_7
REMARK    4  A    between atoms: C_16  and  C_17
REMARK    5  A    between atoms: C_17  and  C_18
REMARK                            x       y       z     vdW  Elec       q    Type
REMARK                         _______ _______ _______ _____ _____    ______ ____
ROOT
ATOM      1  O   UNL     1       0.447   2.594  26.385  0.00  0.00    -0.222 OA
ATOM      2  C   UNL     1      -0.223   2.388  25.951  0.00  0.00    +0.170 C 
ATOM      3  C   UNL     1      -0.805   2.908  25.680  0.00  0.00    +0.060 C 
ATOM      4  C   UNL     1      -1.371   2.467  25.273  0.00  0.00    +0.140 C 
ATOM      5  N   UNL     1      -1.140   1.675  25.293  0.00  0.00    -0.260 NA
ATOM     13  C   UNL     1      -0.431   1.627  25.712  0.00  0.00    +0.106 C 
ENDROOT
BRANCH   4  14
ATOM     14  C   UNL     1      -2.049   2.765  24.911  0.00  0.00    +0.251 A 
ATOM     15  N   UNL     1      -2.741   2.999  25.294  0.00  0.00    -0.193 NA
ATOM     16  C   UNL     1      -3.274   3.261  24.720  0.00  0.00    +0.185 A 
ATOM     24  N   UNL     1      -2.911   3.188  23.983  0.00  0.00    -0.060 NA
ATOM     25  O   UNL     1      -2.155   2.882  24.101  0.00  0.00    -0.336 OA
BRANCH  16  17
ATOM     17  C   UNL     1      -4.036   3.545  24.860  0.00  0.00    +0.095 C 
BRANCH  17  18
ATOM     18  C   UNL     1      -4.644   3.020  25.050  0.00  0.00    -0.014 A 
ATOM     19  C   UNL     1      -4.914   2.482  24.488  0.00  0.00    -0.004 A 
ATOM     20  C   UNL     1      -5.522   1.957  24.678  0.00  0.00    -0.000 A 
ATOM     21  C   UNL     1      -5.859   1.972  25.431  0.00  0.00    -0.000 A 
ATOM     22  C   UNL     1      -5.588   2.512  25.994  0.00  0.00    -0.000 A 
ATOM     23  C   UNL     1      -4.981   3.035  25.803  0.00  0.00    -0.004 A 
ENDBRANCH  17  18
ENDBRANCH  16  17
ENDBRANCH   4  14
BRANCH   5   6
ATOM      6  C   UNL     1      -1.547   1.042  24.954  0.00  0.00    +0.101 C 
BRANCH   6   7
ATOM      7  C   UNL     1      -1.246   0.276  25.016  0.00  0.00    +0.013 A 
ATOM      8  C   UNL     1      -1.493  -0.216  25.630  0.00  0.00    +0.000 A 
ATOM      9  C   UNL     1      -1.193  -0.981  25.692  0.00  0.00    +0.020 A 
ATOM     10  C   UNL     1      -0.643  -1.255  25.140  0.00  0.00    +0.099 A 
ATOM     11  N   UNL     1      -0.395  -0.762  24.527  0.00  0.00    -0.243 NA
ATOM     12  C   UNL     1      -0.696   0.004  24.464  0.00  0.00    +0.096 A 
ENDBRANCH   6   7
ENDBRANCH   5   6
TORSDOF 5
ENDMDL
MODEL 5
REMARK VINA RESULT:     -11.0      1.884      3.163
REMARK  Name = 
REMARK  5 active torsions:
REMARK  status: ('A' for Active; 'I' for Inactive)
REMARK    1  A    between atoms: C_4  and  C_14
REMARK    2  A    between atoms: N_5  and  C_6
REMARK    3  A    between atoms: C_6  and  C_7
REMARK    4  A    between atoms: C_16  and  C_17
REMARK    5  A    between atoms: C_17  and  C_18
REMARK                            x       y       z     vdW  Elec       q    Type
REMARK                         _______ _______ _______ _____ _____    ______ ____
ROOT
ATOM      1  O   UNL     1      -4.096  -2.482  23.722  0.00  0.00    -0.222 OA
ATOM      2  C   UNL     1      -3.932  -1.765  24.094  0.00  0.00    +0.170 C 
ATOM      3  C   UNL     1      -4.458  -1.135  24.190  0.00  0.00    +0.060 C 
ATOM      4  C   UNL     1      -4.063  -0.532  24.592  0.00  0.00    +0.140 C 
ATOM      5  N   UNL     1      -3.294  -0.788  24.745  0.00  0.00    -0.260 NA
ATOM     13  C   UNL     1      -3.213  -1.550  24.437  0.00  0.00    +0.106 C 
ENDROOT
BRANCH   4  14
ATOM     14  C   UNL     1      -4.382   0.198  24.804  0.00  0.00    +0.251 A 
ATOM     15  N   UNL     1      -4.367   0.885  24.347  0.00  0.00    -0.193 NA
ATOM     16  C   UNL     1      -4.748   1.481  24.772  0.00  0.00    +0.185 A 
ATOM     24  N   UNL     1      -4.998   1.163  25.490  0.00  0.00    -0.060 NA
ATOM     25  O   UNL     1      -4.772   0.371  25.511  0.00  0.00    -0.336 OA
BRANCH  16  17
ATOM     17  C   UNL     1      -4.859   2.259  24.520  0.00  0.00    +0.095 C 
BRANCH  17  18
ATOM     18  C   UNL     1      -4.314   2.842  24.728  0.00  0.00    -0.014 A 
ATOM     19  C   UNL     1      -4.371   3.218  25.460  0.00  0.00    -0.004 A 
ATOM     20  C   UNL     1      -3.825   3.801  25.668  0.00  0.00    -0.000 A 
ATOM     21  C   UNL     1      -3.223   4.007  25.143  0.00  0.00    -0.000 A 
ATOM     22  C   UNL     1      -3.166   3.631  24.411  0.00  0.00    -0.000 A 
ATOM     23  C   UNL     1      -3.711   3.049  24.204  0.00  0.00    -0.004 A 
ENDBRANCH  17  18
ENDBRANCH  16  17
ENDBRANCH   4  14
BRANCH   5   6
ATOM      6  C   UNL     1      -2.708  -0.359  25.136  0.00  0.00    +0.101 C 
BRANCH   6   7
ATOM      7  C   UNL     1      -1.914  -0.568  25.048  0.00  0.00    +0.013 A 
ATOM      8  C   UNL     1      -1.458  -0.218  24.458  0.00  0.00    +0.000 A 
ATOM      9  C   UNL     1      -0.665  -0.427  24.371  0.00  0.00    +0.020 A 
ATOM     10  C   UNL     1      -0.328  -0.987  24.875  0.00  0.00    +0.099 A 
ATOM     11  N   UNL     1      -0.784  -1.337  25.465  0.00  0.00    -0.243 NA
ATOM     12  C   UNL     1      -1.578  -1.128  25.553  0.00  0.00    +0.096 A 
ENDBRANCH   6   7
ENDBRANCH   5   6
TORSDOF 5
ENDMDL
MODEL 6
REMARK VINA RESULT:     -11.0      2.092      3.598
REMARK  Name = 
REMARK  5 active torsions:
REMARK  status: ('A' for Active; 'I' for Inactive)
REMARK    1  A    between atoms: C_4  and  C_14
REMARK    2  A    between atoms: N_5  and  C_6
REMARK    3  A    between atoms: C_6  and  C_7
REMARK    4  A    between atoms: C_16  and  C_17
REMARK    5  A    between atoms: C_17  and  C_18
REMARK                            x       y       z     vdW  Elec       q    Type
REMARK                         _______ _______ _______ _____ _____    ______ ____
ROOT
ATOM      1  O   UNL     1      -0.040  -0.723  23.920  0.00  0.00    -0.222 OA
ATOM      2  C   UNL     1      -0.735  -0.391  24.215  0.00  0.00    +0.170 C 
ATOM      3  C   UNL     1      -0.898   0.415  24.281  0.00  0.00    +0.060 C 
ATOM      4  C   UNL     1      -1.653   0.497  24.603  0.00  0.00    +0.140 C 
ATOM      5  N   UNL     1      -1.957  -0.258  24.736  0.00  0.00    -0.260 NA
ATOM     13  C   UNL     1      -1.389  -0.807  24.496  0.00  0.00    +0.106 C 
ENDROOT
BRANCH   4  14
ATOM     14  C   UNL     1      -2.037   1.210  24.763  0.00  0.00    +0.251 A 
ATOM     15  N   UNL     1      -2.632   1.553  24.308  0.00  0.00    -0.193 NA
ATOM     16  C   UNL     1      -2.855   2.260  24.671  0.00  0.00    +0.185 A 
ATOM     24  N   UNL     1      -2.398   2.353  25.351  0.00  0.00    -0.060 NA
ATOM     25  O   UNL     1      -1.892   1.704  25.408  0.00  0.00    -0.336 OA
BRANCH  16  17
ATOM     17  C   UNL     1      -3.434   2.782  24.401  0.00  0.00    +0.095 C 
BRANCH  17  18
ATOM     18  C   UNL     1      -4.190   2.768  24.734  0.00  0.00    -0.014 A 
ATOM     19  C   UNL     1      -4.761   2.255  24.436  0.00  0.00    -0.004 A 
ATOM     20  C   UNL     1      -5.517   2.241  24.768  0.00  0.00    -0.000 A 
ATOM     21  C   UNL     1      -5.699   2.742  25.398  0.00  0.00    -0.000 A 
ATOM     22  C   UNL     1      -5.125   3.256  25.696  0.00  0.00    -0.000 A 
ATOM     23  C   UNL     1      -4.372   3.269  25.364  0.00  0.00    -0.004 A 
ENDBRANCH  17  18
ENDBRANCH  16  17
ENDBRANCH   4  14
BRANCH   5   6
ATOM      6  C   UNL     1      -2.698  -0.434  25.053  0.00  0.00    +0.101 C 
BRANCH   6   7
ATOM      7  C   UNL     1      -3.045  -1.168  24.908  0.00  0.00    +0.013 A 
ATOM      8  C   UNL     1      -3.544  -1.268  24.259  0.00  0.00    +0.000 A 
ATOM      9  C   UNL     1      -3.891  -2.002  24.115  0.00  0.00    +0.020 A 
ATOM     10  C   UNL     1      -3.740  -2.637  24.620  0.00  0.00    +0.099 A 
ATOM     11  N   UNL     1      -3.241  -2.537  25.269  0.00  0.00    -0.243 NA
ATOM     12  C   UNL     1      -2.893  -1.803  25.414  0.00  0.00    +0.096 A 
ENDBRANCH   6   7
ENDBRANCH   5   6
TORSDOF 5
ENDMDL
MODEL 7
REMARK VINA RESULT:     -10.9      2.152      4.932
REMARK  Name = 
REMARK  5 active torsions:
REMARK  status: ('A' for Active; 'I' for Inactive)
REMARK    1  A    between atoms: C_4  and  C_14
REMARK    2  A    between atoms: N_5  and  C_6
REMARK    3  A    between atoms: C_6  and  C_7
REMARK    4  A    between atoms: C_16  and  C_17
REMARK    5  A    between atoms: C_17  and  C_18
REMARK                            x       y       z     vdW  Elec       q    Type
REMARK                         _______ _______ _______ _____ _____    ______ ____
ROOT
ATOM      1  O   UNL     1      -0.537   3.450  25.767  0.00  0.00    -0.222 OA
ATOM      2  C   UNL     1      -0.916   2.797  25.435  0.00  0.00    +0.170 C 
ATOM      3  C   UNL     1      -0.634   2.021  25.435  0.00  0.00    +0.060 C 
ATOM      4  C   UNL     1      -1.187   1.549  25.045  0.00  0.00    +0.140 C 
ATOM      5  N   UNL     1      -1.811   2.033  24.805  0.00  0.00    -0.260 NA
ATOM     13  C   UNL     1      -1.643   2.804  25.046  0.00  0.00    +0.106 C 
ENDROOT
BRANCH   4  14
ATOM     14  C   UNL     1      -1.127   0.736  24.917  0.00  0.00    +0.251 A 
ATOM     15  N   UNL     1      -1.419   0.145  25.413  0.00  0.00    -0.193 NA
ATOM     16  C   UNL     1      -1.236  -0.584  25.073  0.00  0.00    +0.185 A 
ATOM     24  N   UNL     1      -0.832  -0.444  24.368  0.00  0.00    -0.060 NA
ATOM     25  O   UNL     1      -0.764   0.372  24.272  0.00  0.00    -0.336 OA
BRANCH  16  17
ATOM     17  C   UNL     1      -1.425  -1.325  25.384  0.00  0.00    +0.095 C 
BRANCH  17  18
ATOM     18  C   UNL     1      -2.127  -1.699  25.163  0.00  0.00    -0.014 A 
ATOM     19  C   UNL     1      -2.129  -2.232  24.534  0.00  0.00    -0.004 A 
ATOM     20  C   UNL     1      -2.831  -2.605  24.313  0.00  0.00    -0.000 A 
ATOM     21  C   UNL     1      -3.529  -2.446  24.721  0.00  0.00    -0.000 A 
ATOM     22  C   UNL     1      -3.526  -1.912  25.351  0.00  0.00    -0.000 A 
ATOM     23  C   UNL     1      -2.826  -1.539  25.572  0.00  0.00    -0.004 A 
ENDBRANCH  17  18
ENDBRANCH  16  17
ENDBRANCH   4  14
BRANCH   5   6
ATOM      6  C   UNL     1      -2.484   1.789  24.395  0.00  0.00    +0.101 C 
BRANCH   6   7
ATOM      7  C   UNL     1      -3.156   2.269  24.382  0.00  0.00    +0.013 A 
ATOM      8  C   UNL     1      -3.744   2.171  24.953  0.00  0.00    +0.000 A 
ATOM      9  C   UNL     1      -4.415   2.650  24.940  0.00  0.00    +0.020 A 
ATOM     10  C   UNL     1      -4.499   3.227  24.356  0.00  0.00    +0.099 A 
ATOM     11  N   UNL     1      -3.911   3.325  23.785  0.00  0.00    -0.243 NA
ATOM     12  C   UNL     1      -3.239   2.845  23.798  0.00  0.00    +0.096 A 
ENDBRANCH   6   7
ENDBRANCH   5   6
TORSDOF 5
ENDMDL
