MODEL 1
REMARK VINA RESULT:      -9.9      0.000      0.000
REMARK  Name = 
REMARK  9 active torsions:
REMARK  status: ('A' for Active; 'I' for Inactive)
REMARK    1  A    between atoms: C_2  and  N_3
REMARK    2  A    between atoms: N_3  and  C_4
REMARK    3  A    between atoms: C_6  and  C_8
REMARK    4  A    between atoms: C_8  and  C_9
REMARK    5  A    between atoms: C_9  and  C_10
REMARK    6  A    between atoms: C_17  and  N_20
REMARK    7  A    between atoms: N_20  and  C_21
REMARK    8  A    between atoms: C_21  and  C_22
REMARK    9  A    between atoms: C_25  and  N_28
REMARK                            x       y       z     vdW  Elec       q    Type
REMARK                         _______ _______ _______ _____ _____    ______ ____
ROOT
ATOM     10  C   UNL     1      -4.339   3.373  25.134  0.00  0.00    +0.080 C 
ATOM     11  C   UNL     1      -4.797   3.950  25.505  0.00  0.00    +0.131 C 
ATOM     12  N   UNL     1      -5.506   3.740  25.872  0.00  0.00    -0.203 NA
ATOM     13  C   UNL     1      -5.756   2.954  25.868  0.00  0.00    +0.256 C 
ATOM     14  O   UNL     1      -6.465   2.746  26.235  0.00  0.00    -0.272 OA
ATOM     15  C   UNL     1      -5.298   2.378  25.497  0.00  0.00    +0.138 C 
ATOM     16  C   UNL     1      -5.402   1.565  25.404  0.00  0.00    +0.044 C 
ATOM     17  C   UNL     1      -4.758   1.272  24.980  0.00  0.00    +0.091 C 
ATOM     18  C   UNL     1      -4.255   1.903  24.810  0.00  0.00    +0.090 C 
ATOM     19  N   UNL     1      -4.589   2.587  25.130  0.00  0.00    -0.265 NA
ENDROOT
BRANCH  10   9
ATOM      9  C   UNL     1      -3.630   3.583  24.767  0.00  0.00    +0.027 C 
BRANCH   9   8
ATOM      8  C   UNL     1      -2.985   3.822  25.222  0.00  0.00    +0.087 C 
BRANCH   8   6
ATOM      3  N   UNL     1      -1.573   4.038  25.186  0.00  0.00    -0.280 N 
ATOM      6  C   UNL     1      -2.322   4.150  24.858  0.00  0.00    +0.226 C 
ATOM      7  O   UNL     1      -2.407   4.589  24.165  0.00  0.00    -0.275 OA
BRANCH   3   2
ATOM      1  C   UNL     1      -0.675   5.135  25.005  0.00  0.00    +0.023 C 
ATOM      2  C   UNL     1      -0.909   4.366  24.820  0.00  0.00    +0.093 C 
ENDBRANCH   3   2
BRANCH   3   4
ATOM      4  C   UNL     1      -1.487   3.599  25.878  0.00  0.00    +0.093 C 
ATOM      5  C   UNL     1      -0.845   3.086  25.964  0.00  0.00    +0.023 C 
ENDBRANCH   3   4
ENDBRANCH   8   6
ENDBRANCH   9   8
ENDBRANCH  10   9
BRANCH  17  20
ATOM     20  N   UNL     1      -4.638   0.484  24.763  0.00  0.00    -0.213 NA
BRANCH  20  21
ATOM     21  C   UNL     1      -4.378  -0.062  25.323  0.00  0.00    +0.115 C 
BRANCH  21  22
ATOM     22  C   UNL     1      -4.009  -0.759  25.079  0.00  0.00    -0.005 A 
ATOM     23  C   UNL     1      -4.172  -1.072  24.333  0.00  0.00    -0.002 A 
ATOM     24  C   UNL     1      -3.803  -1.769  24.089  0.00  0.00    +0.014 A 
ATOM     25  C   UNL     1      -3.273  -2.153  24.591  0.00  0.00    +0.048 A 
ATOM     26  C   UNL     1      -3.110  -1.839  25.337  0.00  0.00    +0.014 A 
ATOM     27  C   UNL     1      -3.478  -1.143  25.581  0.00  0.00    -0.002 A 
BRANCH  25  28
ATOM     28  N   UNL     1      -2.905  -2.849  24.347  0.00  0.00    -0.304 N 
ATOM     29  C   UNL     1      -2.085  -2.873  24.256  0.00  0.00    +0.112 C 
ATOM     30  C   UNL     1      -3.356  -3.522  24.192  0.00  0.00    +0.112 C 
ENDBRANCH  25  28
ENDBRANCH  21  22
ENDBRANCH  20  21
ENDBRANCH  17  20
TORSDOF 9
ENDMDL
MODEL 2
REMARK VINA RESULT:      -8.7      2.369      4.951
REMARK  Name = 
REMARK  9 active torsions:
REMARK  status: ('A' for Active; 'I' for Inactive)
REMARK    1  A    between atoms: C_2  and  N_3
REMARK    2  A    between atoms: N_3  and  C_4
REMARK    3  A    between atoms: C_6  and  C_8
REMARK    4  A    between atoms: C_8  and  C_9
REMARK    5  A    between atoms: C_9  and  C_10
REMARK    6  A    between atoms: C_17  and  N_20
REMARK    7  A    between atoms: N_20  and  C_21
REMARK    8  A    between atoms: C_21  and  C_22
REMARK    9  A    between atoms: C_25  and  N_28
REMARK                            x       y       z     vdW  Elec       q    Type
REMARK                         _______ _______ _______ _____ _____    ______ ____
ROOT
ATOM     10  C   UNL     1      -1.901  -1.410  24.876  0.00  0.00    +0.080 C 
ATOM     11  C   UNL     1      -1.704  -2.173  24.633  0.00  0.00    +0.131 C 
ATOM     12  N   UNL     1      -2.300  -2.705  24.425  0.00  0.00    -0.203 NA
ATOM     13  C   UNL     1      -3.091  -2.473  24.459  0.00  0.00    +0.256 C 
ATOM     14  O   UNL     1      -3.685  -3.006  24.251  0.00  0.00    -0.272 OA
ATOM     15  C   UNL     1      -3.286  -1.710  24.702  0.00  0.00    +0.138 C 
ATOM     16  C   UNL     1      -4.012  -1.327  24.790  0.00  0.00    +0.044 C 
ATOM     17  C   UNL     1      -3.865  -0.560  25.052  0.00  0.00    +0.091 C 
ATOM     18  C   UNL     1      -3.050  -0.466  25.127  0.00  0.00    +0.090 C 
ATOM     19  N   UNL     1      -2.692  -1.178  24.910  0.00  0.00    -0.265 NA
ENDROOT
BRANCH  10   9
ATOM      9  C   UNL     1      -1.305  -0.877  25.084  0.00  0.00    +0.027 C 
BRANCH   9   8
ATOM      8  C   UNL     1      -0.766  -0.618  24.516  0.00  0.00    +0.087 C 
BRANCH   8   6
ATOM      3  N   UNL     1       0.156   0.368  24.049  0.00  0.00    -0.280 N 
ATOM      6  C   UNL     1      -0.328   0.068  24.646  0.00  0.00    +0.226 C 
ATOM      7  O   UNL     1      -0.372   0.454  25.374  0.00  0.00    -0.275 OA
BRANCH   3   2
ATOM      1  C   UNL     1       0.282   1.790  23.974  0.00  0.00    +0.023 C 
ATOM      2  C   UNL     1       0.595   1.055  24.179  0.00  0.00    +0.093 C 
ENDBRANCH   3   2
BRANCH   3   4
ATOM      4  C   UNL     1       0.201  -0.018  23.321  0.00  0.00    +0.093 C 
ATOM      5  C   UNL     1       0.916  -0.038  22.909  0.00  0.00    +0.023 C 
ENDBRANCH   3   4
ENDBRANCH   8   6
ENDBRANCH   9   8
ENDBRANCH  10   9
BRANCH  17  20
ATOM     20  N   UNL     1      -4.436   0.016  25.213  0.00  0.00    -0.213 NA
BRANCH  20  21
ATOM     21  C   UNL     1      -4.649   0.558  24.629  0.00  0.00    +0.115 C 
BRANCH  21  22
ATOM     22  C   UNL     1      -4.798   1.344  24.831  0.00  0.00    -0.005 A 
ATOM     23  C   UNL     1      -4.349   1.949  24.494  0.00  0.00    -0.002 A 
ATOM     24  C   UNL     1      -4.499   2.735  24.697  0.00  0.00    +0.014 A 
ATOM     25  C   UNL     1      -5.097   2.916  25.236  0.00  0.00    +0.048 A 
ATOM     26  C   UNL     1      -5.545   2.310  25.573  0.00  0.00    +0.014 A 
ATOM     27  C   UNL     1      -5.396   1.525  25.370  0.00  0.00    -0.002 A 
BRANCH  25  28
ATOM     28  N   UNL     1      -5.245   3.701  25.438  0.00  0.00    -0.304 N 
ATOM     29  C   UNL     1      -5.999   3.929  25.684  0.00  0.00    +0.112 C 
ATOM     30  C   UNL     1      -4.640   4.260  25.394  0.00  0.00    +0.112 C 
ENDBRANCH  25  28
ENDBRANCH  21  22
ENDBRANCH  20  21
ENDBRANCH  17  20
TORSDOF 9
ENDMDL
MODEL 3
REMARK VINA RESULT:      -8.6      2.420      5.889
REMARK  Name = 
REMARK  9 active torsions:
REMARK  status: ('A' for Active; 'I' for Inactive)
REMARK    1  A    between atoms: C_2  and  N_3
REMARK    2  A    between atoms: N_3  and  C_4
REMARK    3  A    between atoms: C_6  and  C_8
REMARK    4  A    between atoms: C_8  and  C_9
REMARK    5  A    between atoms: C_9  and  C_10
REMARK    6  A    between atoms: C_17  and  N_20
REMARK    7  A    between atoms: N_20  and  C_21
REMARK    8  A    between atoms: C_21  and  C_22
REMARK    9  A    between atoms: C_25  and  N_28
REMARK                            x       y       z     vdW  Elec       q    Type
REMARK                         _______ _______ _______ _____ _____    ______ ____
ROOT
ATOM     10  C   UNL     1      -0.729  -0.382  24.500  0.00  0.00    +0.080 C 
ATOM     11  C   UNL     1      -0.070  -0.671  24.096  0.00  0.00    +0.131 C 
ATOM     12  N   UNL     1       0.458  -0.145  23.741  0.00  0.00    -0.203 NA
ATOM     13  C   UNL     1       0.327   0.668  23.791  0.00  0.00    +0.256 C 
ATOM     14  O   UNL     1       0.856   1.193  23.436  0.00  0.00    -0.272 OA
ATOM     15  C   UNL     1      -0.331   0.956  24.195  0.00  0.00    +0.138 C 
ATOM     16  C   UNL     1      -0.602   1.722  24.335  0.00  0.00    +0.044 C 
ATOM     17  C   UNL     1      -1.297   1.671  24.776  0.00  0.00    +0.091 C 
ATOM     18  C   UNL     1      -1.457   0.873  24.909  0.00  0.00    +0.090 C 
ATOM     19  N   UNL     1      -0.859   0.431  24.550  0.00  0.00    -0.265 NA
ENDROOT
BRANCH  10   9
ATOM      9  C   UNL     1      -1.257  -0.907  24.855  0.00  0.00    +0.027 C 
BRANCH   9   8
ATOM      8  C   UNL     1      -1.817  -1.303  24.396  0.00  0.00    +0.087 C 
BRANCH   8   6
ATOM      3  N   UNL     1      -3.015  -2.073  24.499  0.00  0.00    -0.280 N 
ATOM      6  C   UNL     1      -2.228  -1.945  24.710  0.00  0.00    +0.226 C 
ATOM      7  O   UNL     1      -1.853  -2.460  25.234  0.00  0.00    -0.275 OA
BRANCH   3   2
ATOM      1  C   UNL     1      -3.756  -3.281  24.311  0.00  0.00    +0.023 C 
ATOM      2  C   UNL     1      -3.428  -2.715  24.814  0.00  0.00    +0.093 C 
ENDBRANCH   3   2
BRANCH   3   4
ATOM      4  C   UNL     1      -3.392  -1.559  23.975  0.00  0.00    +0.093 C 
ATOM      5  C   UNL     1      -4.189  -1.372  24.082  0.00  0.00    +0.023 C 
ENDBRANCH   3   4
ENDBRANCH   8   6
ENDBRANCH   9   8
ENDBRANCH  10   9
BRANCH  17  20
ATOM     20  N   UNL     1      -1.753   2.308  25.038  0.00  0.00    -0.213 NA
BRANCH  20  21
ATOM     21  C   UNL     1      -2.273   2.683  24.520  0.00  0.00    +0.115 C 
BRANCH  21  22
ATOM     22  C   UNL     1      -3.029   2.894  24.776  0.00  0.00    -0.005 A 
ATOM     23  C   UNL     1      -3.694   2.600  24.385  0.00  0.00    -0.002 A 
ATOM     24  C   UNL     1      -4.449   2.811  24.642  0.00  0.00    +0.014 A 
ATOM     25  C   UNL     1      -4.540   3.317  25.287  0.00  0.00    +0.048 A 
ATOM     26  C   UNL     1      -3.875   3.611  25.677  0.00  0.00    +0.014 A 
ATOM     27  C   UNL     1      -3.120   3.400  25.421  0.00  0.00    -0.002 A 
BRANCH  25  28
ATOM     28  N   UNL     1      -5.295   3.528  25.543  0.00  0.00    -0.304 N 
ATOM     29  C   UNL     1      -5.539   4.315  25.505  0.00  0.00    +0.112 C 
ATOM     30  C   UNL     1      -5.807   2.951  25.836  0.00  0.00    +0.112 C 
ENDBRANCH  25  28
ENDBRANCH  21  22
ENDBRANCH  20  21
ENDBRANCH  17  20
TORSDOF 9
ENDMDL
MODEL 4
REMARK VINA RESULT:      -8.5      1.638      3.479
REMARK  Name = 
REMARK  9 active torsions:
REMARK  status: ('A' for Active; 'I' for Inactive)
REMARK    1  A    between atoms: C_2  and  N_3
REMARK    2  A    between atoms: N_3  and  C_4
REMARK    3  A    between atoms: C_6  and  C_8
REMARK    4  A    between atoms: C_8  and  C_9
REMARK    5  A    between atoms: C_9  and  C_10
REMARK    6  A    between atoms: C_17  and  N_20
REMARK    7  A    between atoms: N_20  and  C_21
REMARK    8  A    between atoms: C_21  and  C_22
REMARK    9  A    between atoms: C_25  and  N_28
REMARK                            x       y       z     vdW  Elec       q    Type
REMARK                         _______ _______ _______ _____ _____    ______ ____
ROOT
ATOM     10  C   UNL     1      -1.186   2.861  25.330  0.00  0.00    +0.080 C 
ATOM     11  C   UNL     1      -0.650   3.444  25.102  0.00  0.00    +0.131 C 
ATOM     12  N   UNL     1       0.066   3.230  24.751  0.00  0.00    -0.203 NA
ATOM     13  C   UNL     1       0.244   2.434  24.629  0.00  0.00    +0.256 C 
ATOM     14  O   UNL     1       0.960   2.222  24.278  0.00  0.00    -0.272 OA
ATOM     15  C   UNL     1      -0.293   1.852  24.857  0.00  0.00    +0.138 C 
ATOM     16  C   UNL     1      -0.269   1.029  24.807  0.00  0.00    +0.044 C 
ATOM     17  C   UNL     1      -0.970   0.734  25.127  0.00  0.00    +0.091 C 
ATOM     18  C   UNL     1      -1.427   1.373  25.374  0.00  0.00    +0.090 C 
ATOM     19  N   UNL     1      -1.008   2.065  25.207  0.00  0.00    -0.265 NA
ENDROOT
BRANCH  10   9
ATOM      9  C   UNL     1      -1.903   3.075  25.680  0.00  0.00    +0.027 C 
BRANCH   9   8
ATOM      8  C   UNL     1      -2.474   3.477  25.241  0.00  0.00    +0.087 C 
BRANCH   8   6
ATOM      3  N   UNL     1      -3.887   3.664  25.158  0.00  0.00    -0.280 N 
ATOM      6  C   UNL     1      -3.187   3.694  25.593  0.00  0.00    +0.226 C 
ATOM      7  O   UNL     1      -3.201   3.942  26.380  0.00  0.00    -0.275 OA
BRANCH   3   2
ATOM      1  C   UNL     1      -5.214   3.333  25.576  0.00  0.00    +0.023 C 
ATOM      2  C   UNL     1      -4.602   3.882  25.511  0.00  0.00    +0.093 C 
ENDBRANCH   3   2
BRANCH   3   4
ATOM      4  C   UNL     1      -3.875   3.417  24.372  0.00  0.00    +0.093 C 
ATOM      5  C   UNL     1      -4.274   3.853  23.796  0.00  0.00    +0.023 C 
ENDBRANCH   3   4
ENDBRANCH   8   6
ENDBRANCH   9   8
ENDBRANCH  10   9
BRANCH  17  20
ATOM     20  N   UNL     1      -1.177  -0.063  25.188  0.00  0.00    -0.213 NA
BRANCH  20  21
ATOM     21  C   UNL     1      -1.878  -0.278  25.566  0.00  0.00    +0.115 C 
BRANCH  21  22
ATOM     22  C   UNL     1      -2.336  -0.896  25.266  0.00  0.00    -0.005 A 
ATOM     23  C   UNL     1      -1.969  -1.554  24.930  0.00  0.00    -0.002 A 
ATOM     24  C   UNL     1      -2.427  -2.172  24.629  0.00  0.00    +0.014 A 
ATOM     25  C   UNL     1      -3.250  -2.131  24.665  0.00  0.00    +0.048 A 
ATOM     26  C   UNL     1      -3.616  -1.472  25.001  0.00  0.00    +0.014 A 
ATOM     27  C   UNL     1      -3.159  -0.855  25.301  0.00  0.00    -0.002 A 
BRANCH  25  28
ATOM     28  N   UNL     1      -3.707  -2.748  24.364  0.00  0.00    -0.304 N 
ATOM     29  C   UNL     1      -3.589  -3.519  24.634  0.00  0.00    +0.112 C 
ATOM     30  C   UNL     1      -4.283  -2.595  23.794  0.00  0.00    +0.112 C 
ENDBRANCH  25  28
ENDBRANCH  21  22
ENDBRANCH  20  21
ENDBRANCH  17  20
TORSDOF 9
ENDMDL
MODEL 5
REMARK VINA RESULT:      -8.2      3.447      5.124
REMARK  Name = 
REMARK  9 active torsions:
REMARK  status: ('A' for Active; 'I' for Inactive)
REMARK    1  A    between atoms: C_2  and  N_3
REMARK    2  A    between atoms: N_3  and  C_4
REMARK    3  A    between atoms: C_6  and  C_8
REMARK    4  A    between atoms: C_8  and  C_9
REMARK    5  A    between atoms: C_9  and  C_10
REMARK    6  A    between atoms: C_17  and  N_20
REMARK    7  A    between atoms: N_20  and  C_21
REMARK    8  A    between atoms: C_21  and  C_22
REMARK    9  A    between atoms: C_25  and  N_28
REMARK                            x       y       z     vdW  Elec       q    Type
REMARK                         _______ _______ _______ _____ _____    ______ ____
ROOT
ATOM     10  C   UNL     1      -3.005  -0.047  24.955  0.00  0.00    +0.080 C 
ATOM     11  C   UNL     1      -3.609  -0.575  25.148  0.00  0.00    +0.131 C 
ATOM     12  N   UNL     1      -3.461  -1.387  25.145  0.00  0.00    -0.203 NA
ATOM     13  C   UNL     1      -2.712  -1.670  24.948  0.00  0.00    +0.256 C 
ATOM     14  O   UNL     1      -2.566  -2.482  24.945  0.00  0.00    -0.272 OA
ATOM     15  C   UNL     1      -2.109  -1.141  24.756  0.00  0.00    +0.138 C 
ATOM     16  C   UNL     1      -1.321  -1.256  24.541  0.00  0.00    +0.044 C 
ATOM     17  C   UNL     1      -0.981  -0.517  24.412  0.00  0.00    +0.091 C 
ATOM     18  C   UNL     1      -1.558   0.057  24.546  0.00  0.00    +0.090 C 
ATOM     19  N   UNL     1      -2.255  -0.330  24.759  0.00  0.00    -0.265 NA
ENDROOT
BRANCH  10   9
ATOM      9  C   UNL     1      -3.152   0.766  24.959  0.00  0.00    +0.027 C 
BRANCH   9   8
ATOM      8  C   UNL     1      -3.928   1.045  24.939  0.00  0.00    +0.087 C 
BRANCH   8   6
ATOM      3  N   UNL     1      -4.838   2.143  25.016  0.00  0.00    -0.280 N 
ATOM      6  C   UNL     1      -4.074   1.855  24.901  0.00  0.00    +0.226 C 
ATOM      7  O   UNL     1      -3.455   2.379  24.747  0.00  0.00    -0.275 OA
BRANCH   3   2
ATOM      1  C   UNL     1      -5.261   3.356  25.643  0.00  0.00    +0.023 C 
ATOM      2  C   UNL     1      -4.984   2.955  24.977  0.00  0.00    +0.093 C 
ENDBRANCH   3   2
BRANCH   3   4
ATOM      4  C   UNL     1      -5.457   1.620  25.169  0.00  0.00    +0.093 C 
ATOM      5  C   UNL     1      -6.225   1.808  24.930  0.00  0.00    +0.023 C 
ENDBRANCH   3   4
ENDBRANCH   8   6
ENDBRANCH   9   8
ENDBRANCH  10   9
BRANCH  17  20
ATOM     20  N   UNL     1      -0.199  -0.374  24.187  0.00  0.00    -0.213 NA
BRANCH  20  21
ATOM     21  C   UNL     1      -0.040   0.068  23.509  0.00  0.00    +0.115 C 
BRANCH  21  22
ATOM     22  C   UNL     1       0.740   0.169  23.256  0.00  0.00    -0.005 A 
ATOM     23  C   UNL     1       1.201   0.773  23.576  0.00  0.00    -0.002 A 
ATOM     24  C   UNL     1       1.981   0.873  23.323  0.00  0.00    +0.014 A 
ATOM     25  C   UNL     1       2.298   0.370  22.752  0.00  0.00    +0.048 A 
ATOM     26  C   UNL     1       1.835  -0.234  22.432  0.00  0.00    +0.014 A 
ATOM     27  C   UNL     1       1.056  -0.335  22.684  0.00  0.00    -0.002 A 
BRANCH  25  28
ATOM     28  N   UNL     1       3.076   0.471  22.500  0.00  0.00    -0.304 N 
ATOM     29  C   UNL     1       3.323   0.149  21.781  0.00  0.00    +0.112 C 
ATOM     30  C   UNL     1       3.609   0.893  22.966  0.00  0.00    +0.112 C 
ENDBRANCH  25  28
ENDBRANCH  21  22
ENDBRANCH  20  21
ENDBRANCH  17  20
TORSDOF 9
ENDMDL
MODEL 6
REMARK VINA RESULT:      -8.1      1.699      3.782
REMARK  Name = 
REMARK  9 active torsions:
REMARK  status: ('A' for Active; 'I' for Inactive)
REMARK    1  A    between atoms: C_2  and  N_3
REMARK    2  A    between atoms: N_3  and  C_4
REMARK    3  A    between atoms: C_6  and  C_8
REMARK    4  A    between atoms: C_8  and  C_9
REMARK    5  A    between atoms: C_9  and  C_10
REMARK    6  A    between atoms: C_17  and  N_20
REMARK    7  A    between atoms: N_20  and  C_21
REMARK    8  A    between atoms: C_21  and  C_22
REMARK    9  A    between atoms: C_25  and  N_28
REMARK                            x       y       z     vdW  Elec       q    Type
REMARK                         _______ _______ _______ _____ _____    ______ ____
ROOT
ATOM     10  C   UNL     1      -2.486   4.110  25.641  0.00  0.00    +0.080 C 
ATOM     11  C   UNL     1      -2.443   4.918  25.481  0.00  0.00    +0.131 C 
ATOM     12  N   UNL     1      -1.743   5.242  25.187  0.00  0.00    -0.203 NA
ATOM     13  C   UNL     1      -1.088   4.759  25.054  0.00  0.00    +0.256 C 
ATOM     14  O   UNL     1      -0.389   5.084  24.761  0.00  0.00    -0.272 OA
ATOM     15  C   UNL     1      -1.132   3.952  25.215  0.00  0.00    +0.138 C 
ATOM     16  C   UNL     1      -0.580   3.343  25.140  0.00  0.00    +0.044 C 
ATOM     17  C   UNL     1      -0.939   2.642  25.387  0.00  0.00    +0.091 C 
ATOM     18  C   UNL     1      -1.711   2.817  25.615  0.00  0.00    +0.090 C 
ATOM     19  N   UNL     1      -1.831   3.627  25.509  0.00  0.00    -0.265 NA
ENDROOT
BRANCH  10   9
ATOM      9  C   UNL     1      -3.186   3.786  25.935  0.00  0.00    +0.027 C 
BRANCH   9   8
ATOM      8  C   UNL     1      -3.805   3.605  25.421  0.00  0.00    +0.087 C 
BRANCH   8   6
ATOM      3  N   UNL     1      -4.942   2.748  25.308  0.00  0.00    -0.280 N 
ATOM      6  C   UNL     1      -4.521   3.326  25.719  0.00  0.00    +0.226 C 
ATOM      7  O   UNL     1      -4.817   3.624  26.430  0.00  0.00    -0.275 OA
BRANCH   3   2
ATOM      1  C   UNL     1      -6.259   2.235  25.090  0.00  0.00    +0.023 C 
ATOM      2  C   UNL     1      -5.659   2.469  25.607  0.00  0.00    +0.093 C 
ENDBRANCH   3   2
BRANCH   3   4
ATOM      4  C   UNL     1      -4.648   2.449  24.598  0.00  0.00    +0.093 C 
ATOM      5  C   UNL     1      -4.675   1.638  24.450  0.00  0.00    +0.023 C 
ENDBRANCH   3   4
ENDBRANCH   8   6
ENDBRANCH   9   8
ENDBRANCH  10   9
BRANCH  17  20
ATOM     20  N   UNL     1      -0.585   1.896  25.403  0.00  0.00    -0.213 NA
BRANCH  20  21
ATOM     21  C   UNL     1      -0.585   1.426  24.725  0.00  0.00    +0.115 C 
BRANCH  21  22
ATOM     22  C   UNL     1      -0.640   0.605  24.793  0.00  0.00    -0.005 A 
ATOM     23  C   UNL     1      -0.311   0.121  24.212  0.00  0.00    -0.002 A 
ATOM     24  C   UNL     1      -0.367  -0.700  24.280  0.00  0.00    +0.014 A 
ATOM     25  C   UNL     1      -0.750  -1.036  24.928  0.00  0.00    +0.048 A 
ATOM     26  C   UNL     1      -1.079  -0.550  25.509  0.00  0.00    +0.014 A 
ATOM     27  C   UNL     1      -1.024   0.269  25.442  0.00  0.00    -0.002 A 
BRANCH  25  28
ATOM     28  N   UNL     1      -0.805  -1.856  24.996  0.00  0.00    -0.304 N 
ATOM     29  C   UNL     1      -1.457  -2.253  24.683  0.00  0.00    +0.112 C 
ATOM     30  C   UNL     1      -0.208  -2.279  25.376  0.00  0.00    +0.112 C 
ENDBRANCH  25  28
ENDBRANCH  21  22
ENDBRANCH  20  21
ENDBRANCH  17  20
TORSDOF 9
ENDMDL
MODEL 7
REMARK VINA RESULT:      -7.9      2.906      4.979
REMARK  Name = 
REMARK  9 active torsions:
REMARK  status: ('A' for Active; 'I' for Inactive)
REMARK    1  A    between atoms: C_2  and  N_3
REMARK    2  A    between atoms: N_3  and  C_4
REMARK    3  A    between atoms: C_6  and  C_8
REMARK    4  A    between atoms: C_8  and  C_9
REMARK    5  A    between atoms: C_9  and  C_10
REMARK    6  A    between atoms: C_17  and  N_20
REMARK    7  A    between atoms: N_20  and  C_21
REMARK    8  A    between atoms: C_21  and  C_22
REMARK    9  A    between atoms: C_25  and  N_28
REMARK                            x       y       z     vdW  Elec       q    Type
REMARK                         _______ _______ _______ _____ _____    ______ ____
ROOT
ATOM     10  C   UNL     1      -3.769   1.050  24.843  0.00  0.00    +0.080 C 
ATOM     11  C   UNL     1      -4.504   1.419  24.789  0.00  0.00    +0.131 C 
ATOM     12  N   UNL     1      -4.575   2.138  24.392  0.00  0.00    -0.203 NA
ATOM     13  C   UNL     1      -3.911   2.489  24.050  0.00  0.00    +0.256 C 
ATOM     14  O   UNL     1      -3.983   3.209  23.654  0.00  0.00    -0.272 OA
ATOM     15  C   UNL     1      -3.176   2.119  24.105  0.00  0.00    +0.138 C 
ATOM     16  C   UNL     1      -2.429   2.331  23.825  0.00  0.00    +0.044 C 
ATOM     17  C   UNL     1      -1.897   1.742  24.048  0.00  0.00    +0.091 C 
ATOM     18  C   UNL     1      -2.313   1.166  24.466  0.00  0.00    +0.090 C 
ATOM     19  N   UNL     1      -3.105   1.400  24.501  0.00  0.00    -0.265 NA
ENDROOT
BRANCH  10   9
ATOM      9  C   UNL     1      -3.697   0.329  25.240  0.00  0.00    +0.027 C 
BRANCH   9   8
ATOM      8  C   UNL     1      -3.989  -0.362  24.897  0.00  0.00    +0.087 C 
BRANCH   8   6
ATOM      3  N   UNL     1      -3.850  -1.776  24.756  0.00  0.00    -0.280 N 
ATOM      6  C   UNL     1      -3.795  -1.096  25.219  0.00  0.00    +0.226 C 
ATOM      7  O   UNL     1      -3.545  -1.150  26.003  0.00  0.00    -0.275 OA
BRANCH   3   2
ATOM      1  C   UNL     1      -3.024  -2.943  24.770  0.00  0.00    +0.023 C 
ATOM      2  C   UNL     1      -3.656  -2.511  25.078  0.00  0.00    +0.093 C 
ENDBRANCH   3   2
BRANCH   3   4
ATOM      4  C   UNL     1      -4.100  -1.723  23.972  0.00  0.00    +0.093 C 
ATOM      5  C   UNL     1      -4.463  -2.371  23.610  0.00  0.00    +0.023 C 
ENDBRANCH   3   4
ENDBRANCH   8   6
ENDBRANCH   9   8
ENDBRANCH  10   9
BRANCH  17  20
ATOM     20  N   UNL     1      -1.088   1.731  23.882  0.00  0.00    -0.213 NA
BRANCH  20  21
ATOM     21  C   UNL     1      -0.609   1.145  24.209  0.00  0.00    +0.115 C 
BRANCH  21  22
ATOM     22  C   UNL     1       0.096   0.933  23.835  0.00  0.00    -0.005 A 
ATOM     23  C   UNL     1       0.155   0.205  23.451  0.00  0.00    -0.002 A 
ATOM     24  C   UNL     1       0.860  -0.007  23.077  0.00  0.00    +0.014 A 
ATOM     25  C   UNL     1       1.505   0.508  23.088  0.00  0.00    +0.048 A 
ATOM     26  C   UNL     1       1.444   1.236  23.473  0.00  0.00    +0.014 A 
ATOM     27  C   UNL     1       0.740   1.448  23.847  0.00  0.00    -0.002 A 
BRANCH  25  28
ATOM     28  N   UNL     1       2.208   0.296  22.715  0.00  0.00    -0.304 N 
ATOM     29  C   UNL     1       2.191  -0.166  22.031  0.00  0.00    +0.112 C 
ATOM     30  C   UNL     1       2.931   0.546  23.024  0.00  0.00    +0.112 C 
ENDBRANCH  25  28
ENDBRANCH  21  22
ENDBRANCH  20  21
ENDBRANCH  17  20
TORSDOF 9
ENDMDL
MODEL 8
REMARK VINA RESULT:      -6.4     14.239     16.520
REMARK  Name = 
REMARK  9 active torsions:
REMARK  status: ('A' for Active; 'I' for Inactive)
REMARK    1  A    between atoms: C_2  and  N_3
REMARK    2  A    between atoms: N_3  and  C_4
REMARK    3  A    between atoms: C_6  and  C_8
REMARK    4  A    between atoms: C_8  and  C_9
REMARK    5  A    between atoms: C_9  and  C_10
REMARK    6  A    between atoms: C_17  and  N_20
REMARK    7  A    between atoms: N_20  and  C_21
REMARK    8  A    between atoms: C_21  and  C_22
REMARK    9  A    between atoms: C_25  and  N_28
REMARK                            x       y       z     vdW  Elec       q    Type
REMARK                         _______ _______ _______ _____ _____    ______ ____
ROOT
ATOM     10  C   UNL     1      -5.895  -9.638  12.305  0.00  0.00    +0.080 C 
ATOM     11  C   UNL     1      -6.377  -9.393  11.681  0.00  0.00    +0.131 C 
ATOM     12  N   UNL     1      -7.187  -9.297  11.802  0.00  0.00    -0.203 NA
ATOM     13  C   UNL     1      -7.515  -9.444  12.544  0.00  0.00    +0.256 C 
ATOM     14  O   UNL     1      -8.326  -9.347  12.663  0.00  0.00    -0.272 OA
ATOM     15  C   UNL     1      -7.032  -9.688  13.167  0.00  0.00    +0.138 C 
ATOM     16  C   UNL     1      -7.198  -9.873  13.954  0.00  0.00    +0.044 C 
ATOM     17  C   UNL     1      -6.490 -10.085  14.320  0.00  0.00    +0.091 C 
ATOM     18  C   UNL     1      -5.886 -10.030  13.760  0.00  0.00    +0.090 C 
ATOM     19  N   UNL     1      -6.223  -9.785  13.047  0.00  0.00    -0.265 NA
ENDROOT
BRANCH  10   9
ATOM      9  C   UNL     1      -5.084  -9.735  12.185  0.00  0.00    +0.027 C 
BRANCH   9   8
ATOM      8  C   UNL     1      -4.751  -9.559  11.450  0.00  0.00    +0.087 C 
BRANCH   8   6
ATOM      3  N   UNL     1      -3.581  -9.437  10.641  0.00  0.00    -0.280 N 
ATOM      6  C   UNL     1      -3.967  -9.760  11.295  0.00  0.00    +0.226 C 
ATOM      7  O   UNL     1      -3.567 -10.283  11.792  0.00  0.00    -0.275 OA
BRANCH   3   2
ATOM      1  C   UNL     1      -2.205  -9.063  10.534  0.00  0.00    +0.023 C 
ATOM      2  C   UNL     1      -2.795  -9.637  10.485  0.00  0.00    +0.093 C 
ENDBRANCH   3   2
BRANCH   3   4
ATOM      4  C   UNL     1      -3.979  -8.913  10.143  0.00  0.00    +0.093 C 
ATOM      5  C   UNL     1      -3.872  -8.961   9.326  0.00  0.00    +0.023 C 
ENDBRANCH   3   4
ENDBRANCH   8   6
ENDBRANCH   9   8
ENDBRANCH  10   9
BRANCH  17  20
ATOM     20  N   UNL     1      -6.400 -10.311  15.109  0.00  0.00    -0.213 NA
BRANCH  20  21
ATOM     21  C   UNL     1      -6.174  -9.754  15.674  0.00  0.00    +0.115 C 
BRANCH  21  22
ATOM     22  C   UNL     1      -6.165  -9.959  16.474  0.00  0.00    -0.005 A 
ATOM     23  C   UNL     1      -5.507 -10.339  16.794  0.00  0.00    -0.002 A 
ATOM     24  C   UNL     1      -5.499 -10.543  17.594  0.00  0.00    +0.014 A 
ATOM     25  C   UNL     1      -6.148 -10.368  18.072  0.00  0.00    +0.048 A 
ATOM     26  C   UNL     1      -6.806  -9.988  17.750  0.00  0.00    +0.014 A 
ATOM     27  C   UNL     1      -6.815  -9.784  16.951  0.00  0.00    -0.002 A 
BRANCH  25  28
ATOM     28  N   UNL     1      -6.139 -10.572  18.871  0.00  0.00    -0.304 N 
ATOM     29  C   UNL     1      -6.849 -10.660  19.283  0.00  0.00    +0.112 C 
ATOM     30  C   UNL     1      -5.421 -10.689  19.259  0.00  0.00    +0.112 C 
ENDBRANCH  25  28
ENDBRANCH  21  22
ENDBRANCH  20  21
ENDBRANCH  17  20
TORSDOF 9
ENDMDL
