MODEL 1
REMARK VINA RESULT:     -11.3      0.000      0.000
REMARK  Name = 
REMARK  9 active torsions:
REMARK  status: ('A' for Active; 'I' for Inactive)
REMARK    1  A    between atoms: C_2  and  C_3
REMARK    2  A    between atoms: C_3  and  C_4
REMARK    3  A    between atoms: C_4  and  C_5
REMARK    4  A    between atoms: C_7  and  C_8
REMARK    5  A    between atoms: C_8  and  C_9
REMARK    6  A    between atoms: C_14  and  C_15
REMARK    7  A    between atoms: C_15  and  C_16
REMARK    8  A    between atoms: N_18  and  C_19
REMARK    9  A    between atoms: C_19  and  C_20
REMARK                            x       y       z     vdW  Elec       q    Type
REMARK                         _______ _______ _______ _____ _____    ______ ____
ROOT
ATOM      9  C   UNL     1      -4.401   3.018  24.960  0.00  0.00    +0.024 C 
ATOM     10  C   UNL     1      -4.655   3.620  25.463  0.00  0.00    +0.089 C 
ATOM     11  N   UNL     1      -5.285   3.488  25.980  0.00  0.00    -0.218 NA
ATOM     12  C   UNL     1      -5.660   2.754  25.993  0.00  0.00    +0.089 C 
ATOM     13  C   UNL     1      -5.407   2.151  25.490  0.00  0.00    +0.019 C 
ATOM     14  C   UNL     1      -4.777   2.283  24.973  0.00  0.00    +0.012 C 
ENDROOT
BRANCH   9   8
ATOM      8  C   UNL     1      -3.772   3.150  24.444  0.00  0.00    +0.051 C 
BRANCH   8   7
ATOM      5  C   UNL     1      -1.825   3.722  25.107  0.00  0.00    +0.154 A 
ATOM      6  C   UNL     1      -2.355   3.152  24.833  0.00  0.00    +0.054 A 
ATOM      7  C   UNL     1      -3.085   3.517  24.716  0.00  0.00    +0.100 A 
ATOM     27  N   UNL     1      -3.008   4.314  24.918  0.00  0.00    -0.082 NA
ATOM     28  O   UNL     1      -2.230   4.440  25.159  0.00  0.00    -0.358 OA
BRANCH   5   4
ATOM      4  C   UNL     1      -1.033   3.597  25.296  0.00  0.00    +0.067 C 
BRANCH   4   3
ATOM      3  C   UNL     1      -0.827   3.036  25.865  0.00  0.00    +0.008 C 
BRANCH   3   2
ATOM      1  C   UNL     1       0.194   2.361  26.603  0.00  0.00    +0.000 C 
ATOM      2  C   UNL     1      -0.042   2.795  25.942  0.00  0.00    +0.000 C 
ENDBRANCH   3   2
ENDBRANCH   4   3
ENDBRANCH   5   4
ENDBRANCH   8   7
ENDBRANCH   9   8
BRANCH  14  15
ATOM     15  C   UNL     1      -4.523   1.680  24.470  0.00  0.00    +0.087 C 
BRANCH  15  16
ATOM     16  C   UNL     1      -4.754   0.901  24.611  0.00  0.00    +0.242 C 
ATOM     17  O   UNL     1      -5.551   0.721  24.725  0.00  0.00    -0.273 OA
ATOM     18  N   UNL     1      -4.187   0.303  24.637  0.00  0.00    -0.201 NA
BRANCH  18  19
ATOM     19  C   UNL     1      -4.418  -0.478  24.779  0.00  0.00    +0.141 C 
BRANCH  19  20
ATOM     20  C   UNL     1      -3.863  -1.086  24.731  0.00  0.00    -0.000 A 
ATOM     21  C   UNL     1      -3.997  -1.727  24.228  0.00  0.00    -0.000 A 
ATOM     22  C   UNL     1      -3.442  -2.336  24.180  0.00  0.00    +0.029 A 
ATOM     23  C   UNL     1      -2.755  -2.304  24.634  0.00  0.00    +0.140 A 
ATOM     24  F   UNL     1      -2.200  -2.913  24.586  0.00  0.00    -0.204 F 
ATOM     25  C   UNL     1      -2.621  -1.664  25.137  0.00  0.00    +0.029 A 
ATOM     26  C   UNL     1      -3.176  -1.054  25.185  0.00  0.00    -0.000 A 
ENDBRANCH  19  20
ENDBRANCH  18  19
ENDBRANCH  15  16
ENDBRANCH  14  15
TORSDOF 9
ENDMDL
MODEL 2
REMARK VINA RESULT:     -10.8      1.422      4.476
REMARK  Name = 
REMARK  9 active torsions:
REMARK  status: ('A' for Active; 'I' for Inactive)
REMARK    1  A    between atoms: C_2  and  C_3
REMARK    2  A    between atoms: C_3  and  C_4
REMARK    3  A    between atoms: C_4  and  C_5
REMARK    4  A    between atoms: C_7  and  C_8
REMARK    5  A    between atoms: C_8  and  C_9
REMARK    6  A    between atoms: C_14  and  C_15
REMARK    7  A    between atoms: C_15  and  C_16
REMARK    8  A    between atoms: N_18  and  C_19
REMARK    9  A    between atoms: C_19  and  C_20
REMARK                            x       y       z     vdW  Elec       q    Type
REMARK                         _______ _______ _______ _____ _____    ______ ____
ROOT
ATOM      9  C   UNL     1      -4.810   1.972  24.757  0.00  0.00    +0.024 C 
ATOM     10  C   UNL     1      -5.430   1.724  25.240  0.00  0.00    +0.089 C 
ATOM     11  N   UNL     1      -5.824   2.269  25.718  0.00  0.00    -0.218 NA
ATOM     12  C   UNL     1      -5.598   3.062  25.713  0.00  0.00    +0.089 C 
ATOM     13  C   UNL     1      -4.977   3.311  25.230  0.00  0.00    +0.019 C 
ATOM     14  C   UNL     1      -4.583   2.766  24.752  0.00  0.00    +0.012 C 
ENDROOT
BRANCH   9   8
ATOM      8  C   UNL     1      -4.416   1.428  24.279  0.00  0.00    +0.051 C 
BRANCH   8   7
ATOM      5  C   UNL     1      -4.257  -0.687  24.518  0.00  0.00    +0.154 A 
ATOM      6  C   UNL     1      -4.370  -0.022  24.043  0.00  0.00    +0.054 A 
ATOM      7  C   UNL     1      -4.332   0.646  24.527  0.00  0.00    +0.100 A 
ATOM     27  N   UNL     1      -4.195   0.394  25.301  0.00  0.00    -0.082 NA
ATOM     28  O   UNL     1      -4.149  -0.430  25.295  0.00  0.00    -0.358 OA
BRANCH   5   4
ATOM      4  C   UNL     1      -4.253  -1.471  24.262  0.00  0.00    +0.067 C 
BRANCH   4   3
ATOM      3  C   UNL     1      -3.671  -1.990  24.532  0.00  0.00    +0.008 C 
BRANCH   3   2
ATOM      1  C   UNL     1      -3.196  -3.334  24.646  0.00  0.00    +0.000 C 
ATOM      2  C   UNL     1      -3.650  -2.767  24.253  0.00  0.00    +0.000 C 
ENDBRANCH   3   2
ENDBRANCH   4   3
ENDBRANCH   5   4
ENDBRANCH   8   7
ENDBRANCH   9   8
BRANCH  14  15
ATOM     15  C   UNL     1      -3.962   3.015  24.268  0.00  0.00    +0.087 C 
BRANCH  15  16
ATOM     16  C   UNL     1      -3.372   3.504  24.574  0.00  0.00    +0.242 C 
ATOM     17  O   UNL     1      -3.528   4.302  24.711  0.00  0.00    -0.273 OA
ATOM     18  N   UNL     1      -2.626   3.194  24.741  0.00  0.00    -0.201 NA
BRANCH  18  19
ATOM     19  C   UNL     1      -2.036   3.683  25.047  0.00  0.00    +0.141 C 
BRANCH  19  20
ATOM     20  C   UNL     1      -1.327   3.356  25.313  0.00  0.00    -0.000 A 
ATOM     21  C   UNL     1      -0.676   3.317  24.807  0.00  0.00    -0.000 A 
ATOM     22  C   UNL     1       0.033   2.990  25.073  0.00  0.00    +0.029 A 
ATOM     23  C   UNL     1       0.092   2.703  25.843  0.00  0.00    +0.140 A 
ATOM     24  F   UNL     1       0.802   2.375  26.109  0.00  0.00    -0.204 F 
ATOM     25  C   UNL     1      -0.558   2.742  26.349  0.00  0.00    +0.029 A 
ATOM     26  C   UNL     1      -1.268   3.069  26.083  0.00  0.00    -0.000 A 
ENDBRANCH  19  20
ENDBRANCH  18  19
ENDBRANCH  15  16
ENDBRANCH  14  15
TORSDOF 9
ENDMDL
MODEL 3
REMARK VINA RESULT:     -10.8      1.482      1.924
REMARK  Name = 
REMARK  9 active torsions:
REMARK  status: ('A' for Active; 'I' for Inactive)
REMARK    1  A    between atoms: C_2  and  C_3
REMARK    2  A    between atoms: C_3  and  C_4
REMARK    3  A    between atoms: C_4  and  C_5
REMARK    4  A    between atoms: C_7  and  C_8
REMARK    5  A    between atoms: C_8  and  C_9
REMARK    6  A    between atoms: C_14  and  C_15
REMARK    7  A    between atoms: C_15  and  C_16
REMARK    8  A    between atoms: N_18  and  C_19
REMARK    9  A    between atoms: C_19  and  C_20
REMARK                            x       y       z     vdW  Elec       q    Type
REMARK                         _______ _______ _______ _____ _____    ______ ____
ROOT
ATOM      9  C   UNL     1      -3.006   3.153  24.642  0.00  0.00    +0.024 C 
ATOM     10  C   UNL     1      -2.716   3.709  25.178  0.00  0.00    +0.089 C 
ATOM     11  N   UNL     1      -3.174   3.939  25.823  0.00  0.00    -0.218 NA
ATOM     12  C   UNL     1      -3.924   3.613  25.934  0.00  0.00    +0.089 C 
ATOM     13  C   UNL     1      -4.215   3.057  25.399  0.00  0.00    +0.019 C 
ATOM     14  C   UNL     1      -3.756   2.826  24.753  0.00  0.00    +0.012 C 
ENDROOT
BRANCH   9   8
ATOM      8  C   UNL     1      -2.548   2.923  23.997  0.00  0.00    +0.051 C 
BRANCH   8   7
ATOM      5  C   UNL     1      -0.669   1.926  24.187  0.00  0.00    +0.154 A 
ATOM      6  C   UNL     1      -1.477   1.915  24.020  0.00  0.00    +0.054 A 
ATOM      7  C   UNL     1      -1.766   2.683  24.110  0.00  0.00    +0.100 A 
ATOM     27  N   UNL     1      -1.137   3.169  24.333  0.00  0.00    -0.082 NA
ATOM     28  O   UNL     1      -0.459   2.701  24.380  0.00  0.00    -0.358 OA
BRANCH   5   4
ATOM      4  C   UNL     1      -0.161   1.277  24.164  0.00  0.00    +0.067 C 
BRANCH   4   3
ATOM      3  C   UNL     1      -0.469   0.511  24.161  0.00  0.00    +0.008 C 
BRANCH   3   2
ATOM      1  C   UNL     1      -0.160  -0.880  24.262  0.00  0.00    +0.000 C 
ATOM      2  C   UNL     1       0.018  -0.128  23.973  0.00  0.00    +0.000 C 
ENDBRANCH   3   2
ENDBRANCH   4   3
ENDBRANCH   5   4
ENDBRANCH   8   7
ENDBRANCH   9   8
BRANCH  14  15
ATOM     15  C   UNL     1      -4.047   2.269  24.217  0.00  0.00    +0.087 C 
BRANCH  15  16
ATOM     16  C   UNL     1      -4.483   1.624  24.490  0.00  0.00    +0.242 C 
ATOM     17  O   UNL     1      -5.252   1.732  24.768  0.00  0.00    -0.273 OA
ATOM     18  N   UNL     1      -4.148   0.870  24.484  0.00  0.00    -0.201 NA
BRANCH  18  19
ATOM     19  C   UNL     1      -4.583   0.224  24.757  0.00  0.00    +0.141 C 
BRANCH  19  20
ATOM     20  C   UNL     1      -4.238  -0.525  24.781  0.00  0.00    -0.000 A 
ATOM     21  C   UNL     1      -3.840  -0.774  25.460  0.00  0.00    -0.000 A 
ATOM     22  C   UNL     1      -3.495  -1.523  25.484  0.00  0.00    +0.029 A 
ATOM     23  C   UNL     1      -3.546  -2.022  24.830  0.00  0.00    +0.140 A 
ATOM     24  F   UNL     1      -3.200  -2.771  24.854  0.00  0.00    -0.204 F 
ATOM     25  C   UNL     1      -3.943  -1.773  24.151  0.00  0.00    +0.029 A 
ATOM     26  C   UNL     1      -4.289  -1.024  24.127  0.00  0.00    -0.000 A 
ENDBRANCH  19  20
ENDBRANCH  18  19
ENDBRANCH  15  16
ENDBRANCH  14  15
TORSDOF 9
ENDMDL
MODEL 4
REMARK VINA RESULT:     -10.7      1.569      3.401
REMARK  Name = 
REMARK  9 active torsions:
REMARK  status: ('A' for Active; 'I' for Inactive)
REMARK    1  A    between atoms: C_2  and  C_3
REMARK    2  A    between atoms: C_3  and  C_4
REMARK    3  A    between atoms: C_4  and  C_5
REMARK    4  A    between atoms: C_7  and  C_8
REMARK    5  A    between atoms: C_8  and  C_9
REMARK    6  A    between atoms: C_14  and  C_15
REMARK    7  A    between atoms: C_15  and  C_16
REMARK    8  A    between atoms: N_18  and  C_19
REMARK    9  A    between atoms: C_19  and  C_20
REMARK                            x       y       z     vdW  Elec       q    Type
REMARK                         _______ _______ _______ _____ _____    ______ ____
ROOT
ATOM      9  C   UNL     1      -1.360   2.572  24.982  0.00  0.00    +0.024 C 
ATOM     10  C   UNL     1      -1.182   3.156  25.537  0.00  0.00    +0.089 C 
ATOM     11  N   UNL     1      -0.591   3.026  26.098  0.00  0.00    -0.218 NA
ATOM     12  C   UNL     1      -0.178   2.312  26.104  0.00  0.00    +0.089 C 
ATOM     13  C   UNL     1      -0.356   1.727  25.549  0.00  0.00    +0.019 C 
ATOM     14  C   UNL     1      -0.947   1.857  24.988  0.00  0.00    +0.012 C 
ENDROOT
BRANCH   9   8
ATOM      8  C   UNL     1      -1.951   2.702  24.422  0.00  0.00    +0.051 C 
BRANCH   8   7
ATOM      5  C   UNL     1      -3.906   3.329  25.007  0.00  0.00    +0.154 A 
ATOM      6  C   UNL     1      -3.363   2.733  24.827  0.00  0.00    +0.054 A 
ATOM      7  C   UNL     1      -2.645   3.092  24.636  0.00  0.00    +0.100 A 
ATOM     27  N   UNL     1      -2.743   3.910  24.698  0.00  0.00    -0.082 NA
ATOM     28  O   UNL     1      -3.522   4.056  24.926  0.00  0.00    -0.358 OA
BRANCH   5   4
ATOM      4  C   UNL     1      -4.692   3.218  25.227  0.00  0.00    +0.067 C 
BRANCH   4   3
ATOM      3  C   UNL     1      -5.070   2.503  25.061  0.00  0.00    +0.008 C 
BRANCH   3   2
ATOM      1  C   UNL     1      -6.237   1.679  25.123  0.00  0.00    +0.000 C 
ATOM      2  C   UNL     1      -5.836   2.367  25.339  0.00  0.00    +0.000 C 
ENDBRANCH   3   2
ENDBRANCH   4   3
ENDBRANCH   5   4
ENDBRANCH   8   7
ENDBRANCH   9   8
BRANCH  14  15
ATOM     15  C   UNL     1      -1.125   1.273  24.433  0.00  0.00    +0.087 C 
BRANCH  15  16
ATOM     16  C   UNL     1      -0.974   0.481  24.606  0.00  0.00    +0.242 C 
ATOM     17  O   UNL     1      -0.196   0.215  24.681  0.00  0.00    -0.273 OA
ATOM     18  N   UNL     1      -1.601  -0.046  24.705  0.00  0.00    -0.201 NA
BRANCH  18  19
ATOM     19  C   UNL     1      -1.450  -0.839  24.878  0.00  0.00    +0.141 C 
BRANCH  19  20
ATOM     20  C   UNL     1      -2.070  -1.383  24.889  0.00  0.00    -0.000 A 
ATOM     21  C   UNL     1      -2.763  -1.210  25.303  0.00  0.00    -0.000 A 
ATOM     22  C   UNL     1      -3.383  -1.754  25.314  0.00  0.00    +0.029 A 
ATOM     23  C   UNL     1      -3.311  -2.470  24.913  0.00  0.00    +0.140 A 
ATOM     24  F   UNL     1      -3.931  -3.014  24.924  0.00  0.00    -0.204 F 
ATOM     25  C   UNL     1      -2.618  -2.644  24.500  0.00  0.00    +0.029 A 
ATOM     26  C   UNL     1      -1.998  -2.099  24.488  0.00  0.00    -0.000 A 
ENDBRANCH  19  20
ENDBRANCH  18  19
ENDBRANCH  15  16
ENDBRANCH  14  15
TORSDOF 9
ENDMDL
MODEL 5
REMARK VINA RESULT:     -10.6      2.195      4.719
REMARK  Name = 
REMARK  9 active torsions:
REMARK  status: ('A' for Active; 'I' for Inactive)
REMARK    1  A    between atoms: C_2  and  C_3
REMARK    2  A    between atoms: C_3  and  C_4
REMARK    3  A    between atoms: C_4  and  C_5
REMARK    4  A    between atoms: C_7  and  C_8
REMARK    5  A    between atoms: C_8  and  C_9
REMARK    6  A    between atoms: C_14  and  C_15
REMARK    7  A    between atoms: C_15  and  C_16
REMARK    8  A    between atoms: N_18  and  C_19
REMARK    9  A    between atoms: C_19  and  C_20
REMARK                            x       y       z     vdW  Elec       q    Type
REMARK                         _______ _______ _______ _____ _____    ______ ____
ROOT
ATOM      9  C   UNL     1      -0.825   1.725  24.845  0.00  0.00    +0.024 C 
ATOM     10  C   UNL     1      -0.253   1.523  25.404  0.00  0.00    +0.089 C 
ATOM     11  N   UNL     1      -0.058   2.054  26.005  0.00  0.00    -0.218 NA
ATOM     12  C   UNL     1      -0.434   2.786  26.047  0.00  0.00    +0.089 C 
ATOM     13  C   UNL     1      -1.006   2.989  25.488  0.00  0.00    +0.019 C 
ATOM     14  C   UNL     1      -1.202   2.458  24.887  0.00  0.00    +0.012 C 
ENDROOT
BRANCH   9   8
ATOM      8  C   UNL     1      -1.021   1.195  24.245  0.00  0.00    +0.051 C 
BRANCH   8   7
ATOM      5  C   UNL     1      -1.283  -0.874  24.698  0.00  0.00    +0.154 A 
ATOM      6  C   UNL     1      -1.578  -0.106  24.643  0.00  0.00    +0.054 A 
ATOM      7  C   UNL     1      -0.968   0.383  24.378  0.00  0.00    +0.100 A 
ATOM     27  N   UNL     1      -0.295  -0.084  24.270  0.00  0.00    -0.082 NA
ATOM     28  O   UNL     1      -0.491  -0.861  24.468  0.00  0.00    -0.358 OA
BRANCH   5   4
ATOM      4  C   UNL     1      -1.706  -1.539  24.941  0.00  0.00    +0.067 C 
BRANCH   4   3
ATOM      3  C   UNL     1      -2.447  -1.700  24.613  0.00  0.00    +0.008 C 
BRANCH   3   2
ATOM      1  C   UNL     1      -3.564  -2.580  24.468  0.00  0.00    +0.000 C 
ATOM      2  C   UNL     1      -2.873  -2.361  24.864  0.00  0.00    +0.000 C 
ENDBRANCH   3   2
ENDBRANCH   4   3
ENDBRANCH   5   4
ENDBRANCH   8   7
ENDBRANCH   9   8
BRANCH  14  15
ATOM     15  C   UNL     1      -1.775   2.661  24.328  0.00  0.00    +0.087 C 
BRANCH  15  16
ATOM     16  C   UNL     1      -2.424   3.118  24.550  0.00  0.00    +0.242 C 
ATOM     17  O   UNL     1      -2.329   3.923  24.705  0.00  0.00    -0.273 OA
ATOM     18  N   UNL     1      -3.169   2.770  24.617  0.00  0.00    -0.201 NA
BRANCH  18  19
ATOM     19  C   UNL     1      -3.819   3.228  24.840  0.00  0.00    +0.141 C 
BRANCH  19  20
ATOM     20  C   UNL     1      -4.534   2.863  25.030  0.00  0.00    -0.000 A 
ATOM     21  C   UNL     1      -4.976   3.132  25.674  0.00  0.00    -0.000 A 
ATOM     22  C   UNL     1      -5.690   2.766  25.864  0.00  0.00    +0.029 A 
ATOM     23  C   UNL     1      -5.963   2.134  25.412  0.00  0.00    +0.140 A 
ATOM     24  F   UNL     1      -6.679   1.768  25.603  0.00  0.00    -0.204 F 
ATOM     25  C   UNL     1      -5.522   1.865  24.769  0.00  0.00    +0.029 A 
ATOM     26  C   UNL     1      -4.807   2.230  24.578  0.00  0.00    -0.000 A 
ENDBRANCH  19  20
ENDBRANCH  18  19
ENDBRANCH  15  16
ENDBRANCH  14  15
TORSDOF 9
ENDMDL
MODEL 6
REMARK VINA RESULT:     -10.6      2.351      5.272
REMARK  Name = 
REMARK  9 active torsions:
REMARK  status: ('A' for Active; 'I' for Inactive)
REMARK    1  A    between atoms: C_2  and  C_3
REMARK    2  A    between atoms: C_3  and  C_4
REMARK    3  A    between atoms: C_4  and  C_5
REMARK    4  A    between atoms: C_7  and  C_8
REMARK    5  A    between atoms: C_8  and  C_9
REMARK    6  A    between atoms: C_14  and  C_15
REMARK    7  A    between atoms: C_15  and  C_16
REMARK    8  A    between atoms: N_18  and  C_19
REMARK    9  A    between atoms: C_19  and  C_20
REMARK                            x       y       z     vdW  Elec       q    Type
REMARK                         _______ _______ _______ _____ _____    ______ ____
ROOT
ATOM      9  C   UNL     1      -2.271  -0.093  24.729  0.00  0.00    +0.024 C 
ATOM     10  C   UNL     1      -2.469  -0.713  25.236  0.00  0.00    +0.089 C 
ATOM     11  N   UNL     1      -1.918  -0.994  25.781  0.00  0.00    -0.218 NA
ATOM     12  C   UNL     1      -1.168  -0.654  25.821  0.00  0.00    +0.089 C 
ATOM     13  C   UNL     1      -0.968  -0.034  25.314  0.00  0.00    +0.019 C 
ATOM     14  C   UNL     1      -1.519   0.247  24.769  0.00  0.00    +0.012 C 
ENDROOT
BRANCH   9   8
ATOM      8  C   UNL     1      -2.822   0.187  24.184  0.00  0.00    +0.051 C 
BRANCH   8   7
ATOM      5  C   UNL     1      -4.751   0.885  24.773  0.00  0.00    +0.154 A 
ATOM      6  C   UNL     1      -3.965   1.028  24.565  0.00  0.00    +0.054 A 
ATOM      7  C   UNL     1      -3.606   0.300  24.411  0.00  0.00    +0.100 A 
ATOM     27  N   UNL     1      -4.170  -0.292  24.524  0.00  0.00    -0.082 NA
ATOM     28  O   UNL     1      -4.877   0.069  24.748  0.00  0.00    -0.358 OA
BRANCH   5   4
ATOM      4  C   UNL     1      -5.311   1.456  24.972  0.00  0.00    +0.067 C 
BRANCH   4   3
ATOM      3  C   UNL     1      -5.068   2.213  25.195  0.00  0.00    +0.008 C 
BRANCH   3   2
ATOM      1  C   UNL     1      -5.392   3.521  25.671  0.00  0.00    +0.000 C 
ATOM      2  C   UNL     1      -5.630   2.794  25.360  0.00  0.00    +0.000 C 
ENDBRANCH   3   2
ENDBRANCH   4   3
ENDBRANCH   5   4
ENDBRANCH   8   7
ENDBRANCH   9   8
BRANCH  14  15
ATOM     15  C   UNL     1      -1.320   0.867  24.262  0.00  0.00    +0.087 C 
BRANCH  15  16
ATOM     16  C   UNL     1      -0.808   1.461  24.519  0.00  0.00    +0.242 C 
ATOM     17  O   UNL     1      -0.009   1.294  24.639  0.00  0.00    -0.273 OA
ATOM     18  N   UNL     1      -1.096   2.221  24.655  0.00  0.00    -0.201 NA
BRANCH  18  19
ATOM     19  C   UNL     1      -0.584   2.816  24.913  0.00  0.00    +0.141 C 
BRANCH  19  20
ATOM     20  C   UNL     1      -0.861   3.588  25.001  0.00  0.00    -0.000 A 
ATOM     21  C   UNL     1      -0.468   4.212  24.630  0.00  0.00    -0.000 A 
ATOM     22  C   UNL     1      -0.745   4.984  24.719  0.00  0.00    +0.029 A 
ATOM     23  C   UNL     1      -1.413   5.132  25.178  0.00  0.00    +0.140 A 
ATOM     24  F   UNL     1      -1.690   5.905  25.266  0.00  0.00    -0.204 F 
ATOM     25  C   UNL     1      -1.806   4.509  25.549  0.00  0.00    +0.029 A 
ATOM     26  C   UNL     1      -1.529   3.736  25.460  0.00  0.00    -0.000 A 
ENDBRANCH  19  20
ENDBRANCH  18  19
ENDBRANCH  15  16
ENDBRANCH  14  15
TORSDOF 9
ENDMDL
MODEL 7
REMARK VINA RESULT:     -10.5      2.311      3.947
REMARK  Name = 
REMARK  9 active torsions:
REMARK  status: ('A' for Active; 'I' for Inactive)
REMARK    1  A    between atoms: C_2  and  C_3
REMARK    2  A    between atoms: C_3  and  C_4
REMARK    3  A    between atoms: C_4  and  C_5
REMARK    4  A    between atoms: C_7  and  C_8
REMARK    5  A    between atoms: C_8  and  C_9
REMARK    6  A    between atoms: C_14  and  C_15
REMARK    7  A    between atoms: C_15  and  C_16
REMARK    8  A    between atoms: N_18  and  C_19
REMARK    9  A    between atoms: C_19  and  C_20
REMARK                            x       y       z     vdW  Elec       q    Type
REMARK                         _______ _______ _______ _____ _____    ______ ____
ROOT
ATOM      9  C   UNL     1      -1.529   0.109  24.688  0.00  0.00    +0.024 C 
ATOM     10  C   UNL     1      -0.969  -0.146  25.236  0.00  0.00    +0.089 C 
ATOM     11  N   UNL     1      -1.189  -0.661  25.843  0.00  0.00    -0.218 NA
ATOM     12  C   UNL     1      -1.969  -0.920  25.901  0.00  0.00    +0.089 C 
ATOM     13  C   UNL     1      -2.531  -0.665  25.352  0.00  0.00    +0.019 C 
ATOM     14  C   UNL     1      -2.311  -0.150  24.746  0.00  0.00    +0.012 C 
ENDROOT
BRANCH   9   8
ATOM      8  C   UNL     1      -1.309   0.623  24.082  0.00  0.00    +0.051 C 
BRANCH   8   7
ATOM      5  C   UNL     1      -0.428   2.536  24.425  0.00  0.00    +0.154 A 
ATOM      6  C   UNL     1      -1.075   2.067  24.221  0.00  0.00    +0.054 A 
ATOM      7  C   UNL     1      -0.836   1.278  24.248  0.00  0.00    +0.100 A 
ATOM     27  N   UNL     1      -0.041   1.259  24.469  0.00  0.00    -0.082 NA
ATOM     28  O   UNL     1       0.211   2.036  24.579  0.00  0.00    -0.358 OA
BRANCH   5   4
ATOM      4  C   UNL     1      -0.420   3.360  24.469  0.00  0.00    +0.067 C 
BRANCH   4   3
ATOM      3  C   UNL     1      -0.987   3.754  24.923  0.00  0.00    +0.008 C 
BRANCH   3   2
ATOM      1  C   UNL     1      -1.623   4.974  25.309  0.00  0.00    +0.000 C 
ATOM      2  C   UNL     1      -0.999   4.579  24.940  0.00  0.00    +0.000 C 
ENDBRANCH   3   2
ENDBRANCH   4   3
ENDBRANCH   5   4
ENDBRANCH   8   7
ENDBRANCH   9   8
BRANCH  14  15
ATOM     15  C   UNL     1      -2.872   0.105  24.197  0.00  0.00    +0.087 C 
BRANCH  15  16
ATOM     16  C   UNL     1      -3.655   0.219  24.431  0.00  0.00    +0.242 C 
ATOM     17  O   UNL     1      -4.152  -0.430  24.540  0.00  0.00    -0.273 OA
ATOM     18  N   UNL     1      -3.940   0.983  24.556  0.00  0.00    -0.201 NA
BRANCH  18  19
ATOM     19  C   UNL     1      -4.723   1.097  24.790  0.00  0.00    +0.141 C 
BRANCH  19  20
ATOM     20  C   UNL     1      -4.979   1.847  25.020  0.00  0.00    -0.000 A 
ATOM     21  C   UNL     1      -5.548   1.925  25.613  0.00  0.00    -0.000 A 
ATOM     22  C   UNL     1      -5.804   2.675  25.842  0.00  0.00    +0.029 A 
ATOM     23  C   UNL     1      -5.491   3.346  25.480  0.00  0.00    +0.140 A 
ATOM     24  F   UNL     1      -5.748   4.097  25.710  0.00  0.00    -0.204 F 
ATOM     25  C   UNL     1      -4.923   3.269  24.887  0.00  0.00    +0.029 A 
ATOM     26  C   UNL     1      -4.667   2.518  24.657  0.00  0.00    -0.000 A 
ENDBRANCH  19  20
ENDBRANCH  18  19
ENDBRANCH  15  16
ENDBRANCH  14  15
TORSDOF 9
ENDMDL
MODEL 8
REMARK VINA RESULT:     -10.4      2.253      4.357
REMARK  Name = 
REMARK  9 active torsions:
REMARK  status: ('A' for Active; 'I' for Inactive)
REMARK    1  A    between atoms: C_2  and  C_3
REMARK    2  A    between atoms: C_3  and  C_4
REMARK    3  A    between atoms: C_4  and  C_5
REMARK    4  A    between atoms: C_7  and  C_8
REMARK    5  A    between atoms: C_8  and  C_9
REMARK    6  A    between atoms: C_14  and  C_15
REMARK    7  A    between atoms: C_15  and  C_16
REMARK    8  A    between atoms: N_18  and  C_19
REMARK    9  A    between atoms: C_19  and  C_20
REMARK                            x       y       z     vdW  Elec       q    Type
REMARK                         _______ _______ _______ _____ _____    ______ ____
ROOT
ATOM      9  C   UNL     1      -2.897  -1.418  25.075  0.00  0.00    +0.024 C 
ATOM     10  C   UNL     1      -2.638  -2.073  24.645  0.00  0.00    +0.089 C 
ATOM     11  N   UNL     1      -3.147  -2.444  24.112  0.00  0.00    -0.218 NA
ATOM     12  C   UNL     1      -3.914  -2.161  24.009  0.00  0.00    +0.089 C 
ATOM     13  C   UNL     1      -4.174  -1.506  24.438  0.00  0.00    +0.019 C 
ATOM     14  C   UNL     1      -3.666  -1.134  24.971  0.00  0.00    +0.012 C 
ENDROOT
BRANCH   9   8
ATOM      8  C   UNL     1      -2.389  -1.047  25.608  0.00  0.00    +0.051 C 
BRANCH   8   7
ATOM      5  C   UNL     1      -0.634  -0.049  24.917  0.00  0.00    +0.154 A 
ATOM      6  C   UNL     1      -1.437  -0.046  25.106  0.00  0.00    +0.054 A 
ATOM      7  C   UNL     1      -1.640  -0.804  25.363  0.00  0.00    +0.100 A 
ATOM     27  N   UNL     1      -0.963  -1.275  25.332  0.00  0.00    -0.082 NA
ATOM     28  O   UNL     1      -0.341  -0.808  25.056  0.00  0.00    -0.358 OA
BRANCH   5   4
ATOM      4  C   UNL     1      -0.200   0.594  24.637  0.00  0.00    +0.067 C 
BRANCH   4   3
ATOM      3  C   UNL     1      -0.427   1.363  24.834  0.00  0.00    +0.008 C 
BRANCH   3   2
ATOM      1  C   UNL     1      -0.205   2.773  24.767  0.00  0.00    +0.000 C 
ATOM      2  C   UNL     1      -0.007   2.006  24.533  0.00  0.00    +0.000 C 
ENDBRANCH   3   2
ENDBRANCH   4   3
ENDBRANCH   5   4
ENDBRANCH   8   7
ENDBRANCH   9   8
BRANCH  14  15
ATOM     15  C   UNL     1      -3.925  -0.479  25.401  0.00  0.00    +0.087 C 
BRANCH  15  16
ATOM     16  C   UNL     1      -4.415   0.080  25.044  0.00  0.00    +0.242 C 
ATOM     17  O   UNL     1      -5.131  -0.153  24.706  0.00  0.00    -0.273 OA
ATOM     18  N   UNL     1      -4.188   0.873  25.024  0.00  0.00    -0.201 NA
BRANCH  18  19
ATOM     19  C   UNL     1      -4.678   1.433  24.667  0.00  0.00    +0.141 C 
BRANCH  19  20
ATOM     20  C   UNL     1      -4.411   2.206  24.561  0.00  0.00    -0.000 A 
ATOM     21  C   UNL     1      -4.015   2.414  23.867  0.00  0.00    -0.000 A 
ATOM     22  C   UNL     1      -3.748   3.187  23.761  0.00  0.00    +0.029 A 
ATOM     23  C   UNL     1      -3.876   3.752  24.348  0.00  0.00    +0.140 A 
ATOM     24  F   UNL     1      -3.609   4.526  24.241  0.00  0.00    -0.204 F 
ATOM     25  C   UNL     1      -4.272   3.545  25.041  0.00  0.00    +0.029 A 
ATOM     26  C   UNL     1      -4.540   2.771  25.147  0.00  0.00    -0.000 A 
ENDBRANCH  19  20
ENDBRANCH  18  19
ENDBRANCH  15  16
ENDBRANCH  14  15
TORSDOF 9
ENDMDL
