REMARK  Name = 
REMARK  5 active torsions:
REMARK  status: ('A' for Active; 'I' for Inactive)
REMARK    1  A    between atoms: N_3  and  C_4
REMARK    2  A    between atoms: N_10  and  C_11
REMARK    3  A    between atoms: C_21  and  C_23
REMARK    4  A    between atoms: C_23  and  O_24
REMARK    5  A    between atoms: O_24  and  C_25
REMARK                            x       y       z     vdW  Elec       q    Type
REMARK                         _______ _______ _______ _____ _____    ______ ____
ROOT
ATOM     11  C   UNL     1      -1.296  -1.150   0.000  0.00  0.00    +0.131 A 
ATOM     12  C   UNL     1      -1.167  -0.335   0.000  0.00  0.00    +0.023 A 
ATOM     13  C   UNL     1      -0.397  -0.039   0.000  0.00  0.00    +0.014 A 
ATOM     14  C   UNL     1       0.244  -0.558   0.000  0.00  0.00    +0.041 A 
ATOM     15  C   UNL     1       1.163  -0.557   0.000  0.00  0.00    +0.058 C 
ATOM     16  C   UNL     1       1.713  -0.121   0.000  0.00  0.00    +0.011 C 
ATOM     17  C   UNL     1       1.582  -0.925   0.000  0.00  0.00    +0.043 C 
ATOM     18  C   UNL     1       1.629  -1.912   0.000  0.00  0.00    +0.095 C 
ATOM     19  N   UNL     1       0.813  -2.091   0.000  0.00  0.00    -0.276 N 
ATOM     20  C   UNL     1       1.225  -1.510   0.000  0.00  0.00    +0.099 C 
ATOM     21  C   UNL     1       0.125  -2.547   0.000  0.00  0.00    +0.270 C 
ATOM     22  O   UNL     1       0.176  -3.370   0.000  0.00  0.00    -0.271 OA
ATOM     31  C   UNL     1       0.622  -0.936   0.000  0.00  0.00    +0.110 C 
ATOM     32  N   UNL     1       0.115  -1.373   0.000  0.00  0.00    -0.298 N 
ATOM     33  C   UNL     1      -0.655  -1.669   0.000  0.00  0.00    +0.276 A 
ATOM     34  O   UNL     1      -1.238  -2.252   0.000  0.00  0.00    -0.266 OA
ENDROOT
BRANCH  11  10
ATOM      1  O   UNL     1      -2.578  -0.111   0.000  0.00  0.00    -0.249 OA
ATOM      2  C   UNL     1      -2.707  -0.926   0.000  0.00  0.00    +0.344 C 
ATOM      3  N   UNL     1      -3.478  -1.222   0.000  0.00  0.00    -0.189 NA
ATOM     10  N   UNL     1      -2.066  -1.445   0.000  0.00  0.00    -0.156 NA
BRANCH   3   4
ATOM      4  C   UNL     1      -4.119  -0.703   0.000  0.00  0.00    +0.097 C 
ATOM      5  C   UNL     1      -4.889  -0.999   0.000  0.00  0.00    +0.022 C 
ATOM      6  C   UNL     1      -5.530  -0.480   0.000  0.00  0.00    +0.002 C 
ATOM      7  C   UNL     1      -5.401   0.335   0.000  0.00  0.00    +0.000 C 
ATOM      8  C   UNL     1      -4.631   0.631   0.000  0.00  0.00    +0.002 C 
ATOM      9  C   UNL     1      -3.990   0.112   0.000  0.00  0.00    +0.022 C 
ENDBRANCH   3   4
ENDBRANCH  11  10
BRANCH  21  23
ATOM     23  C   UNL     1      -0.614  -2.179   0.000  0.00  0.00    +0.290 C 
BRANCH  23  24
ATOM     24  O   UNL     1      -1.301  -2.635   0.000  0.00  0.00    -0.466 OA
BRANCH  24  25
ATOM     25  C   UNL     1      -1.251  -3.458   0.000  0.00  0.00    +0.139 A 
ATOM     26  C   UNL     1      -0.512  -3.826   0.000  0.00  0.00    +0.037 A 
ATOM     27  C   UNL     1      -0.461  -4.650   0.000  0.00  0.00    +0.003 A 
ATOM     28  C   UNL     1      -1.149  -5.105   0.000  0.00  0.00    +0.000 A 
ATOM     29  C   UNL     1      -1.888  -4.737   0.000  0.00  0.00    +0.003 A 
ATOM     30  C   UNL     1      -1.938  -3.914   0.000  0.00  0.00    +0.037 A 
ENDBRANCH  24  25
ENDBRANCH  23  24
ENDBRANCH  21  23
TORSDOF 5
