REMARK  Name = 
REMARK  4 active torsions:
REMARK  status: ('A' for Active; 'I' for Inactive)
REMARK    1  A    between atoms: N_4  and  C_5
REMARK    2  A    between atoms: C_8  and  S_11
REMARK    3  A    between atoms: S_11  and  N_14
REMARK    4  A    between atoms: N_14  and  C_15
REMARK                            x       y       z     vdW  Elec       q    Type
REMARK                         _______ _______ _______ _____ _____    ______ ____
ROOT
ATOM     11  S   UNL     1       0.208  -1.879   0.000  0.00  0.00    +0.077 S 
ATOM     12  O   UNL     1       0.379  -2.686   0.000  0.00  0.00    -0.152 OA
ATOM     13  O   UNL     1       0.036  -1.072   0.000  0.00  0.00    -0.152 OA
ENDROOT
BRANCH  11   8
ATOM      5  C   UNL     1      -2.213  -2.393   0.000  0.00  0.00    +0.073 A 
ATOM      6  C   UNL     1      -1.958  -1.609   0.000  0.00  0.00    +0.018 A 
ATOM      7  C   UNL     1      -1.151  -1.437   0.000  0.00  0.00    +0.021 A 
ATOM      8  C   UNL     1      -0.599  -2.050   0.000  0.00  0.00    +0.124 A 
ATOM      9  C   UNL     1      -0.854  -2.835   0.000  0.00  0.00    +0.021 A 
ATOM     10  C   UNL     1      -1.661  -3.006   0.000  0.00  0.00    +0.018 A 
BRANCH   5   4
ATOM      1  C   UNL     1      -4.082  -3.521   0.000  0.00  0.00    +0.097 C 
ATOM      2  C   UNL     1      -3.275  -3.349   0.000  0.00  0.00    +0.246 C 
ATOM      3  O   UNL     1      -2.723  -3.962   0.000  0.00  0.00    -0.273 OA
ATOM      4  N   UNL     1      -3.020  -2.565   0.000  0.00  0.00    -0.179 NA
ENDBRANCH   5   4
ENDBRANCH  11   8
BRANCH  11  14
ATOM     14  N   UNL     1       1.015  -1.707   0.000  0.00  0.00    -0.074 NA
BRANCH  14  15
ATOM     15  C   UNL     1       1.270  -0.922   0.000  0.00  0.00    +0.157 C 
ATOM     16  C   UNL     1       0.785  -0.255   0.000  0.00  0.00    +0.164 C 
ATOM     17  O   UNL     1       1.270   0.412   0.000  0.00  0.00    -0.349 OA
ATOM     18  C   UNL     1       2.054   0.158   0.000  0.00  0.00    +0.176 C 
ATOM     19  C   UNL     1       2.839   0.412   0.000  0.00  0.00    +0.211 C 
ATOM     20  O   UNL     1       3.094   1.197   0.000  0.00  0.00    -0.218 OA
ATOM     21  C   UNL     1       3.324  -0.255   0.000  0.00  0.00    +0.178 C 
ATOM     22  O   UNL     1       2.839  -0.922   0.000  0.00  0.00    -0.349 OA
ATOM     23  C   UNL     1       2.054  -0.667   0.000  0.00  0.00    +0.165 C 
ENDBRANCH  14  15
ENDBRANCH  11  14
TORSDOF 4
