MODEL 1
REMARK VINA RESULT:     -11.7      0.000      0.000
REMARK  Name = 
REMARK  4 active torsions:
REMARK  status: ('A' for Active; 'I' for Inactive)
REMARK    1  A    between atoms: C_3  and  C_4
REMARK    2  A    between atoms: C_6  and  C_11
REMARK    3  A    between atoms: C_14  and  N_15
REMARK    4  A    between atoms: C_16  and  C_18
REMARK                            x       y       z     vdW  Elec       q    Type
REMARK                         _______ _______ _______ _____ _____    ______ ____
ROOT
ATOM     11  C   UNL     1      -1.706   2.143  24.695  0.00  0.00    +0.006 A 
ATOM     12  C   UNL     1      -1.529   1.595  25.285  0.00  0.00    -0.001 A 
ATOM     13  C   UNL     1      -1.726   0.800  25.184  0.00  0.00    +0.016 A 
ATOM     14  C   UNL     1      -2.101   0.553  24.491  0.00  0.00    +0.074 A 
ATOM     25  C   UNL     1      -2.278   1.102  23.900  0.00  0.00    +0.016 A 
ATOM     26  C   UNL     1      -2.080   1.896  24.002  0.00  0.00    -0.001 A 
ENDROOT
BRANCH  11   6
ATOM      1  C   UNL     1      -2.380   4.759  25.626  0.00  0.00    +0.115 C 
ATOM      2  N   UNL     1      -1.846   4.246  25.261  0.00  0.00    -0.272 N 
ATOM      3  C   UNL     1      -2.043   3.452  25.160  0.00  0.00    +0.140 C 
ATOM      6  C   UNL     1      -1.509   2.938  24.796  0.00  0.00    +0.159 C 
ATOM      7  O   UNL     1      -0.780   3.219  24.533  0.00  0.00    -0.341 OA
ATOM      8  C   UNL     1      -0.584   4.013  24.634  0.00  0.00    +0.227 C 
ATOM      9  C   UNL     1      -1.117   4.527  24.999  0.00  0.00    +0.256 C 
ATOM     10  O   UNL     1      -0.920   5.322  25.100  0.00  0.00    -0.272 OA
BRANCH   3   4
ATOM      4  C   UNL     1      -2.772   3.170  25.423  0.00  0.00    +0.205 C 
ATOM      5  O   UNL     1      -3.382   3.698  25.596  0.00  0.00    -0.218 OA
ENDBRANCH   3   4
ENDBRANCH  11   6
BRANCH  14  15
ATOM     15  N   UNL     1      -2.298  -0.241  24.389  0.00  0.00    -0.175 NA
ATOM     16  C   UNL     1      -3.004  -0.533  24.702  0.00  0.00    +0.269 C 
ATOM     17  O   UNL     1      -3.512  -0.032  25.116  0.00  0.00    -0.268 OA
BRANCH  16  18
ATOM     18  C   UNL     1      -3.202  -1.328  24.599  0.00  0.00    +0.051 A 
ATOM     19  C   UNL     1      -2.682  -1.918  24.852  0.00  0.00    +0.004 A 
ATOM     20  C   UNL     1      -2.880  -2.712  24.750  0.00  0.00    +0.000 A 
ATOM     21  C   UNL     1      -3.595  -2.917  24.396  0.00  0.00    -0.000 A 
ATOM     22  C   UNL     1      -4.114  -2.328  24.143  0.00  0.00    -0.004 A 
ATOM     23  C   UNL     1      -3.917  -1.533  24.245  0.00  0.00    -0.017 A 
ATOM     24  C   UNL     1      -4.436  -0.944  23.992  0.00  0.00    +0.031 C 
ENDBRANCH  16  18
ENDBRANCH  14  15
TORSDOF 4
ENDMDL
MODEL 2
REMARK VINA RESULT:     -11.6      1.225      5.450
REMARK  Name = 
REMARK  4 active torsions:
REMARK  status: ('A' for Active; 'I' for Inactive)
REMARK    1  A    between atoms: C_3  and  C_4
REMARK    2  A    between atoms: C_6  and  C_11
REMARK    3  A    between atoms: C_14  and  N_15
REMARK    4  A    between atoms: C_16  and  C_18
REMARK                            x       y       z     vdW  Elec       q    Type
REMARK                         _______ _______ _______ _____ _____    ______ ____
ROOT
ATOM     11  C   UNL     1      -3.235   0.197  24.354  0.00  0.00    +0.006 A 
ATOM     12  C   UNL     1      -2.840   0.578  23.739  0.00  0.00    -0.001 A 
ATOM     13  C   UNL     1      -2.648   1.378  23.805  0.00  0.00    +0.016 A 
ATOM     14  C   UNL     1      -2.851   1.796  24.486  0.00  0.00    +0.074 A 
ATOM     25  C   UNL     1      -3.247   1.415  25.102  0.00  0.00    +0.016 A 
ATOM     26  C   UNL     1      -3.439   0.616  25.035  0.00  0.00    -0.001 A 
ENDROOT
BRANCH  11   6
ATOM      1  C   UNL     1      -2.540  -2.552  24.711  0.00  0.00    +0.115 C 
ATOM      2  N   UNL     1      -3.079  -1.977  24.468  0.00  0.00    -0.272 N 
ATOM      3  C   UNL     1      -2.888  -1.178  24.532  0.00  0.00    +0.140 C 
ATOM      6  C   UNL     1      -3.428  -0.603  24.289  0.00  0.00    +0.159 C 
ATOM      7  O   UNL     1      -4.159  -0.828  23.981  0.00  0.00    -0.341 OA
ATOM      8  C   UNL     1      -4.350  -1.627  23.916  0.00  0.00    +0.227 C 
ATOM      9  C   UNL     1      -3.810  -2.202  24.160  0.00  0.00    +0.256 C 
ATOM     10  O   UNL     1      -4.003  -3.002  24.094  0.00  0.00    -0.272 OA
BRANCH   3   4
ATOM      4  C   UNL     1      -2.156  -0.952  24.841  0.00  0.00    +0.205 C 
ATOM      5  O   UNL     1      -1.529  -1.487  24.850  0.00  0.00    -0.218 OA
ENDBRANCH   3   4
ENDBRANCH  11   6
BRANCH  14  15
ATOM     15  N   UNL     1      -2.659   2.596  24.552  0.00  0.00    -0.175 NA
ATOM     16  C   UNL     1      -1.987   2.825  24.973  0.00  0.00    +0.269 C 
ATOM     17  O   UNL     1      -1.507   2.254  25.327  0.00  0.00    -0.268 OA
BRANCH  16  18
ATOM     18  C   UNL     1      -1.795   3.624  25.040  0.00  0.00    +0.051 A 
ATOM     19  C   UNL     1      -2.367   4.166  25.288  0.00  0.00    +0.004 A 
ATOM     20  C   UNL     1      -2.175   4.965  25.354  0.00  0.00    +0.000 A 
ATOM     21  C   UNL     1      -1.414   5.224  25.173  0.00  0.00    -0.000 A 
ATOM     22  C   UNL     1      -0.842   4.683  24.925  0.00  0.00    -0.004 A 
ATOM     23  C   UNL     1      -1.034   3.882  24.858  0.00  0.00    -0.017 A 
ATOM     24  C   UNL     1      -0.463   3.342  24.610  0.00  0.00    +0.031 C 
ENDBRANCH  16  18
ENDBRANCH  14  15
TORSDOF 4
ENDMDL
MODEL 3
REMARK VINA RESULT:     -10.1      1.831      2.711
REMARK  Name = 
REMARK  4 active torsions:
REMARK  status: ('A' for Active; 'I' for Inactive)
REMARK    1  A    between atoms: C_3  and  C_4
REMARK    2  A    between atoms: C_6  and  C_11
REMARK    3  A    between atoms: C_14  and  N_15
REMARK    4  A    between atoms: C_16  and  C_18
REMARK                            x       y       z     vdW  Elec       q    Type
REMARK                         _______ _______ _______ _____ _____    ______ ____
ROOT
ATOM     11  C   UNL     1      -4.644   1.577  24.978  0.00  0.00    +0.006 A 
ATOM     12  C   UNL     1      -4.776   0.960  25.509  0.00  0.00    -0.001 A 
ATOM     13  C   UNL     1      -4.528   0.195  25.325  0.00  0.00    +0.016 A 
ATOM     14  C   UNL     1      -4.146   0.048  24.608  0.00  0.00    +0.074 A 
ATOM     25  C   UNL     1      -4.013   0.665  24.076  0.00  0.00    +0.016 A 
ATOM     26  C   UNL     1      -4.262   1.429  24.262  0.00  0.00    -0.001 A 
ENDROOT
BRANCH  11   6
ATOM      1  C   UNL     1      -4.024   4.289  25.633  0.00  0.00    +0.115 C 
ATOM      2  N   UNL     1      -4.582   3.698  25.490  0.00  0.00    -0.272 N 
ATOM      3  C   UNL     1      -4.334   2.933  25.306  0.00  0.00    +0.140 C 
ATOM      6  C   UNL     1      -4.892   2.342  25.163  0.00  0.00    +0.159 C 
ATOM      7  O   UNL     1      -5.697   2.516  25.205  0.00  0.00    -0.341 OA
ATOM      8  C   UNL     1      -5.945   3.280  25.389  0.00  0.00    +0.227 C 
ATOM      9  C   UNL     1      -5.387   3.872  25.532  0.00  0.00    +0.256 C 
ATOM     10  O   UNL     1      -5.635   4.637  25.717  0.00  0.00    -0.272 OA
BRANCH   3   4
ATOM      4  C   UNL     1      -3.529   2.759  25.264  0.00  0.00    +0.205 C 
ATOM      5  O   UNL     1      -2.979   3.253  25.630  0.00  0.00    -0.218 OA
ENDBRANCH   3   4
ENDBRANCH  11   6
BRANCH  14  15
ATOM     15  N   UNL     1      -3.897  -0.717  24.422  0.00  0.00    -0.175 NA
ATOM     16  C   UNL     1      -3.282  -1.064  24.848  0.00  0.00    +0.269 C 
ATOM     17  O   UNL     1      -2.916  -0.648  25.459  0.00  0.00    -0.268 OA
BRANCH  16  18
ATOM     18  C   UNL     1      -3.033  -1.828  24.663  0.00  0.00    +0.051 A 
ATOM     19  C   UNL     1      -3.590  -2.427  24.548  0.00  0.00    +0.004 A 
ATOM     20  C   UNL     1      -3.341  -3.191  24.362  0.00  0.00    +0.000 A 
ATOM     21  C   UNL     1      -2.537  -3.357  24.291  0.00  0.00    -0.000 A 
ATOM     22  C   UNL     1      -1.980  -2.760  24.406  0.00  0.00    -0.004 A 
ATOM     23  C   UNL     1      -2.229  -1.995  24.592  0.00  0.00    -0.017 A 
ATOM     24  C   UNL     1      -1.672  -1.397  24.706  0.00  0.00    +0.031 C 
ENDBRANCH  16  18
ENDBRANCH  14  15
TORSDOF 4
ENDMDL
MODEL 4
REMARK VINA RESULT:      -9.9      2.084      5.277
REMARK  Name = 
REMARK  4 active torsions:
REMARK  status: ('A' for Active; 'I' for Inactive)
REMARK    1  A    between atoms: C_3  and  C_4
REMARK    2  A    between atoms: C_6  and  C_11
REMARK    3  A    between atoms: C_14  and  N_15
REMARK    4  A    between atoms: C_16  and  C_18
REMARK                            x       y       z     vdW  Elec       q    Type
REMARK                         _______ _______ _______ _____ _____    ______ ____
ROOT
ATOM     11  C   UNL     1      -3.603  -0.638  24.622  0.00  0.00    +0.006 A 
ATOM     12  C   UNL     1      -3.953  -0.455  25.346  0.00  0.00    -0.001 A 
ATOM     13  C   UNL     1      -4.350   0.261  25.443  0.00  0.00    +0.016 A 
ATOM     14  C   UNL     1      -4.398   0.795  24.816  0.00  0.00    +0.074 A 
ATOM     25  C   UNL     1      -4.047   0.612  24.091  0.00  0.00    +0.016 A 
ATOM     26  C   UNL     1      -3.650  -0.105  23.995  0.00  0.00    -0.001 A 
ENDROOT
BRANCH  11   6
ATOM      1  C   UNL     1      -1.183  -2.156  24.708  0.00  0.00    +0.115 C 
ATOM      2  N   UNL     1      -1.994  -2.113  24.568  0.00  0.00    -0.272 N 
ATOM      3  C   UNL     1      -2.392  -1.398  24.665  0.00  0.00    +0.140 C 
ATOM      6  C   UNL     1      -3.205  -1.355  24.525  0.00  0.00    +0.159 C 
ATOM      7  O   UNL     1      -3.618  -2.027  24.287  0.00  0.00    -0.341 OA
ATOM      8  C   UNL     1      -3.220  -2.743  24.190  0.00  0.00    +0.227 C 
ATOM      9  C   UNL     1      -2.408  -2.786  24.330  0.00  0.00    +0.256 C 
ATOM     10  O   UNL     1      -2.010  -3.502  24.233  0.00  0.00    -0.272 OA
BRANCH   3   4
ATOM      4  C   UNL     1      -1.979  -0.724  24.903  0.00  0.00    +0.205 C 
ATOM      5  O   UNL     1      -1.248  -0.798  25.277  0.00  0.00    -0.218 OA
ENDBRANCH   3   4
ENDBRANCH  11   6
BRANCH  14  15
ATOM     15  N   UNL     1      -4.795   1.511  24.912  0.00  0.00    -0.175 NA
ATOM     16  C   UNL     1      -4.386   2.176  25.182  0.00  0.00    +0.269 C 
ATOM     17  O   UNL     1      -3.581   2.123  25.356  0.00  0.00    -0.268 OA
BRANCH  16  18
ATOM     18  C   UNL     1      -4.784   2.892  25.278  0.00  0.00    +0.051 A 
ATOM     19  C   UNL     1      -5.551   2.900  25.583  0.00  0.00    +0.004 A 
ATOM     20  C   UNL     1      -5.948   3.617  25.679  0.00  0.00    +0.000 A 
ATOM     21  C   UNL     1      -5.580   4.324  25.471  0.00  0.00    -0.000 A 
ATOM     22  C   UNL     1      -4.813   4.317  25.168  0.00  0.00    -0.004 A 
ATOM     23  C   UNL     1      -4.415   3.600  25.071  0.00  0.00    -0.017 A 
ATOM     24  C   UNL     1      -3.648   3.592  24.767  0.00  0.00    +0.031 C 
ENDBRANCH  16  18
ENDBRANCH  14  15
TORSDOF 4
ENDMDL
