MODEL 1
REMARK VINA RESULT:     -10.4      0.000      0.000
REMARK  Name = 
REMARK  3 active torsions:
REMARK  status: ('A' for Active; 'I' for Inactive)
REMARK    1  A    between atoms: C_7  and  C_10
REMARK    2  A    between atoms: C_21  and  N_27
REMARK    3  A    between atoms: C_28  and  C_30
REMARK                            x       y       z     vdW  Elec       q    Type
REMARK                         _______ _______ _______ _____ _____    ______ ____
ROOT
ATOM     10  C   UNL     1       0.092   0.435  23.572  0.00  0.00    +0.226 C 
ATOM     11  O   UNL     1      -0.378   1.102  23.452  0.00  0.00    -0.275 OA
ATOM     12  N   UNL     1      -0.207  -0.211  23.990  0.00  0.00    -0.272 N 
ATOM     13  C   UNL     1       0.198  -0.913  24.152  0.00  0.00    +0.096 C 
ATOM     14  C   UNL     1      -0.308  -1.403  24.581  0.00  0.00    +0.045 C 
ATOM     15  C   UNL     1      -1.023  -1.006  24.683  0.00  0.00    +0.124 C 
ATOM     16  N   UNL     1      -1.668  -1.326  25.088  0.00  0.00    -0.204 NA
ATOM     17  C   UNL     1      -2.407  -0.988  25.227  0.00  0.00    +0.260 C 
ATOM     18  O   UNL     1      -2.939  -1.454  25.655  0.00  0.00    -0.272 OA
ATOM     19  C   UNL     1      -2.686  -0.247  24.996  0.00  0.00    +0.155 C 
ATOM     20  C   UNL     1      -3.444   0.028  25.172  0.00  0.00    +0.053 C 
ATOM     21  C   UNL     1      -3.520   0.785  24.853  0.00  0.00    +0.118 C 
ATOM     22  C   UNL     1      -2.809   0.977  24.480  0.00  0.00    +0.115 C 
ATOM     23  N   UNL     1      -2.293   0.339  24.569  0.00  0.00    -0.270 N 
ATOM     24  C   UNL     1      -1.526   0.329  24.267  0.00  0.00    +0.246 C 
ATOM     25  O   UNL     1      -1.293   1.008  23.860  0.00  0.00    -0.273 OA
ATOM     26  C   UNL     1      -0.961  -0.269  24.318  0.00  0.00    +0.172 C 
ENDROOT
BRANCH  10   7
ATOM      1  C   UNL     1       3.769   0.777  22.756  0.00  0.00    +0.095 C 
ATOM      2  C   UNL     1       3.170   0.350  22.382  0.00  0.00    +0.226 C 
ATOM      3  O   UNL     1       3.340  -0.098  21.711  0.00  0.00    -0.275 OA
ATOM      4  N   UNL     1       2.400   0.371  22.679  0.00  0.00    -0.280 N 
ATOM      5  C   UNL     1       1.802  -0.055  22.306  0.00  0.00    +0.094 C 
ATOM      6  C   UNL     1       1.033  -0.034  22.603  0.00  0.00    +0.031 C 
ATOM      7  C   UNL     1       0.862   0.414  23.274  0.00  0.00    +0.080 C 
ATOM      8  C   UNL     1       1.460   0.840  23.648  0.00  0.00    +0.031 C 
ATOM      9  C   UNL     1       2.229   0.819  23.351  0.00  0.00    +0.094 C 
ENDBRANCH  10   7
BRANCH  21  27
ATOM     27  N   UNL     1      -4.189   1.265  24.898  0.00  0.00    -0.202 NA
ATOM     28  C   UNL     1      -4.170   1.956  25.348  0.00  0.00    +0.265 C 
ATOM     29  O   UNL     1      -3.483   2.166  25.753  0.00  0.00    -0.268 OA
BRANCH  28  30
ATOM     30  C   UNL     1      -4.839   2.437  25.394  0.00  0.00    +0.055 A 
ATOM     31  C   UNL     1      -4.759   3.258  25.366  0.00  0.00    +0.005 A 
ATOM     32  C   UNL     1      -5.427   3.739  25.411  0.00  0.00    +0.000 A 
ATOM     33  C   UNL     1      -6.176   3.399  25.484  0.00  0.00    +0.000 A 
ATOM     34  C   UNL     1      -6.256   2.578  25.512  0.00  0.00    +0.000 A 
ATOM     35  C   UNL     1      -5.587   2.098  25.466  0.00  0.00    +0.005 A 
ENDBRANCH  28  30
ENDBRANCH  21  27
TORSDOF 3
ENDMDL
MODEL 2
REMARK VINA RESULT:     -10.1      1.035      6.162
REMARK  Name = 
REMARK  3 active torsions:
REMARK  status: ('A' for Active; 'I' for Inactive)
REMARK    1  A    between atoms: C_7  and  C_10
REMARK    2  A    between atoms: C_21  and  N_27
REMARK    3  A    between atoms: C_28  and  C_30
REMARK                            x       y       z     vdW  Elec       q    Type
REMARK                         _______ _______ _______ _____ _____    ______ ____
ROOT
ATOM     10  C   UNL     1      -2.970   1.133  24.567  0.00  0.00    +0.226 C 
ATOM     11  O   UNL     1      -2.456   1.464  24.013  0.00  0.00    -0.275 OA
ATOM     12  N   UNL     1      -2.763   0.436  24.957  0.00  0.00    -0.272 N 
ATOM     13  C   UNL     1      -3.219   0.043  25.522  0.00  0.00    +0.096 C 
ATOM     14  C   UNL     1      -2.801  -0.625  25.765  0.00  0.00    +0.045 C 
ATOM     15  C   UNL     1      -2.088  -0.646  25.351  0.00  0.00    +0.124 C 
ATOM     16  N   UNL     1      -1.522  -1.238  25.448  0.00  0.00    -0.204 NA
ATOM     17  C   UNL     1      -0.793  -1.321  25.071  0.00  0.00    +0.260 C 
ATOM     18  O   UNL     1      -0.349  -1.981  25.291  0.00  0.00    -0.272 OA
ATOM     19  C   UNL     1      -0.450  -0.831  24.502  0.00  0.00    +0.155 C 
ATOM     20  C   UNL     1       0.288  -0.976  24.164  0.00  0.00    +0.053 C 
ATOM     21  C   UNL     1       0.444  -0.373  23.625  0.00  0.00    +0.118 C 
ATOM     22  C   UNL     1      -0.198   0.145  23.628  0.00  0.00    +0.115 C 
ATOM     23  N   UNL     1      -0.752  -0.139  24.171  0.00  0.00    -0.270 N 
ATOM     24  C   UNL     1      -1.470   0.236  24.327  0.00  0.00    +0.246 C 
ATOM     25  O   UNL     1      -1.612   0.928  23.901  0.00  0.00    -0.273 OA
ATOM     26  C   UNL     1      -2.064   0.010  24.852  0.00  0.00    +0.172 C 
ENDROOT
BRANCH  10   7
ATOM      1  C   UNL     1      -5.871   3.311  25.634  0.00  0.00    +0.095 C 
ATOM      2  C   UNL     1      -5.855   2.597  25.221  0.00  0.00    +0.226 C 
ATOM      3  O   UNL     1      -6.559   2.249  24.971  0.00  0.00    -0.275 OA
ATOM      4  N   UNL     1      -5.133   2.231  25.057  0.00  0.00    -0.280 N 
ATOM      5  C   UNL     1      -5.117   1.518  24.644  0.00  0.00    +0.094 C 
ATOM      6  C   UNL     1      -4.397   1.151  24.481  0.00  0.00    +0.031 C 
ATOM      7  C   UNL     1      -3.691   1.499  24.730  0.00  0.00    +0.080 C 
ATOM      8  C   UNL     1      -3.707   2.213  25.143  0.00  0.00    +0.031 C 
ATOM      9  C   UNL     1      -4.428   2.579  25.307  0.00  0.00    +0.094 C 
ENDBRANCH  10   7
BRANCH  21  27
ATOM     27  N   UNL     1       1.123  -0.299  23.162  0.00  0.00    -0.202 NA
ATOM     28  C   UNL     1       1.648   0.323  23.297  0.00  0.00    +0.265 C 
ATOM     29  O   UNL     1       1.495   0.870  23.895  0.00  0.00    -0.268 OA
BRANCH  28  30
ATOM     30  C   UNL     1       2.328   0.397  22.834  0.00  0.00    +0.055 A 
ATOM     31  C   UNL     1       2.959   0.856  23.099  0.00  0.00    +0.005 A 
ATOM     32  C   UNL     1       3.638   0.931  22.637  0.00  0.00    +0.000 A 
ATOM     33  C   UNL     1       3.685   0.545  21.908  0.00  0.00    +0.000 A 
ATOM     34  C   UNL     1       3.053   0.085  21.643  0.00  0.00    +0.000 A 
ATOM     35  C   UNL     1       2.375   0.011  22.106  0.00  0.00    +0.005 A 
ENDBRANCH  28  30
ENDBRANCH  21  27
TORSDOF 3
ENDMDL
MODEL 3
REMARK VINA RESULT:      -8.0      3.497      5.144
REMARK  Name = 
REMARK  3 active torsions:
REMARK  status: ('A' for Active; 'I' for Inactive)
REMARK    1  A    between atoms: C_7  and  C_10
REMARK    2  A    between atoms: C_21  and  N_27
REMARK    3  A    between atoms: C_28  and  C_30
REMARK                            x       y       z     vdW  Elec       q    Type
REMARK                         _______ _______ _______ _____ _____    ______ ____
ROOT
ATOM     10  C   UNL     1      -3.697  -0.210  24.557  0.00  0.00    +0.226 C 
ATOM     11  O   UNL     1      -3.001   0.183  24.354  0.00  0.00    -0.275 OA
ATOM     12  N   UNL     1      -4.350   0.218  24.824  0.00  0.00    -0.272 N 
ATOM     13  C   UNL     1      -5.079  -0.099  25.047  0.00  0.00    +0.096 C 
ATOM     14  C   UNL     1      -5.567   0.525  25.276  0.00  0.00    +0.045 C 
ATOM     15  C   UNL     1      -5.141   1.226  25.196  0.00  0.00    +0.124 C 
ATOM     16  N   UNL     1      -5.450   1.970  25.376  0.00  0.00    -0.204 NA
ATOM     17  C   UNL     1      -5.083   2.707  25.320  0.00  0.00    +0.260 C 
ATOM     18  O   UNL     1      -5.545   3.354  25.543  0.00  0.00    -0.272 OA
ATOM     19  C   UNL     1      -4.317   2.882  25.071  0.00  0.00    +0.155 C 
ATOM     20  C   UNL     1      -4.013   3.649  25.040  0.00  0.00    +0.053 C 
ATOM     21  C   UNL     1      -3.237   3.605  24.767  0.00  0.00    +0.118 C 
ATOM     22  C   UNL     1      -3.060   2.811  24.629  0.00  0.00    +0.115 C 
ATOM     23  N   UNL     1      -3.728   2.364  24.817  0.00  0.00    -0.270 N 
ATOM     24  C   UNL     1      -3.759   1.543  24.748  0.00  0.00    +0.246 C 
ATOM     25  O   UNL     1      -3.071   1.180  24.474  0.00  0.00    -0.273 OA
ATOM     26  C   UNL     1      -4.388   1.037  24.917  0.00  0.00    +0.172 C 
ENDROOT
BRANCH  10   7
ATOM      1  C   UNL     1      -4.213  -3.840  23.632  0.00  0.00    +0.095 C 
ATOM      2  C   UNL     1      -3.870  -3.496  24.299  0.00  0.00    +0.226 C 
ATOM      3  O   UNL     1      -3.569  -3.973  24.901  0.00  0.00    -0.275 OA
ATOM      4  N   UNL     1      -3.826  -2.674  24.363  0.00  0.00    -0.280 N 
ATOM      5  C   UNL     1      -3.483  -2.330  25.029  0.00  0.00    +0.094 C 
ATOM      6  C   UNL     1      -3.440  -1.510  25.094  0.00  0.00    +0.031 C 
ATOM      7  C   UNL     1      -3.740  -1.032  24.492  0.00  0.00    +0.080 C 
ATOM      8  C   UNL     1      -4.083  -1.375  23.826  0.00  0.00    +0.031 C 
ATOM      9  C   UNL     1      -4.127  -2.196  23.761  0.00  0.00    +0.094 C 
ENDBRANCH  10   7
BRANCH  21  27
ATOM     27  N   UNL     1      -2.726   4.242  24.652  0.00  0.00    -0.202 NA
ATOM     28  C   UNL     1      -2.053   4.321  25.122  0.00  0.00    +0.265 C 
ATOM     29  O   UNL     1      -1.891   3.763  25.707  0.00  0.00    -0.268 OA
BRANCH  28  30
ATOM     30  C   UNL     1      -1.541   4.959  25.007  0.00  0.00    +0.055 A 
ATOM     31  C   UNL     1      -0.759   4.824  24.782  0.00  0.00    +0.005 A 
ATOM     32  C   UNL     1      -0.248   5.461  24.667  0.00  0.00    +0.000 A 
ATOM     33  C   UNL     1      -0.519   6.233  24.777  0.00  0.00    +0.000 A 
ATOM     34  C   UNL     1      -1.302   6.367  25.001  0.00  0.00    +0.000 A 
ATOM     35  C   UNL     1      -1.812   5.730  25.116  0.00  0.00    +0.005 A 
ENDBRANCH  28  30
ENDBRANCH  21  27
TORSDOF 3
ENDMDL
MODEL 4
REMARK VINA RESULT:      -7.1      3.307      5.663
REMARK  Name = 
REMARK  3 active torsions:
REMARK  status: ('A' for Active; 'I' for Inactive)
REMARK    1  A    between atoms: C_7  and  C_10
REMARK    2  A    between atoms: C_21  and  N_27
REMARK    3  A    between atoms: C_28  and  C_30
REMARK                            x       y       z     vdW  Elec       q    Type
REMARK                         _______ _______ _______ _____ _____    ______ ____
ROOT
ATOM     10  C   UNL     1      -2.208   0.024  25.032  0.00  0.00    +0.226 C 
ATOM     11  O   UNL     1      -1.674  -0.176  25.628  0.00  0.00    -0.275 OA
ATOM     12  N   UNL     1      -2.216   0.791  24.726  0.00  0.00    -0.272 N 
ATOM     13  C   UNL     1      -2.717   1.070  24.131  0.00  0.00    +0.096 C 
ATOM     14  C   UNL     1      -2.535   1.863  23.999  0.00  0.00    +0.045 C 
ATOM     15  C   UNL     1      -1.924   2.075  24.510  0.00  0.00    +0.124 C 
ATOM     16  N   UNL     1      -1.594   2.830  24.536  0.00  0.00    -0.204 NA
ATOM     17  C   UNL     1      -0.985   3.110  25.018  0.00  0.00    +0.260 C 
ATOM     18  O   UNL     1      -0.778   3.902  24.911  0.00  0.00    -0.272 OA
ATOM     19  C   UNL     1      -0.556   2.702  25.593  0.00  0.00    +0.155 C 
ATOM     20  C   UNL     1       0.044   3.047  26.042  0.00  0.00    +0.053 C 
ATOM     21  C   UNL     1       0.342   2.473  26.554  0.00  0.00    +0.118 C 
ATOM     22  C   UNL     1      -0.075   1.773  26.422  0.00  0.00    +0.115 C 
ATOM     23  N   UNL     1      -0.630   1.915  25.828  0.00  0.00    -0.270 N 
ATOM     24  C   UNL     1      -1.151   1.340  25.546  0.00  0.00    +0.246 C 
ATOM     25  O   UNL     1      -1.088   0.597  25.897  0.00  0.00    -0.273 OA
ATOM     26  C   UNL     1      -1.727   1.412  24.959  0.00  0.00    +0.172 C 
ENDROOT
BRANCH  10   7
ATOM      1  C   UNL     1      -4.026  -2.964  23.597  0.00  0.00    +0.095 C 
ATOM      2  C   UNL     1      -4.311  -2.240  23.873  0.00  0.00    +0.226 C 
ATOM      3  O   UNL     1      -5.120  -2.082  23.859  0.00  0.00    -0.275 OA
ATOM      4  N   UNL     1      -3.785  -1.674  24.163  0.00  0.00    -0.280 N 
ATOM      5  C   UNL     1      -4.069  -0.950  24.438  0.00  0.00    +0.094 C 
ATOM      6  C   UNL     1      -3.544  -0.384  24.728  0.00  0.00    +0.031 C 
ATOM      7  C   UNL     1      -2.734  -0.542  24.742  0.00  0.00    +0.080 C 
ATOM      8  C   UNL     1      -2.450  -1.265  24.467  0.00  0.00    +0.031 C 
ATOM      9  C   UNL     1      -2.975  -1.831  24.177  0.00  0.00    +0.094 C 
ENDBRANCH  10   7
BRANCH  21  27
ATOM     27  N   UNL     1       0.949   2.579  27.102  0.00  0.00    -0.202 NA
ATOM     28  C   UNL     1       0.788   2.532  27.909  0.00  0.00    +0.265 C 
ATOM     29  O   UNL     1       0.020   2.378  28.169  0.00  0.00    -0.268 OA
BRANCH  28  30
ATOM     30  C   UNL     1       1.395   2.638  28.458  0.00  0.00    +0.055 A 
ATOM     31  C   UNL     1       2.095   3.012  28.231  0.00  0.00    +0.005 A 
ATOM     32  C   UNL     1       2.702   3.118  28.778  0.00  0.00    +0.000 A 
ATOM     33  C   UNL     1       2.610   2.850  29.554  0.00  0.00    +0.000 A 
ATOM     34  C   UNL     1       1.910   2.477  29.781  0.00  0.00    +0.000 A 
ATOM     35  C   UNL     1       1.303   2.371  29.233  0.00  0.00    +0.005 A 
ENDBRANCH  28  30
ENDBRANCH  21  27
TORSDOF 3
ENDMDL
MODEL 5
REMARK VINA RESULT:      -6.5      1.843      6.514
REMARK  Name = 
REMARK  3 active torsions:
REMARK  status: ('A' for Active; 'I' for Inactive)
REMARK    1  A    between atoms: C_7  and  C_10
REMARK    2  A    between atoms: C_21  and  N_27
REMARK    3  A    between atoms: C_28  and  C_30
REMARK                            x       y       z     vdW  Elec       q    Type
REMARK                         _______ _______ _______ _____ _____    ______ ____
ROOT
ATOM     10  C   UNL     1      -2.988   1.939  24.570  0.00  0.00    +0.226 C 
ATOM     11  O   UNL     1      -2.633   1.610  23.902  0.00  0.00    -0.275 OA
ATOM     12  N   UNL     1      -2.522   2.264  25.168  0.00  0.00    -0.272 N 
ATOM     13  C   UNL     1      -2.798   2.611  25.864  0.00  0.00    +0.096 C 
ATOM     14  C   UNL     1      -2.144   2.860  26.301  0.00  0.00    +0.045 C 
ATOM     15  C   UNL     1      -1.465   2.667  25.876  0.00  0.00    +0.124 C 
ATOM     16  N   UNL     1      -0.701   2.832  26.140  0.00  0.00    -0.204 NA
ATOM     17  C   UNL     1       0.018   2.669  25.770  0.00  0.00    +0.260 C 
ATOM     18  O   UNL     1       0.694   2.906  26.181  0.00  0.00    -0.272 OA
ATOM     19  C   UNL     1       0.151   2.301  25.043  0.00  0.00    +0.155 C 
ATOM     20  C   UNL     1       0.903   2.170  24.731  0.00  0.00    +0.053 C 
ATOM     21  C   UNL     1       0.815   1.793  24.004  0.00  0.00    +0.118 C 
ATOM     22  C   UNL     1       0.008   1.691  23.865  0.00  0.00    +0.115 C 
ATOM     23  N   UNL     1      -0.403   2.006  24.508  0.00  0.00    -0.270 N 
ATOM     24  C   UNL     1      -1.225   2.004  24.567  0.00  0.00    +0.246 C 
ATOM     25  O   UNL     1      -1.629   1.664  23.933  0.00  0.00    -0.273 OA
ATOM     26  C   UNL     1      -1.698   2.299  25.175  0.00  0.00    +0.172 C 
ENDROOT
BRANCH  10   7
ATOM      1  C   UNL     1      -6.671   1.291  25.132  0.00  0.00    +0.095 C 
ATOM      2  C   UNL     1      -6.277   1.958  24.848  0.00  0.00    +0.226 C 
ATOM      3  O   UNL     1      -6.705   2.629  24.633  0.00  0.00    -0.275 OA
ATOM      4  N   UNL     1      -5.455   1.953  24.778  0.00  0.00    -0.280 N 
ATOM      5  C   UNL     1      -5.061   2.620  24.494  0.00  0.00    +0.094 C 
ATOM      6  C   UNL     1      -4.240   2.616  24.424  0.00  0.00    +0.031 C 
ATOM      7  C   UNL     1      -3.811   1.944  24.639  0.00  0.00    +0.080 C 
ATOM      8  C   UNL     1      -4.204   1.278  24.923  0.00  0.00    +0.031 C 
ATOM      9  C   UNL     1      -5.026   1.282  24.993  0.00  0.00    +0.094 C 
ENDBRANCH  10   7
BRANCH  21  27
ATOM     27  N   UNL     1       1.426   1.558  23.502  0.00  0.00    -0.202 NA
ATOM     28  C   UNL     1       1.596   0.756  23.407  0.00  0.00    +0.265 C 
ATOM     29  O   UNL     1       1.156   0.190  23.814  0.00  0.00    -0.268 OA
BRANCH  28  30
ATOM     30  C   UNL     1       2.208   0.521  22.904  0.00  0.00    +0.055 A 
ATOM     31  C   UNL     1       2.976   0.793  23.034  0.00  0.00    +0.005 A 
ATOM     32  C   UNL     1       3.587   0.559  22.532  0.00  0.00    +0.000 A 
ATOM     33  C   UNL     1       3.429   0.051  21.900  0.00  0.00    +0.000 A 
ATOM     34  C   UNL     1       2.661  -0.221  21.771  0.00  0.00    +0.000 A 
ATOM     35  C   UNL     1       2.051   0.014  22.273  0.00  0.00    +0.005 A 
ENDBRANCH  28  30
ENDBRANCH  21  27
TORSDOF 3
ENDMDL
