MODEL 1
REMARK VINA RESULT:     -16.8      0.000      0.000
REMARK  Name = 
REMARK  3 active torsions:
REMARK  status: ('A' for Active; 'I' for Inactive)
REMARK    1  A    between atoms: C_2  and  C_30
REMARK    2  A    between atoms: N_3  and  C_4
REMARK    3  A    between atoms: C_14  and  C_16
REMARK                            x       y       z     vdW  Elec       q    Type
REMARK                         _______ _______ _______ _____ _____    ______ ____
ROOT
ATOM      4  C   UNL     1      -3.179   0.578  24.244  0.00  0.00    +0.130 A 
ATOM      5  C   UNL     1      -3.860   0.406  23.683  0.00  0.00    +0.023 A 
ATOM      6  C   UNL     1      -4.116  -0.377  23.699  0.00  0.00    +0.014 A 
ATOM      7  C   UNL     1      -3.751  -0.921  24.201  0.00  0.00    +0.041 A 
ATOM      8  C   UNL     1      -3.791  -1.806  24.444  0.00  0.00    +0.058 C 
ATOM      9  C   UNL     1      -4.144  -2.398  24.312  0.00  0.00    +0.011 C 
ATOM     10  C   UNL     1      -3.531  -2.157  24.790  0.00  0.00    +0.043 C 
ATOM     11  C   UNL     1      -2.786  -2.062  25.433  0.00  0.00    +0.096 C 
ATOM     12  N   UNL     1      -2.615  -1.250  25.330  0.00  0.00    -0.276 N 
ATOM     13  C   UNL     1      -3.073  -1.730  25.069  0.00  0.00    +0.099 C 
ATOM     14  C   UNL     1      -2.141  -0.554  25.538  0.00  0.00    +0.249 C 
ATOM     15  O   UNL     1      -1.514  -0.693  26.148  0.00  0.00    -0.270 OA
ATOM     26  C   UNL     1      -3.481  -1.231  24.542  0.00  0.00    +0.110 C 
ATOM     27  N   UNL     1      -3.129  -0.680  24.686  0.00  0.00    -0.298 N 
ATOM     28  C   UNL     1      -2.872   0.103  24.671  0.00  0.00    +0.276 A 
ATOM     29  O   UNL     1      -2.098   0.336  25.296  0.00  0.00    -0.266 OA
ENDROOT
BRANCH  14  16
ATOM     16  C   UNL     1      -2.488   0.136  25.007  0.00  0.00    +0.054 A 
ATOM     17  C   UNL     1      -1.942   0.462  24.482  0.00  0.00    +0.005 A 
ATOM     18  C   UNL     1      -2.169   1.076  23.979  0.00  0.00    +0.000 A 
ATOM     19  C   UNL     1      -2.942   1.363  24.001  0.00  0.00    +0.000 A 
ATOM     20  C   UNL     1      -3.169   1.975  23.498  0.00  0.00    +0.000 A 
ATOM     21  C   UNL     1      -2.622   2.302  22.973  0.00  0.00    +0.000 A 
ATOM     22  C   UNL     1      -1.850   2.015  22.951  0.00  0.00    +0.000 A 
ATOM     23  C   UNL     1      -1.622   1.402  23.454  0.00  0.00    +0.000 A 
ATOM     24  C   UNL     1      -3.488   1.036  24.526  0.00  0.00    +0.000 A 
ATOM     25  C   UNL     1      -3.261   0.423  25.030  0.00  0.00    +0.005 A 
ENDBRANCH  14  16
BRANCH   4   3
ATOM      1  O   UNL     1      -3.787   2.472  25.219  0.00  0.00    -0.267 OA
ATOM      2  C   UNL     1      -3.623   1.578  24.777  0.00  0.00    +0.275 C 
ATOM      3  N   UNL     1      -2.699   1.224  24.473  0.00  0.00    -0.170 NA
BRANCH   2  30
ATOM     30  C   UNL     1      -4.519   1.530  24.890  0.00  0.00    +0.085 A 
ATOM     31  C   UNL     1      -5.212   1.128  24.689  0.00  0.00    +0.012 A 
ATOM     32  C   UNL     1      -5.839   1.493  25.082  0.00  0.00    +0.008 A 
ATOM     33  C   UNL     1      -5.535   2.119  25.525  0.00  0.00    +0.036 A 
ATOM     34  S   UNL     1      -4.719   2.142  25.406  0.00  0.00    -0.082 S 
ENDBRANCH   2  30
ENDBRANCH   4   3
TORSDOF 3
ENDMDL
MODEL 2
REMARK VINA RESULT:     -16.7      1.245      3.526
REMARK  Name = 
REMARK  3 active torsions:
REMARK  status: ('A' for Active; 'I' for Inactive)
REMARK    1  A    between atoms: C_2  and  C_30
REMARK    2  A    between atoms: N_3  and  C_4
REMARK    3  A    between atoms: C_14  and  C_16
REMARK                            x       y       z     vdW  Elec       q    Type
REMARK                         _______ _______ _______ _____ _____    ______ ____
ROOT
ATOM      4  C   UNL     1      -3.496   0.252  24.365  0.00  0.00    +0.130 A 
ATOM      5  C   UNL     1      -2.910   0.407  23.701  0.00  0.00    +0.023 A 
ATOM      6  C   UNL     1      -2.935   1.177  23.406  0.00  0.00    +0.014 A 
ATOM      7  C   UNL     1      -3.467   1.723  23.722  0.00  0.00    +0.041 A 
ATOM      8  C   UNL     1      -3.731   2.598  23.628  0.00  0.00    +0.058 C 
ATOM      9  C   UNL     1      -3.599   3.175  23.252  0.00  0.00    +0.011 C 
ATOM     10  C   UNL     1      -4.098   2.951  23.856  0.00  0.00    +0.043 C 
ATOM     11  C   UNL     1      -4.770   2.873  24.576  0.00  0.00    +0.096 C 
ATOM     12  N   UNL     1      -4.654   2.074  24.790  0.00  0.00    -0.276 N 
ATOM     13  C   UNL     1      -4.385   2.539  24.322  0.00  0.00    +0.099 C 
ATOM     14  C   UNL     1      -4.865   1.395  25.289  0.00  0.00    +0.249 C 
ATOM     15  O   UNL     1      -5.505   1.547  25.881  0.00  0.00    -0.270 OA
ATOM     26  C   UNL     1      -3.828   2.036  23.961  0.00  0.00    +0.110 C 
ATOM     27  N   UNL     1      -3.973   1.499  24.333  0.00  0.00    -0.298 N 
ATOM     28  C   UNL     1      -3.948   0.729  24.629  0.00  0.00    +0.276 A 
ATOM     29  O   UNL     1      -4.601   0.516  25.386  0.00  0.00    -0.266 OA
ENDROOT
BRANCH  14  16
ATOM     16  C   UNL     1      -4.301   0.705  24.999  0.00  0.00    +0.054 A 
ATOM     17  C   UNL     1      -4.701   0.044  24.711  0.00  0.00    +0.005 A 
ATOM     18  C   UNL     1      -4.275  -0.608  24.436  0.00  0.00    +0.000 A 
ATOM     19  C   UNL     1      -3.451  -0.599  24.451  0.00  0.00    +0.000 A 
ATOM     20  C   UNL     1      -3.026  -1.250  24.177  0.00  0.00    +0.000 A 
ATOM     21  C   UNL     1      -3.426  -1.912  23.888  0.00  0.00    +0.000 A 
ATOM     22  C   UNL     1      -4.250  -1.921  23.873  0.00  0.00    +0.000 A 
ATOM     23  C   UNL     1      -4.676  -1.270  24.147  0.00  0.00    +0.000 A 
ATOM     24  C   UNL     1      -3.051   0.063  24.740  0.00  0.00    +0.000 A 
ATOM     25  C   UNL     1      -3.476   0.715  25.014  0.00  0.00    +0.005 A 
ENDBRANCH  14  16
BRANCH   4   3
ATOM      1  O   UNL     1      -2.286  -0.839  25.866  0.00  0.00    -0.267 OA
ATOM      2  C   UNL     1      -2.741  -0.278  25.160  0.00  0.00    +0.275 C 
ATOM      3  N   UNL     1      -3.729  -0.376  24.865  0.00  0.00    -0.170 NA
BRANCH   2  30
ATOM     30  C   UNL     1      -1.915   0.090  25.137  0.00  0.00    +0.085 A 
ATOM     31  C   UNL     1      -1.389   0.559  24.708  0.00  0.00    +0.012 A 
ATOM     32  C   UNL     1      -0.688   0.614  25.140  0.00  0.00    +0.008 A 
ATOM     33  C   UNL     1      -0.782   0.180  25.836  0.00  0.00    +0.036 A 
ATOM     34  S   UNL     1      -1.541  -0.144  25.833  0.00  0.00    -0.082 S 
ENDBRANCH   2  30
ENDBRANCH   4   3
TORSDOF 3
ENDMDL
MODEL 3
REMARK VINA RESULT:     -16.1      1.386      3.218
REMARK  Name = 
REMARK  3 active torsions:
REMARK  status: ('A' for Active; 'I' for Inactive)
REMARK    1  A    between atoms: C_2  and  C_30
REMARK    2  A    between atoms: N_3  and  C_4
REMARK    3  A    between atoms: C_14  and  C_16
REMARK                            x       y       z     vdW  Elec       q    Type
REMARK                         _______ _______ _______ _____ _____    ______ ____
ROOT
ATOM      4  C   UNL     1      -3.404   0.798  24.609  0.00  0.00    +0.130 A 
ATOM      5  C   UNL     1      -3.124   0.499  25.408  0.00  0.00    +0.023 A 
ATOM      6  C   UNL     1      -2.309   0.559  25.522  0.00  0.00    +0.014 A 
ATOM      7  C   UNL     1      -1.832   0.872  24.928  0.00  0.00    +0.041 A 
ATOM      8  C   UNL     1      -0.952   1.065  24.746  0.00  0.00    +0.058 C 
ATOM      9  C   UNL     1      -0.311   1.031  25.030  0.00  0.00    +0.011 C 
ATOM     10  C   UNL     1      -0.647   1.280  24.332  0.00  0.00    +0.043 C 
ATOM     11  C   UNL     1      -0.861   1.630  23.433  0.00  0.00    +0.096 C 
ATOM     12  N   UNL     1      -1.689   1.520  23.433  0.00  0.00    -0.276 N 
ATOM     13  C   UNL     1      -1.142   1.407  23.875  0.00  0.00    +0.099 C 
ATOM     14  C   UNL     1      -2.453   1.590  23.026  0.00  0.00    +0.249 C 
ATOM     15  O   UNL     1      -2.417   1.938  22.212  0.00  0.00    -0.270 OA
ATOM     26  C   UNL     1      -1.569   1.082  24.512  0.00  0.00    +0.110 C 
ATOM     27  N   UNL     1      -2.169   1.126  24.218  0.00  0.00    -0.298 N 
ATOM     28  C   UNL     1      -2.984   1.066  24.104  0.00  0.00    +0.276 A 
ATOM     29  O   UNL     1      -3.338   1.398  23.205  0.00  0.00    -0.266 OA
ENDROOT
BRANCH  14  16
ATOM     16  C   UNL     1      -3.078   1.250  23.636  0.00  0.00    +0.054 A 
ATOM     17  C   UNL     1      -3.649   1.797  23.870  0.00  0.00    +0.005 A 
ATOM     18  C   UNL     1      -4.237   1.576  24.407  0.00  0.00    +0.000 A 
ATOM     19  C   UNL     1      -4.252   0.809  24.708  0.00  0.00    +0.000 A 
ATOM     20  C   UNL     1      -4.839   0.587  25.244  0.00  0.00    +0.000 A 
ATOM     21  C   UNL     1      -5.411   1.134  25.478  0.00  0.00    +0.000 A 
ATOM     22  C   UNL     1      -5.395   1.902  25.177  0.00  0.00    +0.000 A 
ATOM     23  C   UNL     1      -4.809   2.123  24.641  0.00  0.00    +0.000 A 
ATOM     24  C   UNL     1      -3.681   0.262  24.473  0.00  0.00    +0.000 A 
ATOM     25  C   UNL     1      -3.093   0.483  23.937  0.00  0.00    +0.005 A 
ENDBRANCH  14  16
BRANCH   4   3
ATOM      1  O   UNL     1      -4.797  -0.781  23.922  0.00  0.00    -0.267 OA
ATOM      2  C   UNL     1      -4.096  -0.148  24.281  0.00  0.00    +0.275 C 
ATOM      3  N   UNL     1      -4.117   0.883  24.182  0.00  0.00    -0.170 NA
BRANCH   2  30
ATOM     30  C   UNL     1      -3.744  -0.934  24.553  0.00  0.00    +0.085 A 
ATOM     31  C   UNL     1      -3.238  -1.306  25.089  0.00  0.00    +0.012 A 
ATOM     32  C   UNL     1      -3.245  -2.115  24.926  0.00  0.00    +0.008 A 
ATOM     33  C   UNL     1      -3.755  -2.242  24.289  0.00  0.00    +0.036 A 
ATOM     34  S   UNL     1      -4.063  -1.512  24.059  0.00  0.00    -0.082 S 
ENDBRANCH   2  30
ENDBRANCH   4   3
TORSDOF 3
ENDMDL
MODEL 4
REMARK VINA RESULT:     -15.9      0.931      2.595
REMARK  Name = 
REMARK  3 active torsions:
REMARK  status: ('A' for Active; 'I' for Inactive)
REMARK    1  A    between atoms: C_2  and  C_30
REMARK    2  A    between atoms: N_3  and  C_4
REMARK    3  A    between atoms: C_14  and  C_16
REMARK                            x       y       z     vdW  Elec       q    Type
REMARK                         _______ _______ _______ _____ _____    ______ ____
ROOT
ATOM      4  C   UNL     1      -3.060  -0.083  24.430  0.00  0.00    +0.130 A 
ATOM      5  C   UNL     1      -3.234   0.350  23.662  0.00  0.00    +0.023 A 
ATOM      6  C   UNL     1      -2.634   0.863  23.423  0.00  0.00    +0.014 A 
ATOM      7  C   UNL     1      -1.952   0.942  23.881  0.00  0.00    +0.041 A 
ATOM      8  C   UNL     1      -1.152   1.394  23.899  0.00  0.00    +0.058 C 
ATOM      9  C   UNL     1      -0.777   1.863  23.536  0.00  0.00    +0.011 C 
ATOM     10  C   UNL     1      -0.700   1.432  24.223  0.00  0.00    +0.043 C 
ATOM     11  C   UNL     1      -0.424   1.004  25.070  0.00  0.00    +0.096 C 
ATOM     12  N   UNL     1      -1.092   0.522  25.207  0.00  0.00    -0.276 N 
ATOM     13  C   UNL     1      -0.872   0.989  24.717  0.00  0.00    +0.099 C 
ATOM     14  C   UNL     1      -1.505  -0.061  25.701  0.00  0.00    +0.249 C 
ATOM     15  O   UNL     1      -1.070  -0.314  26.430  0.00  0.00    -0.270 OA
ATOM     26  C   UNL     1      -1.533   0.955  24.213  0.00  0.00    +0.110 C 
ATOM     27  N   UNL     1      -1.870   0.506  24.577  0.00  0.00    -0.298 N 
ATOM     28  C   UNL     1      -2.470  -0.008  24.816  0.00  0.00    +0.276 A 
ATOM     29  O   UNL     1      -2.307  -0.517  25.687  0.00  0.00    -0.266 OA
ENDROOT
BRANCH  14  16
ATOM     16  C   UNL     1      -2.313  -0.220  25.254  0.00  0.00    +0.054 A 
ATOM     17  C   UNL     1      -2.424  -1.007  25.032  0.00  0.00    +0.005 A 
ATOM     18  C   UNL     1      -3.112  -1.229  24.633  0.00  0.00    +0.000 A 
ATOM     19  C   UNL     1      -3.687  -0.666  24.457  0.00  0.00    +0.000 A 
ATOM     20  C   UNL     1      -4.374  -0.888  24.059  0.00  0.00    +0.000 A 
ATOM     21  C   UNL     1      -4.486  -1.675  23.836  0.00  0.00    +0.000 A 
ATOM     22  C   UNL     1      -3.910  -2.239  24.012  0.00  0.00    +0.000 A 
ATOM     23  C   UNL     1      -3.223  -2.016  24.410  0.00  0.00    +0.000 A 
ATOM     24  C   UNL     1      -3.576   0.121  24.679  0.00  0.00    +0.000 A 
ATOM     25  C   UNL     1      -2.888   0.344  25.078  0.00  0.00    +0.005 A 
ENDBRANCH  14  16
BRANCH   4   3
ATOM      1  O   UNL     1      -4.938   0.115  25.587  0.00  0.00    -0.267 OA
ATOM      2  C   UNL     1      -4.102   0.135  25.021  0.00  0.00    +0.275 C 
ATOM      3  N   UNL     1      -3.423  -0.643  24.933  0.00  0.00    -0.170 NA
BRANCH   2  30
ATOM     30  C   UNL     1      -4.422   0.962  24.847  0.00  0.00    +0.085 A 
ATOM     31  C   UNL     1      -4.383   1.618  24.348  0.00  0.00    +0.012 A 
ATOM     32  C   UNL     1      -4.920   2.180  24.624  0.00  0.00    +0.008 A 
ATOM     33  C   UNL     1      -5.291   1.871  25.294  0.00  0.00    +0.036 A 
ATOM     34  S   UNL     1      -4.983   1.118  25.431  0.00  0.00    -0.082 S 
ENDBRANCH   2  30
ENDBRANCH   4   3
TORSDOF 3
ENDMDL
MODEL 5
REMARK VINA RESULT:     -15.8      1.357      3.148
REMARK  Name = 
REMARK  3 active torsions:
REMARK  status: ('A' for Active; 'I' for Inactive)
REMARK    1  A    between atoms: C_2  and  C_30
REMARK    2  A    between atoms: N_3  and  C_4
REMARK    3  A    between atoms: C_14  and  C_16
REMARK                            x       y       z     vdW  Elec       q    Type
REMARK                         _______ _______ _______ _____ _____    ______ ____
ROOT
ATOM      4  C   UNL     1      -3.551   1.645  24.249  0.00  0.00    +0.130 A 
ATOM      5  C   UNL     1      -4.069   0.937  24.054  0.00  0.00    +0.023 A 
ATOM      6  C   UNL     1      -4.809   0.952  24.418  0.00  0.00    +0.014 A 
ATOM      7  C   UNL     1      -5.013   1.582  24.910  0.00  0.00    +0.041 A 
ATOM      8  C   UNL     1      -5.707   1.883  25.432  0.00  0.00    +0.058 C 
ATOM      9  C   UNL     1      -6.356   1.713  25.636  0.00  0.00    +0.011 C 
ATOM     10  C   UNL     1      -5.825   2.318  25.761  0.00  0.00    +0.043 C 
ATOM     11  C   UNL     1      -5.329   3.129  26.032  0.00  0.00    +0.096 C 
ATOM     12  N   UNL     1      -4.617   3.004  25.612  0.00  0.00    -0.276 N 
ATOM     13  C   UNL     1      -5.241   2.672  25.703  0.00  0.00    +0.099 C 
ATOM     14  C   UNL     1      -3.820   3.271  25.397  0.00  0.00    +0.249 C 
ATOM     15  O   UNL     1      -3.569   4.040  25.759  0.00  0.00    -0.270 OA
ATOM     26  C   UNL     1      -5.095   2.011  25.218  0.00  0.00    +0.110 C 
ATOM     27  N   UNL     1      -4.477   2.196  25.038  0.00  0.00    -0.298 N 
ATOM     28  C   UNL     1      -3.737   2.181  24.674  0.00  0.00    +0.276 A 
ATOM     29  O   UNL     1      -3.121   2.971  24.874  0.00  0.00    -0.266 OA
ENDROOT
BRANCH  14  16
ATOM     16  C   UNL     1      -3.494   2.605  24.824  0.00  0.00    +0.054 A 
ATOM     17  C   UNL     1      -3.324   2.873  24.062  0.00  0.00    +0.005 A 
ATOM     18  C   UNL     1      -3.032   2.347  23.496  0.00  0.00    +0.000 A 
ATOM     19  C   UNL     1      -2.911   1.555  23.692  0.00  0.00    +0.000 A 
ATOM     20  C   UNL     1      -2.619   1.030  23.127  0.00  0.00    +0.000 A 
ATOM     21  C   UNL     1      -2.449   1.297  22.365  0.00  0.00    +0.000 A 
ATOM     22  C   UNL     1      -2.570   2.089  22.169  0.00  0.00    +0.000 A 
ATOM     23  C   UNL     1      -2.861   2.614  22.734  0.00  0.00    +0.000 A 
ATOM     24  C   UNL     1      -3.081   1.288  24.454  0.00  0.00    +0.000 A 
ATOM     25  C   UNL     1      -3.373   1.814  25.020  0.00  0.00    +0.005 A 
ENDBRANCH  14  16
BRANCH   4   3
ATOM      1  O   UNL     1      -1.581   0.728  24.680  0.00  0.00    -0.267 OA
ATOM      2  C   UNL     1      -2.527   1.052  24.536  0.00  0.00    +0.275 C 
ATOM      3  N   UNL     1      -2.790   1.938  24.068  0.00  0.00    -0.170 NA
BRANCH   2  30
ATOM     30  C   UNL     1      -2.697   0.272  24.960  0.00  0.00    +0.085 A 
ATOM     31  C   UNL     1      -3.264  -0.303  25.130  0.00  0.00    +0.012 A 
ATOM     32  C   UNL     1      -2.908  -0.880  25.600  0.00  0.00    +0.008 A 
ATOM     33  C   UNL     1      -2.121  -0.660  25.722  0.00  0.00    +0.036 A 
ATOM     34  S   UNL     1      -1.992   0.052  25.326  0.00  0.00    -0.082 S 
ENDBRANCH   2  30
ENDBRANCH   4   3
TORSDOF 3
ENDMDL
MODEL 6
REMARK VINA RESULT:     -15.7      2.622      4.069
REMARK  Name = 
REMARK  3 active torsions:
REMARK  status: ('A' for Active; 'I' for Inactive)
REMARK    1  A    between atoms: C_2  and  C_30
REMARK    2  A    between atoms: N_3  and  C_4
REMARK    3  A    between atoms: C_14  and  C_16
REMARK                            x       y       z     vdW  Elec       q    Type
REMARK                         _______ _______ _______ _____ _____    ______ ____
ROOT
ATOM      4  C   UNL     1      -2.190   3.488  25.023  0.00  0.00    +0.130 A 
ATOM      5  C   UNL     1      -2.158   3.074  24.226  0.00  0.00    +0.023 A 
ATOM      6  C   UNL     1      -2.883   2.769  23.977  0.00  0.00    +0.014 A 
ATOM      7  C   UNL     1      -3.552   2.861  24.451  0.00  0.00    +0.041 A 
ATOM      8  C   UNL     1      -4.448   2.656  24.467  0.00  0.00    +0.058 C 
ATOM      9  C   UNL     1      -4.947   2.337  24.090  0.00  0.00    +0.011 C 
ATOM     10  C   UNL     1      -4.888   2.728  24.802  0.00  0.00    +0.043 C 
ATOM     11  C   UNL     1      -5.018   3.162  25.680  0.00  0.00    +0.096 C 
ATOM     12  N   UNL     1      -4.238   3.424  25.824  0.00  0.00    -0.276 N 
ATOM     13  C   UNL     1      -4.590   3.071  25.315  0.00  0.00    +0.099 C 
ATOM     14  C   UNL     1      -3.669   3.831  26.337  0.00  0.00    +0.249 C 
ATOM     15  O   UNL     1      -4.004   4.152  27.093  0.00  0.00    -0.270 OA
ATOM     26  C   UNL     1      -3.953   2.947  24.794  0.00  0.00    +0.110 C 
ATOM     27  N   UNL     1      -3.497   3.256  25.173  0.00  0.00    -0.298 N 
ATOM     28  C   UNL     1      -2.771   3.561  25.421  0.00  0.00    +0.276 A 
ATOM     29  O   UNL     1      -2.770   4.039  26.325  0.00  0.00    -0.266 OA
ENDROOT
BRANCH  14  16
ATOM     16  C   UNL     1      -2.855   3.781  25.875  0.00  0.00    +0.054 A 
ATOM     17  C   UNL     1      -2.527   4.515  25.693  0.00  0.00    +0.005 A 
ATOM     18  C   UNL     1      -1.810   4.557  25.286  0.00  0.00    +0.000 A 
ATOM     19  C   UNL     1      -1.422   3.865  25.063  0.00  0.00    +0.000 A 
ATOM     20  C   UNL     1      -0.705   3.906  24.657  0.00  0.00    +0.000 A 
ATOM     21  C   UNL     1      -0.376   4.641  24.474  0.00  0.00    +0.000 A 
ATOM     22  C   UNL     1      -0.765   5.333  24.697  0.00  0.00    +0.000 A 
ATOM     23  C   UNL     1      -1.481   5.292  25.104  0.00  0.00    +0.000 A 
ATOM     24  C   UNL     1      -1.750   3.130  25.246  0.00  0.00    +0.000 A 
ATOM     25  C   UNL     1      -2.467   3.088  25.652  0.00  0.00    +0.005 A 
ENDBRANCH  14  16
BRANCH   4   3
ATOM      1  O   UNL     1      -0.423   2.693  26.096  0.00  0.00    -0.267 OA
ATOM      2  C   UNL     1      -1.241   2.947  25.561  0.00  0.00    +0.275 C 
ATOM      3  N   UNL     1      -1.675   3.888  25.546  0.00  0.00    -0.170 NA
BRANCH   2  30
ATOM     30  C   UNL     1      -1.170   2.078  25.325  0.00  0.00    +0.085 A 
ATOM     31  C   UNL     1      -1.385   1.500  24.776  0.00  0.00    +0.012 A 
ATOM     32  C   UNL     1      -1.041   0.787  25.010  0.00  0.00    +0.008 A 
ATOM     33  C   UNL     1      -0.614   0.925  25.702  0.00  0.00    +0.036 A 
ATOM     34  S   UNL     1      -0.694   1.723  25.897  0.00  0.00    -0.082 S 
ENDBRANCH   2  30
ENDBRANCH   4   3
TORSDOF 3
ENDMDL
MODEL 7
REMARK VINA RESULT:     -15.4      1.236      2.518
REMARK  Name = 
REMARK  3 active torsions:
REMARK  status: ('A' for Active; 'I' for Inactive)
REMARK    1  A    between atoms: C_2  and  C_30
REMARK    2  A    between atoms: N_3  and  C_4
REMARK    3  A    between atoms: C_14  and  C_16
REMARK                            x       y       z     vdW  Elec       q    Type
REMARK                         _______ _______ _______ _____ _____    ______ ____
ROOT
ATOM      4  C   UNL     1      -3.470   0.603  24.687  0.00  0.00    +0.130 A 
ATOM      5  C   UNL     1      -2.782   0.949  25.150  0.00  0.00    +0.023 A 
ATOM      6  C   UNL     1      -2.216   0.392  25.372  0.00  0.00    +0.014 A 
ATOM      7  C   UNL     1      -2.313  -0.400  25.166  0.00  0.00    +0.041 A 
ATOM      8  C   UNL     1      -1.898  -1.216  25.252  0.00  0.00    +0.058 C 
ATOM      9  C   UNL     1      -1.326  -1.517  25.525  0.00  0.00    +0.011 C 
ATOM     10  C   UNL     1      -1.983  -1.747  25.102  0.00  0.00    +0.043 C 
ATOM     11  C   UNL     1      -2.696  -2.213  24.602  0.00  0.00    +0.096 C 
ATOM     12  N   UNL     1      -3.197  -1.566  24.435  0.00  0.00    -0.276 N 
ATOM     13  C   UNL     1      -2.579  -1.681  24.770  0.00  0.00    +0.099 C 
ATOM     14  C   UNL     1      -3.923  -1.255  24.074  0.00  0.00    +0.249 C 
ATOM     15  O   UNL     1      -4.430  -1.857  23.667  0.00  0.00    -0.270 OA
ATOM     26  C   UNL     1      -2.424  -0.899  25.008  0.00  0.00    +0.110 C 
ATOM     27  N   UNL     1      -2.977  -0.637  24.738  0.00  0.00    -0.298 N 
ATOM     28  C   UNL     1      -3.544  -0.080  24.515  0.00  0.00    +0.276 A 
ATOM     29  O   UNL     1      -4.342  -0.438  23.986  0.00  0.00    -0.266 OA
ENDROOT
BRANCH  14  16
ATOM     16  C   UNL     1      -3.905  -0.336  24.258  0.00  0.00    +0.054 A 
ATOM     17  C   UNL     1      -4.553  -0.069  24.692  0.00  0.00    +0.005 A 
ATOM     18  C   UNL     1      -4.612   0.729  24.895  0.00  0.00    +0.000 A 
ATOM     19  C   UNL     1      -4.023   1.258  24.665  0.00  0.00    +0.000 A 
ATOM     20  C   UNL     1      -4.082   2.056  24.867  0.00  0.00    +0.000 A 
ATOM     21  C   UNL     1      -4.731   2.324  25.302  0.00  0.00    +0.000 A 
ATOM     22  C   UNL     1      -5.320   1.795  25.532  0.00  0.00    +0.000 A 
ATOM     23  C   UNL     1      -5.261   0.998  25.329  0.00  0.00    +0.000 A 
ATOM     24  C   UNL     1      -3.375   0.990  24.231  0.00  0.00    +0.000 A 
ATOM     25  C   UNL     1      -3.316   0.192  24.027  0.00  0.00    +0.005 A 
ENDBRANCH  14  16
BRANCH   4   3
ATOM      1  O   UNL     1      -3.727   2.022  23.005  0.00  0.00    -0.267 OA
ATOM      2  C   UNL     1      -3.494   1.393  23.761  0.00  0.00    +0.275 C 
ATOM      3  N   UNL     1      -4.179   0.861  24.326  0.00  0.00    -0.170 NA
BRANCH   2  30
ATOM     30  C   UNL     1      -2.663   1.657  23.522  0.00  0.00    +0.085 A 
ATOM     31  C   UNL     1      -1.878   1.741  23.763  0.00  0.00    +0.012 A 
ATOM     32  C   UNL     1      -1.451   2.057  23.131  0.00  0.00    +0.008 A 
ATOM     33  C   UNL     1      -1.972   2.169  22.501  0.00  0.00    +0.036 A 
ATOM     34  S   UNL     1      -2.721   1.921  22.743  0.00  0.00    -0.082 S 
ENDBRANCH   2  30
ENDBRANCH   4   3
TORSDOF 3
ENDMDL
MODEL 8
REMARK VINA RESULT:     -15.4      1.527      3.283
REMARK  Name = 
REMARK  3 active torsions:
REMARK  status: ('A' for Active; 'I' for Inactive)
REMARK    1  A    between atoms: C_2  and  C_30
REMARK    2  A    between atoms: N_3  and  C_4
REMARK    3  A    between atoms: C_14  and  C_16
REMARK                            x       y       z     vdW  Elec       q    Type
REMARK                         _______ _______ _______ _____ _____    ______ ____
ROOT
ATOM      4  C   UNL     1      -1.903   1.310  24.398  0.00  0.00    +0.130 A 
ATOM      5  C   UNL     1      -2.349   0.998  23.684  0.00  0.00    +0.023 A 
ATOM      6  C   UNL     1      -2.965   1.486  23.433  0.00  0.00    +0.014 A 
ATOM      7  C   UNL     1      -3.122   2.190  23.834  0.00  0.00    +0.041 A 
ATOM      8  C   UNL     1      -3.693   2.909  23.815  0.00  0.00    +0.058 C 
ATOM      9  C   UNL     1      -4.238   3.171  23.458  0.00  0.00    +0.011 C 
ATOM     10  C   UNL     1      -3.783   3.380  24.100  0.00  0.00    +0.043 C 
ATOM     11  C   UNL     1      -3.353   3.800  24.885  0.00  0.00    +0.096 C 
ATOM     12  N   UNL     1      -2.763   3.230  25.043  0.00  0.00    -0.276 N 
ATOM     13  C   UNL     1      -3.289   3.328  24.572  0.00  0.00    +0.099 C 
ATOM     14  C   UNL     1      -2.093   2.962  25.525  0.00  0.00    +0.249 C 
ATOM     15  O   UNL     1      -1.868   3.500  26.192  0.00  0.00    -0.270 OA
ATOM     26  C   UNL     1      -3.181   2.632  24.127  0.00  0.00    +0.110 C 
ATOM     27  N   UNL     1      -2.663   2.405  24.485  0.00  0.00    -0.298 N 
ATOM     28  C   UNL     1      -2.047   1.917  24.735  0.00  0.00    +0.276 A 
ATOM     29  O   UNL     1      -1.517   2.241  25.547  0.00  0.00    -0.266 OA
ENDROOT
BRANCH  14  16
ATOM     16  C   UNL     1      -1.835   2.147  25.140  0.00  0.00    +0.054 A 
ATOM     17  C   UNL     1      -1.062   2.141  24.855  0.00  0.00    +0.005 A 
ATOM     18  C   UNL     1      -0.758   1.460  24.501  0.00  0.00    +0.000 A 
ATOM     19  C   UNL     1      -1.228   0.786  24.433  0.00  0.00    +0.000 A 
ATOM     20  C   UNL     1      -0.926   0.105  24.079  0.00  0.00    +0.000 A 
ATOM     21  C   UNL     1      -0.151   0.098  23.794  0.00  0.00    +0.000 A 
ATOM     22  C   UNL     1       0.319   0.772  23.862  0.00  0.00    +0.000 A 
ATOM     23  C   UNL     1       0.016   1.453  24.216  0.00  0.00    +0.000 A 
ATOM     24  C   UNL     1      -2.003   0.792  24.718  0.00  0.00    +0.000 A 
ATOM     25  C   UNL     1      -2.306   1.474  25.072  0.00  0.00    +0.005 A 
ENDBRANCH  14  16
BRANCH   4   3
ATOM      1  O   UNL     1      -1.723  -0.460  25.718  0.00  0.00    -0.267 OA
ATOM      2  C   UNL     1      -1.913   0.307  25.088  0.00  0.00    +0.275 C 
ATOM      3  N   UNL     1      -1.263   1.088  24.888  0.00  0.00    -0.170 NA
BRANCH   2  30
ATOM     30  C   UNL     1      -2.685  -0.154  25.002  0.00  0.00    +0.085 A 
ATOM     31  C   UNL     1      -3.356  -0.281  24.538  0.00  0.00    +0.012 A 
ATOM     32  C   UNL     1      -3.818  -0.855  24.911  0.00  0.00    +0.008 A 
ATOM     33  C   UNL     1      -3.432  -1.082  25.604  0.00  0.00    +0.036 A 
ATOM     34  S   UNL     1      -2.732  -0.649  25.660  0.00  0.00    -0.082 S 
ENDBRANCH   2  30
ENDBRANCH   4   3
TORSDOF 3
ENDMDL
MODEL 9
REMARK VINA RESULT:     -15.2      1.881      3.195
REMARK  Name = 
REMARK  3 active torsions:
REMARK  status: ('A' for Active; 'I' for Inactive)
REMARK    1  A    between atoms: C_2  and  C_30
REMARK    2  A    between atoms: N_3  and  C_4
REMARK    3  A    between atoms: C_14  and  C_16
REMARK                            x       y       z     vdW  Elec       q    Type
REMARK                         _______ _______ _______ _____ _____    ______ ____
ROOT
ATOM      4  C   UNL     1      -1.601   0.995  25.102  0.00  0.00    +0.130 A 
ATOM      5  C   UNL     1      -1.251   0.346  25.614  0.00  0.00    +0.023 A 
ATOM      6  C   UNL     1      -1.758  -0.291  25.741  0.00  0.00    +0.014 A 
ATOM      7  C   UNL     1      -2.512  -0.291  25.406  0.00  0.00    +0.041 A 
ATOM      8  C   UNL     1      -3.271  -0.807  25.355  0.00  0.00    +0.058 C 
ATOM      9  C   UNL     1      -3.536  -1.419  25.574  0.00  0.00    +0.011 C 
ATOM     10  C   UNL     1      -3.776  -0.787  25.119  0.00  0.00    +0.043 C 
ATOM     11  C   UNL     1      -4.242  -0.127  24.550  0.00  0.00    +0.096 C 
ATOM     12  N   UNL     1      -3.645   0.455  24.493  0.00  0.00    -0.276 N 
ATOM     13  C   UNL     1      -3.734  -0.180  24.804  0.00  0.00    +0.099 C 
ATOM     14  C   UNL     1      -3.376   1.222  24.189  0.00  0.00    +0.249 C 
ATOM     15  O   UNL     1      -3.963   1.658  23.689  0.00  0.00    -0.270 OA
ATOM     26  C   UNL     1      -2.988  -0.240  25.168  0.00  0.00    +0.110 C 
ATOM     27  N   UNL     1      -2.758   0.348  24.945  0.00  0.00    -0.298 N 
ATOM     28  C   UNL     1      -2.250   0.986  24.819  0.00  0.00    +0.276 A 
ATOM     29  O   UNL     1      -2.616   1.744  24.239  0.00  0.00    -0.266 OA
ENDROOT
BRANCH  14  16
ATOM     16  C   UNL     1      -2.505   1.317  24.523  0.00  0.00    +0.054 A 
ATOM     17  C   UNL     1      -2.397   1.987  24.992  0.00  0.00    +0.005 A 
ATOM     18  C   UNL     1      -1.657   2.142  25.324  0.00  0.00    +0.000 A 
ATOM     19  C   UNL     1      -1.027   1.628  25.188  0.00  0.00    +0.000 A 
ATOM     20  C   UNL     1      -0.288   1.783  25.520  0.00  0.00    +0.000 A 
ATOM     21  C   UNL     1      -0.180   2.453  25.989  0.00  0.00    +0.000 A 
ATOM     22  C   UNL     1      -0.809   2.967  26.125  0.00  0.00    +0.000 A 
ATOM     23  C   UNL     1      -1.548   2.812  25.793  0.00  0.00    +0.000 A 
ATOM     24  C   UNL     1      -1.136   0.958  24.718  0.00  0.00    +0.000 A 
ATOM     25  C   UNL     1      -1.876   0.802  24.386  0.00  0.00    +0.005 A 
ENDBRANCH  14  16
BRANCH   4   3
ATOM      1  O   UNL     1       0.015   1.464  23.660  0.00  0.00    -0.267 OA
ATOM      2  C   UNL     1      -0.688   1.138  24.308  0.00  0.00    +0.275 C 
ATOM      3  N   UNL     1      -1.381   1.739  24.789  0.00  0.00    -0.170 NA
BRANCH   2  30
ATOM     30  C   UNL     1      -0.290   0.351  24.108  0.00  0.00    +0.085 A 
ATOM     31  C   UNL     1      -0.187  -0.437  24.329  0.00  0.00    +0.012 A 
ATOM     32  C   UNL     1       0.315  -0.792  23.778  0.00  0.00    +0.008 A 
ATOM     33  C   UNL     1       0.521  -0.223  23.217  0.00  0.00    +0.036 A 
ATOM     34  S   UNL     1       0.147   0.484  23.421  0.00  0.00    -0.082 S 
ENDBRANCH   2  30
ENDBRANCH   4   3
TORSDOF 3
ENDMDL
MODEL 10
REMARK VINA RESULT:     -15.2      1.965      3.312
REMARK  Name = 
REMARK  3 active torsions:
REMARK  status: ('A' for Active; 'I' for Inactive)
REMARK    1  A    between atoms: C_2  and  C_30
REMARK    2  A    between atoms: N_3  and  C_4
REMARK    3  A    between atoms: C_14  and  C_16
REMARK                            x       y       z     vdW  Elec       q    Type
REMARK                         _______ _______ _______ _____ _____    ______ ____
ROOT
ATOM      4  C   UNL     1      -3.213   2.233  24.241  0.00  0.00    +0.130 A 
ATOM      5  C   UNL     1      -3.189   3.129  24.182  0.00  0.00    +0.023 A 
ATOM      6  C   UNL     1      -3.828   3.505  24.542  0.00  0.00    +0.014 A 
ATOM      7  C   UNL     1      -4.414   3.059  24.913  0.00  0.00    +0.041 A 
ATOM      8  C   UNL     1      -5.202   3.159  25.375  0.00  0.00    +0.058 C 
ATOM      9  C   UNL     1      -5.642   3.651  25.612  0.00  0.00    +0.011 C 
ATOM     10  C   UNL     1      -5.587   2.838  25.620  0.00  0.00    +0.043 C 
ATOM     11  C   UNL     1      -5.697   1.863  25.735  0.00  0.00    +0.096 C 
ATOM     12  N   UNL     1      -5.010   1.598  25.340  0.00  0.00    -0.276 N 
ATOM     13  C   UNL     1      -5.322   2.219  25.494  0.00  0.00    +0.099 C 
ATOM     14  C   UNL     1      -4.507   0.942  25.075  0.00  0.00    +0.249 C 
ATOM     15  O   UNL     1      -4.797   0.133  25.288  0.00  0.00    -0.270 OA
ATOM     26  C   UNL     1      -4.765   2.724  25.138  0.00  0.00    +0.110 C 
ATOM     27  N   UNL     1      -4.361   2.236  24.923  0.00  0.00    -0.298 N 
ATOM     28  C   UNL     1      -3.722   1.859  24.562  0.00  0.00    +0.276 A 
ATOM     29  O   UNL     1      -3.716   0.838  24.610  0.00  0.00    -0.266 OA
ENDROOT
BRANCH  14  16
ATOM     16  C   UNL     1      -3.793   1.357  24.630  0.00  0.00    +0.054 A 
ATOM     17  C   UNL     1      -3.731   1.154  23.833  0.00  0.00    +0.005 A 
ATOM     18  C   UNL     1      -3.128   1.477  23.371  0.00  0.00    +0.000 A 
ATOM     19  C   UNL     1      -2.588   2.002  23.706  0.00  0.00    +0.000 A 
ATOM     20  C   UNL     1      -1.986   2.325  23.245  0.00  0.00    +0.000 A 
ATOM     21  C   UNL     1      -1.923   2.122  22.447  0.00  0.00    +0.000 A 
ATOM     22  C   UNL     1      -2.464   1.596  22.112  0.00  0.00    +0.000 A 
ATOM     23  C   UNL     1      -3.066   1.274  22.573  0.00  0.00    +0.000 A 
ATOM     24  C   UNL     1      -2.650   2.205  24.504  0.00  0.00    +0.000 A 
ATOM     25  C   UNL     1      -3.253   1.882  24.966  0.00  0.00    +0.005 A 
ENDBRANCH  14  16
BRANCH   4   3
ATOM      1  O   UNL     1      -1.143   1.702  24.828  0.00  0.00    -0.267 OA
ATOM      2  C   UNL     1      -2.075   2.038  24.630  0.00  0.00    +0.275 C 
ATOM      3  N   UNL     1      -2.757   1.573  24.004  0.00  0.00    -0.170 NA
BRANCH   2  30
ATOM     30  C   UNL     1      -1.797   2.687  25.195  0.00  0.00    +0.085 A 
ATOM     31  C   UNL     1      -1.927   3.454  25.471  0.00  0.00    +0.012 A 
ATOM     32  C   UNL     1      -1.355   3.618  26.042  0.00  0.00    +0.008 A 
ATOM     33  C   UNL     1      -0.872   2.954  26.119  0.00  0.00    +0.036 A 
ATOM     34  S   UNL     1      -1.145   2.378  25.595  0.00  0.00    -0.082 S 
ENDBRANCH   2  30
ENDBRANCH   4   3
TORSDOF 3
ENDMDL
