MODEL 1
REMARK VINA RESULT:      -9.4      0.000      0.000
REMARK  Name = 
REMARK  6 active torsions:
REMARK  status: ('A' for Active; 'I' for Inactive)
REMARK    1  A    between atoms: C_2  and  N_4
REMARK    2  A    between atoms: C_5  and  C_7
REMARK    3  A    between atoms: C_7  and  C_8
REMARK    4  A    between atoms: C_10  and  C_11
REMARK    5  A    between atoms: C_11  and  N_12
REMARK    6  A    between atoms: C_13  and  C_15
REMARK                            x       y       z     vdW  Elec       q    Type
REMARK                         _______ _______ _______ _____ _____    ______ ____
ROOT
ATOM      8  C   UNL     1      -4.349   3.047  25.440  0.00  0.00    +0.157 C 
ATOM      9  O   UNL     1      -4.056   2.304  25.234  0.00  0.00    -0.351 OA
ATOM     10  C   UNL     1      -4.697   1.816  25.055  0.00  0.00    +0.170 C 
ATOM     18  C   UNL     1      -5.386   2.258  25.151  0.00  0.00    +0.213 C 
ATOM     19  O   UNL     1      -6.156   1.987  25.029  0.00  0.00    -0.218 OA
ATOM     20  C   UNL     1      -5.173   3.018  25.389  0.00  0.00    +0.212 C 
ATOM     21  O   UNL     1      -5.690   3.641  25.547  0.00  0.00    -0.218 OA
ENDROOT
BRANCH   8   7
ATOM      7  C   UNL     1      -3.900   3.703  25.660  0.00  0.00    +0.119 C 
BRANCH   7   5
ATOM      4  N   UNL     1      -2.510   3.982  25.831  0.00  0.00    -0.207 NA
ATOM      5  C   UNL     1      -3.149   3.816  25.338  0.00  0.00    +0.244 C 
ATOM      6  O   UNL     1      -3.038   3.762  24.522  0.00  0.00    -0.273 OA
BRANCH   4   2
ATOM      1  C   UNL     1      -1.208   3.480  25.519  0.00  0.00    +0.023 C 
ATOM      2  C   UNL     1      -1.758   4.095  25.510  0.00  0.00    +0.095 C 
ATOM      3  C   UNL     1      -1.557   4.823  25.179  0.00  0.00    +0.023 C 
ENDBRANCH   4   2
ENDBRANCH   7   5
ENDBRANCH   8   7
BRANCH  10  11
ATOM     11  C   UNL     1      -4.654   1.026  24.822  0.00  0.00    +0.147 C 
BRANCH  11  12
ATOM     12  N   UNL     1      -4.153   0.506  25.222  0.00  0.00    -0.203 NA
ATOM     13  C   UNL     1      -4.054  -0.265  24.945  0.00  0.00    +0.241 C 
ATOM     14  O   UNL     1      -4.456  -0.516  24.269  0.00  0.00    -0.273 OA
BRANCH  13  15
ATOM     15  C   UNL     1      -3.554  -0.786  25.344  0.00  0.00    +0.078 C 
ATOM     16  C   UNL     1      -2.794  -1.059  25.512  0.00  0.00    +0.010 C 
ATOM     17  C   UNL     1      -3.447  -1.415  25.867  0.00  0.00    +0.010 C 
ENDBRANCH  13  15
ENDBRANCH  11  12
ENDBRANCH  10  11
TORSDOF 6
ENDMDL
MODEL 2
REMARK VINA RESULT:      -9.1      0.769      4.014
REMARK  Name = 
REMARK  6 active torsions:
REMARK  status: ('A' for Active; 'I' for Inactive)
REMARK    1  A    between atoms: C_2  and  N_4
REMARK    2  A    between atoms: C_5  and  C_7
REMARK    3  A    between atoms: C_7  and  C_8
REMARK    4  A    between atoms: C_10  and  C_11
REMARK    5  A    between atoms: C_11  and  N_12
REMARK    6  A    between atoms: C_13  and  C_15
REMARK                            x       y       z     vdW  Elec       q    Type
REMARK                         _______ _______ _______ _____ _____    ______ ____
ROOT
ATOM      8  C   UNL     1      -4.685   1.634  24.794  0.00  0.00    +0.157 C 
ATOM      9  O   UNL     1      -4.040   2.085  25.043  0.00  0.00    -0.351 OA
ATOM     10  C   UNL     1      -4.330   2.767  25.405  0.00  0.00    +0.170 C 
ATOM     18  C   UNL     1      -5.154   2.738  25.379  0.00  0.00    +0.213 C 
ATOM     19  O   UNL     1      -5.669   3.310  25.679  0.00  0.00    -0.218 OA
ATOM     20  C   UNL     1      -5.374   2.039  25.002  0.00  0.00    +0.212 C 
ATOM     21  O   UNL     1      -6.146   1.787  24.857  0.00  0.00    -0.218 OA
ENDROOT
BRANCH   8   7
ATOM      7  C   UNL     1      -4.649   0.908  24.405  0.00  0.00    +0.119 C 
BRANCH   7   5
ATOM      4  N   UNL     1      -4.279  -0.370  24.926  0.00  0.00    -0.207 NA
ATOM      5  C   UNL     1      -4.066   0.360  24.606  0.00  0.00    +0.244 C 
ATOM      6  O   UNL     1      -3.271   0.542  24.488  0.00  0.00    -0.273 OA
BRANCH   4   2
ATOM      1  C   UNL     1      -3.444  -0.984  25.910  0.00  0.00    +0.023 C 
ATOM      2  C   UNL     1      -3.697  -0.918  25.128  0.00  0.00    +0.095 C 
ATOM      3  C   UNL     1      -3.366  -1.401  24.546  0.00  0.00    +0.023 C 
ENDBRANCH   4   2
ENDBRANCH   7   5
ENDBRANCH   8   7
BRANCH  10  11
ATOM     11  C   UNL     1      -3.875   3.371  25.735  0.00  0.00    +0.147 C 
BRANCH  11  12
ATOM     12  N   UNL     1      -3.153   3.577  25.391  0.00  0.00    -0.203 NA
ATOM     13  C   UNL     1      -2.651   4.106  25.774  0.00  0.00    +0.241 C 
ATOM     14  O   UNL     1      -2.869   4.431  26.501  0.00  0.00    -0.273 OA
BRANCH  13  15
ATOM     15  C   UNL     1      -1.929   4.312  25.431  0.00  0.00    +0.078 C 
ATOM     16  C   UNL     1      -1.169   4.105  25.186  0.00  0.00    +0.010 C 
ATOM     17  C   UNL     1      -1.439   4.877  25.083  0.00  0.00    +0.010 C 
ENDBRANCH  13  15
ENDBRANCH  11  12
ENDBRANCH  10  11
TORSDOF 6
ENDMDL
MODEL 3
REMARK VINA RESULT:      -8.6      1.942      3.215
REMARK  Name = 
REMARK  6 active torsions:
REMARK  status: ('A' for Active; 'I' for Inactive)
REMARK    1  A    between atoms: C_2  and  N_4
REMARK    2  A    between atoms: C_5  and  C_7
REMARK    3  A    between atoms: C_7  and  C_8
REMARK    4  A    between atoms: C_10  and  C_11
REMARK    5  A    between atoms: C_11  and  N_12
REMARK    6  A    between atoms: C_13  and  C_15
REMARK                            x       y       z     vdW  Elec       q    Type
REMARK                         _______ _______ _______ _____ _____    ______ ____
ROOT
ATOM      8  C   UNL     1      -2.781   1.800  24.021  0.00  0.00    +0.157 C 
ATOM      9  O   UNL     1      -2.864   1.023  24.288  0.00  0.00    -0.351 OA
ATOM     10  C   UNL     1      -2.129   0.654  24.233  0.00  0.00    +0.170 C 
ATOM     18  C   UNL     1      -1.591   1.202  23.932  0.00  0.00    +0.213 C 
ATOM     19  O   UNL     1      -0.790   1.065  23.787  0.00  0.00    -0.218 OA
ATOM     20  C   UNL     1      -1.993   1.910  23.800  0.00  0.00    +0.212 C 
ATOM     21  O   UNL     1      -1.666   2.606  23.502  0.00  0.00    -0.218 OA
ENDROOT
BRANCH   8   7
ATOM      7  C   UNL     1      -3.379   2.367  23.981  0.00  0.00    +0.119 C 
BRANCH   7   5
ATOM      4  N   UNL     1      -4.739   2.412  24.414  0.00  0.00    -0.207 NA
ATOM      5  C   UNL     1      -3.934   2.425  24.588  0.00  0.00    +0.244 C 
ATOM      6  O   UNL     1      -3.682   2.497  25.371  0.00  0.00    -0.273 OA
BRANCH   4   2
ATOM      1  C   UNL     1      -5.390   3.183  25.428  0.00  0.00    +0.023 C 
ATOM      2  C   UNL     1      -5.295   2.471  25.021  0.00  0.00    +0.095 C 
ATOM      3  C   UNL     1      -5.756   1.817  25.223  0.00  0.00    +0.023 C 
ENDBRANCH   4   2
ENDBRANCH   7   5
ENDBRANCH   8   7
BRANCH  10  11
ATOM     11  C   UNL     1      -1.962  -0.126  24.442  0.00  0.00    +0.147 C 
BRANCH  11  12
ATOM     12  N   UNL     1      -2.571  -0.681  24.482  0.00  0.00    -0.203 NA
ATOM     13  C   UNL     1      -2.402  -1.467  24.665  0.00  0.00    +0.241 C 
ATOM     14  O   UNL     1      -1.623  -1.699  24.809  0.00  0.00    -0.273 OA
BRANCH  13  15
ATOM     15  C   UNL     1      -3.010  -2.022  24.705  0.00  0.00    +0.078 C 
ATOM     16  C   UNL     1      -3.572  -2.496  24.328  0.00  0.00    +0.010 C 
ATOM     17  C   UNL     1      -3.504  -2.511  25.150  0.00  0.00    +0.010 C 
ENDBRANCH  13  15
ENDBRANCH  11  12
ENDBRANCH  10  11
TORSDOF 6
ENDMDL
MODEL 4
REMARK VINA RESULT:      -8.5      1.875      4.651
REMARK  Name = 
REMARK  6 active torsions:
REMARK  status: ('A' for Active; 'I' for Inactive)
REMARK    1  A    between atoms: C_2  and  N_4
REMARK    2  A    between atoms: C_5  and  C_7
REMARK    3  A    between atoms: C_7  and  C_8
REMARK    4  A    between atoms: C_10  and  C_11
REMARK    5  A    between atoms: C_11  and  N_12
REMARK    6  A    between atoms: C_13  and  C_15
REMARK                            x       y       z     vdW  Elec       q    Type
REMARK                         _______ _______ _______ _____ _____    ______ ____
ROOT
ATOM      8  C   UNL     1      -1.971   0.125  24.983  0.00  0.00    +0.157 C 
ATOM      9  O   UNL     1      -2.657   0.556  24.825  0.00  0.00    -0.351 OA
ATOM     10  C   UNL     1      -2.467   1.359  24.853  0.00  0.00    +0.170 C 
ATOM     18  C   UNL     1      -1.663   1.423  25.028  0.00  0.00    +0.213 C 
ATOM     19  O   UNL     1      -1.240   2.127  25.109  0.00  0.00    -0.218 OA
ATOM     20  C   UNL     1      -1.357   0.662  25.109  0.00  0.00    +0.212 C 
ATOM     21  O   UNL     1      -0.574   0.470  25.284  0.00  0.00    -0.218 OA
ENDROOT
BRANCH   8   7
ATOM      7  C   UNL     1      -1.910  -0.697  25.011  0.00  0.00    +0.119 C 
BRANCH   7   5
ATOM      4  N   UNL     1      -2.778  -1.643  24.386  0.00  0.00    -0.207 NA
ATOM      5  C   UNL     1      -2.590  -1.162  25.028  0.00  0.00    +0.244 C 
ATOM      6  O   UNL     1      -3.084  -1.146  25.689  0.00  0.00    -0.273 OA
BRANCH   4   2
ATOM      1  C   UNL     1      -4.129  -1.877  23.980  0.00  0.00    +0.023 C 
ATOM      2  C   UNL     1      -3.459  -2.108  24.403  0.00  0.00    +0.095 C 
ATOM      3  C   UNL     1      -3.471  -2.805  24.844  0.00  0.00    +0.023 C 
ENDBRANCH   4   2
ENDBRANCH   7   5
ENDBRANCH   8   7
BRANCH  10  11
ATOM     11  C   UNL     1      -2.989   1.984  24.728  0.00  0.00    +0.147 C 
BRANCH  11  12
ATOM     12  N   UNL     1      -3.773   1.924  24.980  0.00  0.00    -0.203 NA
ATOM     13  C   UNL     1      -4.320   2.501  24.765  0.00  0.00    +0.241 C 
ATOM     14  O   UNL     1      -4.085   3.140  24.298  0.00  0.00    -0.273 OA
BRANCH  13  15
ATOM     15  C   UNL     1      -5.104   2.441  25.016  0.00  0.00    +0.078 C 
ATOM     16  C   UNL     1      -5.836   2.060  24.990  0.00  0.00    +0.010 C 
ATOM     17  C   UNL     1      -5.730   2.717  25.478  0.00  0.00    +0.010 C 
ENDBRANCH  13  15
ENDBRANCH  11  12
ENDBRANCH  10  11
TORSDOF 6
ENDMDL
MODEL 5
REMARK VINA RESULT:      -8.4      1.603      4.379
REMARK  Name = 
REMARK  6 active torsions:
REMARK  status: ('A' for Active; 'I' for Inactive)
REMARK    1  A    between atoms: C_2  and  N_4
REMARK    2  A    between atoms: C_5  and  C_7
REMARK    3  A    between atoms: C_7  and  C_8
REMARK    4  A    between atoms: C_10  and  C_11
REMARK    5  A    between atoms: C_11  and  N_12
REMARK    6  A    between atoms: C_13  and  C_15
REMARK                            x       y       z     vdW  Elec       q    Type
REMARK                         _______ _______ _______ _____ _____    ______ ____
ROOT
ATOM      8  C   UNL     1      -3.087   0.836  24.784  0.00  0.00    +0.157 C 
ATOM      9  O   UNL     1      -2.730   1.540  25.023  0.00  0.00    -0.351 OA
ATOM     10  C   UNL     1      -1.912   1.442  24.971  0.00  0.00    +0.170 C 
ATOM     18  C   UNL     1      -1.765   0.677  24.699  0.00  0.00    +0.213 C 
ATOM     19  O   UNL     1      -1.021   0.346  24.567  0.00  0.00    -0.218 OA
ATOM     20  C   UNL     1      -2.490   0.302  24.584  0.00  0.00    +0.212 C 
ATOM     21  O   UNL     1      -2.600  -0.470  24.315  0.00  0.00    -0.218 OA
ENDROOT
BRANCH   8   7
ATOM      7  C   UNL     1      -3.899   0.690  24.750  0.00  0.00    +0.119 C 
BRANCH   7   5
ATOM      4  N   UNL     1      -4.986   1.406  25.337  0.00  0.00    -0.207 NA
ATOM      5  C   UNL     1      -4.431   1.319  24.734  0.00  0.00    +0.244 C 
ATOM      6  O   UNL     1      -4.410   1.861  24.112  0.00  0.00    -0.273 OA
BRANCH   4   2
ATOM      1  C   UNL     1      -5.341   2.739  25.714  0.00  0.00    +0.023 C 
ATOM      2  C   UNL     1      -5.519   2.036  25.321  0.00  0.00    +0.095 C 
ATOM      3  C   UNL     1      -6.231   1.962  24.911  0.00  0.00    +0.023 C 
ENDBRANCH   4   2
ENDBRANCH   7   5
ENDBRANCH   8   7
BRANCH  10  11
ATOM     11  C   UNL     1      -1.344   2.010  25.158  0.00  0.00    +0.147 C 
BRANCH  11  12
ATOM     12  N   UNL     1      -1.505   2.810  25.034  0.00  0.00    -0.203 NA
ATOM     13  C   UNL     1      -0.985   3.383  25.318  0.00  0.00    +0.241 C 
ATOM     14  O   UNL     1      -0.304   3.158  25.727  0.00  0.00    -0.273 OA
BRANCH  13  15
ATOM     15  C   UNL     1      -1.145   4.183  25.195  0.00  0.00    +0.078 C 
ATOM     16  C   UNL     1      -1.646   4.834  25.281  0.00  0.00    +0.010 C 
ATOM     17  C   UNL     1      -0.922   4.919  24.894  0.00  0.00    +0.010 C 
ENDBRANCH  13  15
ENDBRANCH  11  12
ENDBRANCH  10  11
TORSDOF 6
ENDMDL
