REMARK  Name = 
REMARK  7 active torsions:
REMARK  status: ('A' for Active; 'I' for Inactive)
REMARK    1  A    between atoms: C_2  and  C_3
REMARK    2  A    between atoms: C_3  and  C_4
REMARK    3  A    between atoms: C_9  and  C_10
REMARK    4  A    between atoms: C_10  and  C_11
REMARK    5  A    between atoms: C_14  and  C_16
REMARK    6  A    between atoms: N_22  and  C_23
REMARK    7  A    between atoms: C_23  and  C_24
REMARK                            x       y       z     vdW  Elec       q    Type
REMARK                         _______ _______ _______ _____ _____    ______ ____
ROOT
ATOM      4  C   UNL     1       1.429   0.825   0.000  0.00  0.00    +0.012 C 
ATOM      5  C   UNL     1       2.143   1.238   0.000  0.00  0.00    +0.019 C 
ATOM      6  C   UNL     1       2.858   0.825   0.000  0.00  0.00    +0.089 C 
ATOM      7  N   UNL     1       2.858   0.000   0.000  0.00  0.00    -0.218 NA
ATOM      8  C   UNL     1       2.143  -0.412   0.000  0.00  0.00    +0.089 C 
ATOM      9  C   UNL     1       1.429   0.000   0.000  0.00  0.00    +0.024 C 
ENDROOT
BRANCH   4   3
ATOM      3  C   UNL     1       0.715   1.238   0.000  0.00  0.00    +0.087 C 
BRANCH   3   2
ATOM      1  O   UNL     1       0.000   2.475   0.000  0.00  0.00    -0.273 OA
ATOM      2  C   UNL     1       0.715   2.062   0.000  0.00  0.00    +0.242 C 
ATOM     22  N   UNL     1       1.429   2.475   0.000  0.00  0.00    -0.200 NA
BRANCH  22  23
ATOM     23  C   UNL     1       1.429   3.300   0.000  0.00  0.00    +0.148 C 
BRANCH  23  24
ATOM     24  C   UNL     1       2.143   3.712   0.000  0.00  0.00    +0.029 A 
ATOM     25  C   UNL     1       2.230   4.533   0.000  0.00  0.00    +0.004 A 
ATOM     26  C   UNL     1       3.037   4.705   0.000  0.00  0.00    +0.007 A 
ATOM     27  C   UNL     1       3.449   3.990   0.000  0.00  0.00    +0.035 A 
ATOM     28  S   UNL     1       2.897   3.377   0.000  0.00  0.00    -0.089 S 
ENDBRANCH  23  24
ENDBRANCH  22  23
ENDBRANCH   3   2
ENDBRANCH   4   3
BRANCH   9  10
ATOM     10  C   UNL     1       0.715  -0.412   0.000  0.00  0.00    +0.051 C 
BRANCH  10  11
ATOM     11  C   UNL     1       0.715  -1.238   0.000  0.00  0.00    +0.101 A 
ATOM     12  N   UNL     1       1.382  -1.722   0.000  0.00  0.00    -0.081 NA
ATOM     13  O   UNL     1       1.127  -2.507   0.000  0.00  0.00    -0.354 OA
ATOM     14  C   UNL     1       0.302  -2.507   0.000  0.00  0.00    +0.177 A 
ATOM     15  C   UNL     1       0.047  -1.722   0.000  0.00  0.00    +0.058 A 
BRANCH  14  16
ATOM     16  C   UNL     1      -0.183  -3.175   0.000  0.00  0.00    +0.037 A 
ATOM     17  C   UNL     1       0.153  -3.928   0.000  0.00  0.00    +0.003 A 
ATOM     18  C   UNL     1      -0.332  -4.596   0.000  0.00  0.00    +0.000 A 
ATOM     19  C   UNL     1      -1.153  -4.509   0.000  0.00  0.00    +0.000 A 
ATOM     20  C   UNL     1      -1.488  -3.756   0.000  0.00  0.00    +0.000 A 
ATOM     21  C   UNL     1      -1.003  -3.088   0.000  0.00  0.00    +0.003 A 
ENDBRANCH  14  16
ENDBRANCH  10  11
ENDBRANCH   9  10
TORSDOF 7
