MODEL 1
REMARK VINA RESULT:      -8.8      0.000      0.000
REMARK  Name = 
REMARK  6 active torsions:
REMARK  status: ('A' for Active; 'I' for Inactive)
REMARK    1  A    between atoms: N_4  and  C_5
REMARK    2  A    between atoms: C_8  and  C_9
REMARK    3  A    between atoms: C_9  and  N_10
REMARK    4  A    between atoms: C_14  and  C_15
REMARK    5  A    between atoms: C_17  and  C_20
REMARK    6  A    between atoms: C_23  and  N_26
REMARK                            x       y       z     vdW  Elec       q    Type
REMARK                         _______ _______ _______ _____ _____    ______ ____
ROOT
ATOM     15  C   UNL     1      -2.287  -0.781  24.570  0.00  0.00    +0.251 A 
ATOM     16  N   UNL     1      -1.734  -0.530  24.011  0.00  0.00    -0.190 NA
ATOM     17  C   UNL     1      -0.984  -0.592  24.349  0.00  0.00    +0.205 A 
ATOM     18  N   UNL     1      -1.073  -0.880  25.116  0.00  0.00    -0.056 NA
ATOM     19  O   UNL     1      -1.877  -0.997  25.253  0.00  0.00    -0.336 OA
ENDROOT
BRANCH  17  20
ATOM     20  C   UNL     1      -0.270  -0.398  23.984  0.00  0.00    +0.058 A 
ATOM     21  C   UNL     1      -0.132   0.375  23.733  0.00  0.00    +0.008 A 
ATOM     22  C   UNL     1       0.582   0.569  23.367  0.00  0.00    +0.034 A 
ATOM     23  C   UNL     1       1.158  -0.011  23.253  0.00  0.00    +0.132 A 
ATOM     24  N   UNL     1       1.020  -0.785  23.504  0.00  0.00    -0.229 NA
ATOM     25  C   UNL     1       0.305  -0.978  23.869  0.00  0.00    +0.103 A 
BRANCH  23  26
ATOM     26  N   UNL     1       1.872   0.183  22.887  0.00  0.00    -0.288 N 
ATOM     27  C   UNL     1       2.051  -0.127  22.144  0.00  0.00    +0.124 C 
ATOM     28  C   UNL     1       2.766   0.066  21.778  0.00  0.00    +0.164 C 
ATOM     29  O   UNL     1       3.299   0.569  22.156  0.00  0.00    -0.350 OA
ATOM     30  C   UNL     1       3.120   0.879  22.899  0.00  0.00    +0.164 C 
ATOM     31  C   UNL     1       2.406   0.686  23.265  0.00  0.00    +0.124 C 
ENDBRANCH  23  26
ENDBRANCH  17  20
BRANCH  15  14
ATOM     10  N   UNL     1      -3.640  -0.218  24.665  0.00  0.00    -0.263 NA
ATOM     11  C   UNL     1      -4.397  -0.478  24.464  0.00  0.00    +0.073 C 
ATOM     12  C   UNL     1      -4.328  -1.233  24.138  0.00  0.00    +0.019 C 
ATOM     13  C   UNL     1      -3.529  -1.439  24.139  0.00  0.00    +0.027 C 
ATOM     14  C   UNL     1      -3.104  -0.811  24.464  0.00  0.00    +0.138 C 
BRANCH  10   9
ATOM      9  C   UNL     1      -3.453   0.509  25.007  0.00  0.00    +0.099 C 
BRANCH   9   8
ATOM      5  C   UNL     1      -5.125   2.335  25.027  0.00  0.00    +0.073 A 
ATOM      6  C   UNL     1      -5.195   1.706  25.555  0.00  0.00    +0.016 A 
ATOM      7  C   UNL     1      -4.639   1.097  25.549  0.00  0.00    -0.002 A 
ATOM      8  C   UNL     1      -4.011   1.118  25.013  0.00  0.00    -0.006 A 
ATOM     32  C   UNL     1      -3.940   1.748  24.485  0.00  0.00    -0.002 A 
ATOM     33  C   UNL     1      -4.498   2.356  24.492  0.00  0.00    +0.016 A 
BRANCH   5   4
ATOM      1  C   UNL     1      -6.091   4.242  25.469  0.00  0.00    +0.097 C 
ATOM      2  C   UNL     1      -5.534   3.633  25.462  0.00  0.00    +0.246 C 
ATOM      3  O   UNL     1      -4.829   3.715  25.883  0.00  0.00    -0.273 OA
ATOM      4  N   UNL     1      -5.682   2.943  25.034  0.00  0.00    -0.179 NA
ENDBRANCH   5   4
ENDBRANCH   9   8
ENDBRANCH  10   9
ENDBRANCH  15  14
TORSDOF 6
ENDMDL
MODEL 2
REMARK VINA RESULT:      -8.4      2.985      4.808
REMARK  Name = 
REMARK  6 active torsions:
REMARK  status: ('A' for Active; 'I' for Inactive)
REMARK    1  A    between atoms: N_4  and  C_5
REMARK    2  A    between atoms: C_8  and  C_9
REMARK    3  A    between atoms: C_9  and  N_10
REMARK    4  A    between atoms: C_14  and  C_15
REMARK    5  A    between atoms: C_17  and  C_20
REMARK    6  A    between atoms: C_23  and  N_26
REMARK                            x       y       z     vdW  Elec       q    Type
REMARK                         _______ _______ _______ _____ _____    ______ ____
ROOT
ATOM     15  C   UNL     1      -5.302   1.991  25.500  0.00  0.00    +0.251 A 
ATOM     16  N   UNL     1      -4.682   1.523  25.219  0.00  0.00    -0.190 NA
ATOM     17  C   UNL     1      -4.884   0.733  25.341  0.00  0.00    +0.205 A 
ATOM     18  N   UNL     1      -5.627   0.712  25.697  0.00  0.00    -0.056 NA
ATOM     19  O   UNL     1      -5.885   1.489  25.795  0.00  0.00    -0.336 OA
ENDROOT
BRANCH  17  20
ATOM     20  C   UNL     1      -4.422   0.079  25.142  0.00  0.00    +0.058 A 
ATOM     21  C   UNL     1      -4.365  -0.161  24.355  0.00  0.00    +0.008 A 
ATOM     22  C   UNL     1      -3.903  -0.816  24.156  0.00  0.00    +0.034 A 
ATOM     23  C   UNL     1      -3.500  -1.230  24.744  0.00  0.00    +0.132 A 
ATOM     24  N   UNL     1      -3.557  -0.991  25.532  0.00  0.00    -0.229 NA
ATOM     25  C   UNL     1      -4.019  -0.336  25.731  0.00  0.00    +0.103 A 
BRANCH  23  26
ATOM     26  N   UNL     1      -3.038  -1.885  24.545  0.00  0.00    -0.288 N 
ATOM     27  C   UNL     1      -3.398  -2.610  24.387  0.00  0.00    +0.124 C 
ATOM     28  C   UNL     1      -2.937  -3.264  24.188  0.00  0.00    +0.164 C 
ATOM     29  O   UNL     1      -2.116  -3.194  24.148  0.00  0.00    -0.350 OA
ATOM     30  C   UNL     1      -1.756  -2.469  24.306  0.00  0.00    +0.164 C 
ATOM     31  C   UNL     1      -2.217  -1.814  24.505  0.00  0.00    +0.124 C 
ENDBRANCH  23  26
ENDBRANCH  17  20
BRANCH  15  14
ATOM     10  N   UNL     1      -4.693   3.325  25.598  0.00  0.00    -0.263 NA
ATOM     11  C   UNL     1      -4.971   4.099  25.541  0.00  0.00    +0.073 C 
ATOM     12  C   UNL     1      -5.782   4.068  25.394  0.00  0.00    +0.019 C 
ATOM     13  C   UNL     1      -6.005   3.274  25.361  0.00  0.00    +0.027 C 
ATOM     14  C   UNL     1      -5.331   2.815  25.487  0.00  0.00    +0.138 C 
BRANCH  10   9
ATOM      9  C   UNL     1      -3.912   3.100  25.741  0.00  0.00    +0.099 C 
BRANCH   9   8
ATOM      5  C   UNL     1      -2.059   4.655  25.217  0.00  0.00    +0.073 A 
ATOM      6  C   UNL     1      -2.431   4.237  24.610  0.00  0.00    +0.016 A 
ATOM      7  C   UNL     1      -3.049   3.718  24.785  0.00  0.00    -0.002 A 
ATOM      8  C   UNL     1      -3.294   3.618  25.566  0.00  0.00    -0.006 A 
ATOM     32  C   UNL     1      -2.922   4.036  26.173  0.00  0.00    -0.002 A 
ATOM     33  C   UNL     1      -2.304   4.554  25.997  0.00  0.00    +0.016 A 
BRANCH   5   4
ATOM      1  C   UNL     1      -0.085   5.394  24.650  0.00  0.00    +0.097 C 
ATOM      2  C   UNL     1      -0.703   4.875  24.825  0.00  0.00    +0.246 C 
ATOM      3  O   UNL     1      -0.582   4.060  24.784  0.00  0.00    -0.273 OA
ATOM      4  N   UNL     1      -1.442   5.172  25.042  0.00  0.00    -0.179 NA
ENDBRANCH   5   4
ENDBRANCH   9   8
ENDBRANCH  10   9
ENDBRANCH  15  14
TORSDOF 6
ENDMDL
MODEL 3
REMARK VINA RESULT:      -8.0      0.962      6.411
REMARK  Name = 
REMARK  6 active torsions:
REMARK  status: ('A' for Active; 'I' for Inactive)
REMARK    1  A    between atoms: N_4  and  C_5
REMARK    2  A    between atoms: C_8  and  C_9
REMARK    3  A    between atoms: C_9  and  N_10
REMARK    4  A    between atoms: C_14  and  C_15
REMARK    5  A    between atoms: C_17  and  C_20
REMARK    6  A    between atoms: C_23  and  N_26
REMARK                            x       y       z     vdW  Elec       q    Type
REMARK                         _______ _______ _______ _____ _____    ______ ____
ROOT
ATOM     15  C   UNL     1      -1.953  -0.716  24.556  0.00  0.00    +0.251 A 
ATOM     16  N   UNL     1      -2.243  -0.013  24.878  0.00  0.00    -0.190 NA
ATOM     17  C   UNL     1      -3.013   0.096  24.602  0.00  0.00    +0.205 A 
ATOM     18  N   UNL     1      -3.198  -0.539  24.109  0.00  0.00    -0.056 NA
ATOM     19  O   UNL     1      -2.545  -1.040  24.081  0.00  0.00    -0.336 OA
ENDROOT
BRANCH  17  20
ATOM     20  C   UNL     1      -3.509   0.729  24.786  0.00  0.00    +0.058 A 
ATOM     21  C   UNL     1      -4.292   0.588  25.005  0.00  0.00    +0.008 A 
ATOM     22  C   UNL     1      -4.789   1.221  25.189  0.00  0.00    +0.034 A 
ATOM     23  C   UNL     1      -4.502   1.994  25.154  0.00  0.00    +0.132 A 
ATOM     24  N   UNL     1      -3.719   2.134  24.935  0.00  0.00    -0.229 NA
ATOM     25  C   UNL     1      -3.223   1.501  24.751  0.00  0.00    +0.103 A 
BRANCH  23  26
ATOM     26  N   UNL     1      -4.999   2.627  25.338  0.00  0.00    -0.288 N 
ATOM     27  C   UNL     1      -5.766   2.484  25.605  0.00  0.00    +0.124 C 
ATOM     28  C   UNL     1      -6.263   3.117  25.789  0.00  0.00    +0.164 C 
ATOM     29  O   UNL     1      -5.992   3.892  25.707  0.00  0.00    -0.350 OA
ATOM     30  C   UNL     1      -5.224   4.034  25.440  0.00  0.00    +0.164 C 
ATOM     31  C   UNL     1      -4.727   3.401  25.256  0.00  0.00    +0.124 C 
ENDBRANCH  23  26
ENDBRANCH  17  20
BRANCH  15  14
ATOM     10  N   UNL     1      -0.514  -0.831  24.287  0.00  0.00    -0.263 NA
ATOM     11  C   UNL     1       0.103  -1.286  24.593  0.00  0.00    +0.073 C 
ATOM     12  C   UNL     1      -0.208  -1.773  25.182  0.00  0.00    +0.019 C 
ATOM     13  C   UNL     1      -1.016  -1.619  25.240  0.00  0.00    +0.027 C 
ATOM     14  C   UNL     1      -1.205  -1.036  24.686  0.00  0.00    +0.138 C 
BRANCH  10   9
ATOM      9  C   UNL     1      -0.449  -0.269  23.687  0.00  0.00    +0.099 C 
BRANCH   9   8
ATOM      5  C   UNL     1       1.782   0.538  22.981  0.00  0.00    +0.073 A 
ATOM      6  C   UNL     1       1.385   0.912  23.600  0.00  0.00    +0.016 A 
ATOM      7  C   UNL     1       0.642   0.643  23.836  0.00  0.00    -0.002 A 
ATOM      8  C   UNL     1       0.295   0.000  23.451  0.00  0.00    -0.006 A 
ATOM     32  C   UNL     1       0.691  -0.373  22.832  0.00  0.00    -0.002 A 
ATOM     33  C   UNL     1       1.435  -0.103  22.597  0.00  0.00    +0.016 A 
BRANCH   5   4
ATOM      1  C   UNL     1       3.930   0.589  22.595  0.00  0.00    +0.097 C 
ATOM      2  C   UNL     1       3.185   0.320  22.830  0.00  0.00    +0.246 C 
ATOM      3  O   UNL     1       3.103  -0.435  23.150  0.00  0.00    -0.273 OA
ATOM      4  N   UNL     1       2.525   0.807  22.746  0.00  0.00    -0.179 NA
ENDBRANCH   5   4
ENDBRANCH   9   8
ENDBRANCH  10   9
ENDBRANCH  15  14
TORSDOF 6
ENDMDL
MODEL 4
REMARK VINA RESULT:      -7.7      2.522      3.946
REMARK  Name = 
REMARK  6 active torsions:
REMARK  status: ('A' for Active; 'I' for Inactive)
REMARK    1  A    between atoms: N_4  and  C_5
REMARK    2  A    between atoms: C_8  and  C_9
REMARK    3  A    between atoms: C_9  and  N_10
REMARK    4  A    between atoms: C_14  and  C_15
REMARK    5  A    between atoms: C_17  and  C_20
REMARK    6  A    between atoms: C_23  and  N_26
REMARK                            x       y       z     vdW  Elec       q    Type
REMARK                         _______ _______ _______ _____ _____    ______ ____
ROOT
ATOM     15  C   UNL     1      -0.437   3.132  25.156  0.00  0.00    +0.251 A 
ATOM     16  N   UNL     1      -0.845   2.432  24.996  0.00  0.00    -0.190 NA
ATOM     17  C   UNL     1      -0.339   1.801  25.154  0.00  0.00    +0.205 A 
ATOM     18  N   UNL     1       0.381   2.109  25.411  0.00  0.00    -0.056 NA
ATOM     19  O   UNL     1       0.321   2.930  25.412  0.00  0.00    -0.336 OA
ENDROOT
BRANCH  17  20
ATOM     20  C   UNL     1      -0.522   1.000  25.069  0.00  0.00    +0.058 A 
ATOM     21  C   UNL     1      -0.897   0.596  25.683  0.00  0.00    +0.008 A 
ATOM     22  C   UNL     1      -1.080  -0.204  25.599  0.00  0.00    +0.034 A 
ATOM     23  C   UNL     1      -0.888  -0.600  24.901  0.00  0.00    +0.132 A 
ATOM     24  N   UNL     1      -0.512  -0.196  24.287  0.00  0.00    -0.229 NA
ATOM     25  C   UNL     1      -0.330   0.604  24.372  0.00  0.00    +0.103 A 
BRANCH  23  26
ATOM     26  N   UNL     1      -1.071  -1.400  24.816  0.00  0.00    -0.288 N 
ATOM     27  C   UNL     1      -0.533  -1.974  25.065  0.00  0.00    +0.124 C 
ATOM     28  C   UNL     1      -0.716  -2.775  24.981  0.00  0.00    +0.164 C 
ATOM     29  O   UNL     1      -1.436  -3.000  24.647  0.00  0.00    -0.350 OA
ATOM     30  C   UNL     1      -1.974  -2.426  24.398  0.00  0.00    +0.164 C 
ATOM     31  C   UNL     1      -1.791  -1.626  24.483  0.00  0.00    +0.124 C 
ENDBRANCH  23  26
ENDBRANCH  17  20
BRANCH  15  14
ATOM     10  N   UNL     1      -1.418   4.191  25.428  0.00  0.00    -0.263 NA
ATOM     11  C   UNL     1      -1.508   4.978  25.197  0.00  0.00    +0.073 C 
ATOM     12  C   UNL     1      -0.879   5.169  24.698  0.00  0.00    +0.019 C 
ATOM     13  C   UNL     1      -0.401   4.501  24.622  0.00  0.00    +0.027 C 
ATOM     14  C   UNL     1      -0.734   3.896  25.074  0.00  0.00    +0.138 C 
BRANCH  10   9
ATOM      9  C   UNL     1      -1.923   3.773  25.928  0.00  0.00    +0.099 C 
BRANCH   9   8
ATOM      5  C   UNL     1      -4.374   3.895  25.595  0.00  0.00    +0.073 A 
ATOM      6  C   UNL     1      -4.036   4.189  26.288  0.00  0.00    +0.016 A 
ATOM      7  C   UNL     1      -3.220   4.149  26.399  0.00  0.00    -0.002 A 
ATOM      8  C   UNL     1      -2.741   3.813  25.817  0.00  0.00    -0.006 A 
ATOM     32  C   UNL     1      -3.078   3.519  25.124  0.00  0.00    -0.002 A 
ATOM     33  C   UNL     1      -3.895   3.560  25.014  0.00  0.00    +0.016 A 
BRANCH   5   4
ATOM      1  C   UNL     1      -6.480   3.323  25.548  0.00  0.00    +0.097 C 
ATOM      2  C   UNL     1      -5.662   3.283  25.659  0.00  0.00    +0.246 C 
ATOM      3  O   UNL     1      -5.320   2.589  25.944  0.00  0.00    -0.273 OA
ATOM      4  N   UNL     1      -5.189   3.936  25.484  0.00  0.00    -0.179 NA
ENDBRANCH   5   4
ENDBRANCH   9   8
ENDBRANCH  10   9
ENDBRANCH  15  14
TORSDOF 6
ENDMDL
MODEL 5
REMARK VINA RESULT:      -7.3      2.290      3.158
REMARK  Name = 
REMARK  6 active torsions:
REMARK  status: ('A' for Active; 'I' for Inactive)
REMARK    1  A    between atoms: N_4  and  C_5
REMARK    2  A    between atoms: C_8  and  C_9
REMARK    3  A    between atoms: C_9  and  N_10
REMARK    4  A    between atoms: C_14  and  C_15
REMARK    5  A    between atoms: C_17  and  C_20
REMARK    6  A    between atoms: C_23  and  N_26
REMARK                            x       y       z     vdW  Elec       q    Type
REMARK                         _______ _______ _______ _____ _____    ______ ____
ROOT
ATOM     15  C   UNL     1      -0.891   3.444  25.354  0.00  0.00    +0.251 A 
ATOM     16  N   UNL     1      -0.615   3.057  24.679  0.00  0.00    -0.190 NA
ATOM     17  C   UNL     1      -0.074   2.482  24.918  0.00  0.00    +0.205 A 
ATOM     18  N   UNL     1      -0.016   2.513  25.740  0.00  0.00    -0.056 NA
ATOM     19  O   UNL     1      -0.520   3.107  26.009  0.00  0.00    -0.336 OA
ENDROOT
BRANCH  17  20
ATOM     20  C   UNL     1       0.336   1.966  24.422  0.00  0.00    +0.058 A 
ATOM     21  C   UNL     1      -0.015   1.260  24.181  0.00  0.00    +0.008 A 
ATOM     22  C   UNL     1       0.395   0.744  23.684  0.00  0.00    +0.034 A 
ATOM     23  C   UNL     1       1.156   0.934  23.429  0.00  0.00    +0.132 A 
ATOM     24  N   UNL     1       1.508   1.641  23.671  0.00  0.00    -0.229 NA
ATOM     25  C   UNL     1       1.097   2.157  24.167  0.00  0.00    +0.103 A 
BRANCH  23  26
ATOM     26  N   UNL     1       1.567   0.418  22.933  0.00  0.00    -0.288 N 
ATOM     27  C   UNL     1       1.151  -0.091  22.435  0.00  0.00    +0.124 C 
ATOM     28  C   UNL     1       1.562  -0.607  21.938  0.00  0.00    +0.164 C 
ATOM     29  O   UNL     1       2.387  -0.613  21.940  0.00  0.00    -0.350 OA
ATOM     30  C   UNL     1       2.802  -0.104  22.439  0.00  0.00    +0.164 C 
ATOM     31  C   UNL     1       2.392   0.412  22.935  0.00  0.00    +0.124 C 
ENDBRANCH  23  26
ENDBRANCH  17  20
BRANCH  15  14
ATOM     10  N   UNL     1      -2.230   3.997  25.594  0.00  0.00    -0.263 NA
ATOM     11  C   UNL     1      -2.575   4.743  25.527  0.00  0.00    +0.073 C 
ATOM     12  C   UNL     1      -1.996   5.268  25.261  0.00  0.00    +0.019 C 
ATOM     13  C   UNL     1      -1.294   4.845  25.164  0.00  0.00    +0.027 C 
ATOM     14  C   UNL     1      -1.440   4.059  25.370  0.00  0.00    +0.138 C 
BRANCH  10   9
ATOM      9  C   UNL     1      -2.611   3.308  25.842  0.00  0.00    +0.099 C 
BRANCH   9   8
ATOM      5  C   UNL     1      -4.931   2.844  25.112  0.00  0.00    +0.073 A 
ATOM      6  C   UNL     1      -4.295   2.554  24.674  0.00  0.00    +0.016 A 
ATOM      7  C   UNL     1      -3.522   2.708  24.917  0.00  0.00    -0.002 A 
ATOM      8  C   UNL     1      -3.385   3.154  25.598  0.00  0.00    -0.006 A 
ATOM     32  C   UNL     1      -4.021   3.444  26.036  0.00  0.00    -0.002 A 
ATOM     33  C   UNL     1      -4.794   3.288  25.792  0.00  0.00    +0.016 A 
BRANCH   5   4
ATOM      1  C   UNL     1      -6.818   1.799  24.777  0.00  0.00    +0.097 C 
ATOM      2  C   UNL     1      -6.044   1.954  25.021  0.00  0.00    +0.246 C 
ATOM      3  O   UNL     1      -5.613   1.373  25.417  0.00  0.00    -0.273 OA
ATOM      4  N   UNL     1      -5.703   2.689  24.868  0.00  0.00    -0.179 NA
ENDBRANCH   5   4
ENDBRANCH   9   8
ENDBRANCH  10   9
ENDBRANCH  15  14
TORSDOF 6
ENDMDL
MODEL 6
REMARK VINA RESULT:      -7.0      1.569      3.227
REMARK  Name = 
REMARK  6 active torsions:
REMARK  status: ('A' for Active; 'I' for Inactive)
REMARK    1  A    between atoms: N_4  and  C_5
REMARK    2  A    between atoms: C_8  and  C_9
REMARK    3  A    between atoms: C_9  and  N_10
REMARK    4  A    between atoms: C_14  and  C_15
REMARK    5  A    between atoms: C_17  and  C_20
REMARK    6  A    between atoms: C_23  and  N_26
REMARK                            x       y       z     vdW  Elec       q    Type
REMARK                         _______ _______ _______ _____ _____    ______ ____
ROOT
ATOM     15  C   UNL     1      -1.964   2.161  24.706  0.00  0.00    +0.251 A 
ATOM     16  N   UNL     1      -1.441   1.784  24.190  0.00  0.00    -0.190 NA
ATOM     17  C   UNL     1      -0.675   1.900  24.473  0.00  0.00    +0.205 A 
ATOM     18  N   UNL     1      -0.724   2.348  25.164  0.00  0.00    -0.056 NA
ATOM     19  O   UNL     1      -1.520   2.508  25.308  0.00  0.00    -0.336 OA
ENDROOT
BRANCH  17  20
ATOM     20  C   UNL     1       0.018   1.618  24.126  0.00  0.00    +0.058 A 
ATOM     21  C   UNL     1       0.008   0.911  23.700  0.00  0.00    +0.008 A 
ATOM     22  C   UNL     1       0.701   0.629  23.353  0.00  0.00    +0.034 A 
ATOM     23  C   UNL     1       1.404   1.052  23.433  0.00  0.00    +0.132 A 
ATOM     24  N   UNL     1       1.415   1.759  23.859  0.00  0.00    -0.229 NA
ATOM     25  C   UNL     1       0.722   2.041  24.206  0.00  0.00    +0.103 A 
BRANCH  23  26
ATOM     26  N   UNL     1       2.098   0.770  23.086  0.00  0.00    -0.288 N 
ATOM     27  C   UNL     1       2.804   1.186  23.178  0.00  0.00    +0.124 C 
ATOM     28  C   UNL     1       3.498   0.904  22.831  0.00  0.00    +0.164 C 
ATOM     29  O   UNL     1       3.485   0.205  22.393  0.00  0.00    -0.350 OA
ATOM     30  C   UNL     1       2.778  -0.211  22.300  0.00  0.00    +0.164 C 
ATOM     31  C   UNL     1       2.085   0.071  22.647  0.00  0.00    +0.124 C 
ENDBRANCH  23  26
ENDBRANCH  17  20
BRANCH  15  14
ATOM     10  N   UNL     1      -3.307   1.581  24.837  0.00  0.00    -0.263 NA
ATOM     11  C   UNL     1      -4.073   1.839  24.673  0.00  0.00    +0.073 C 
ATOM     12  C   UNL     1      -4.024   2.603  24.365  0.00  0.00    +0.019 C 
ATOM     13  C   UNL     1      -3.228   2.817  24.340  0.00  0.00    +0.027 C 
ATOM     14  C   UNL     1      -2.785   2.185  24.632  0.00  0.00    +0.138 C 
BRANCH  10   9
ATOM      9  C   UNL     1      -3.100   0.847  25.152  0.00  0.00    +0.099 C 
BRANCH   9   8
ATOM      5  C   UNL     1      -4.158  -1.216  24.284  0.00  0.00    +0.073 A 
ATOM      6  C   UNL     1      -4.187  -1.045  25.090  0.00  0.00    +0.016 A 
ATOM      7  C   UNL     1      -3.835  -0.358  25.380  0.00  0.00    -0.002 A 
ATOM      8  C   UNL     1      -3.453   0.159  24.862  0.00  0.00    -0.006 A 
ATOM     32  C   UNL     1      -3.424  -0.011  24.056  0.00  0.00    -0.002 A 
ATOM     33  C   UNL     1      -3.776  -0.699  23.767  0.00  0.00    +0.016 A 
BRANCH   5   4
ATOM      1  C   UNL     1      -4.438  -3.299  23.694  0.00  0.00    +0.097 C 
ATOM      2  C   UNL     1      -4.086  -2.610  23.983  0.00  0.00    +0.246 C 
ATOM      3  O   UNL     1      -3.309  -2.631  24.261  0.00  0.00    -0.273 OA
ATOM      4  N   UNL     1      -4.510  -1.903  23.995  0.00  0.00    -0.179 NA
ENDBRANCH   5   4
ENDBRANCH   9   8
ENDBRANCH  10   9
ENDBRANCH  15  14
TORSDOF 6
ENDMDL
MODEL 7
REMARK VINA RESULT:      -7.0      1.792      5.780
REMARK  Name = 
REMARK  6 active torsions:
REMARK  status: ('A' for Active; 'I' for Inactive)
REMARK    1  A    between atoms: N_4  and  C_5
REMARK    2  A    between atoms: C_8  and  C_9
REMARK    3  A    between atoms: C_9  and  N_10
REMARK    4  A    between atoms: C_14  and  C_15
REMARK    5  A    between atoms: C_17  and  C_20
REMARK    6  A    between atoms: C_23  and  N_26
REMARK                            x       y       z     vdW  Elec       q    Type
REMARK                         _______ _______ _______ _____ _____    ______ ____
ROOT
ATOM     15  C   UNL     1      -0.636   1.251  24.490  0.00  0.00    +0.251 A 
ATOM     16  N   UNL     1      -1.446   1.409  24.464  0.00  0.00    -0.190 NA
ATOM     17  C   UNL     1      -1.587   2.091  24.905  0.00  0.00    +0.205 A 
ATOM     18  N   UNL     1      -0.866   2.356  25.203  0.00  0.00    -0.056 NA
ATOM     19  O   UNL     1      -0.279   1.837  24.947  0.00  0.00    -0.336 OA
ENDROOT
BRANCH  17  20
ATOM     20  C   UNL     1      -2.322   2.447  25.025  0.00  0.00    +0.058 A 
ATOM     21  C   UNL     1      -2.964   2.238  24.551  0.00  0.00    +0.008 A 
ATOM     22  C   UNL     1      -3.699   2.594  24.672  0.00  0.00    +0.034 A 
ATOM     23  C   UNL     1      -3.791   3.158  25.267  0.00  0.00    +0.132 A 
ATOM     24  N   UNL     1      -3.150   3.367  25.741  0.00  0.00    -0.229 NA
ATOM     25  C   UNL     1      -2.415   3.011  25.620  0.00  0.00    +0.103 A 
BRANCH  23  26
ATOM     26  N   UNL     1      -4.526   3.514  25.388  0.00  0.00    -0.288 N 
ATOM     27  C   UNL     1      -5.162   3.064  25.659  0.00  0.00    +0.124 C 
ATOM     28  C   UNL     1      -5.897   3.420  25.780  0.00  0.00    +0.164 C 
ATOM     29  O   UNL     1      -5.995   4.225  25.629  0.00  0.00    -0.350 OA
ATOM     30  C   UNL     1      -5.360   4.675  25.357  0.00  0.00    +0.164 C 
ATOM     31  C   UNL     1      -4.625   4.319  25.237  0.00  0.00    +0.124 C 
ENDBRANCH  23  26
ENDBRANCH  17  20
BRANCH  15  14
ATOM     10  N   UNL     1      -0.275  -0.167  24.368  0.00  0.00    -0.263 NA
ATOM     11  C   UNL     1       0.184  -0.611  23.845  0.00  0.00    +0.073 C 
ATOM     12  C   UNL     1       0.490  -0.096  23.277  0.00  0.00    +0.019 C 
ATOM     13  C   UNL     1       0.220   0.664  23.449  0.00  0.00    +0.027 C 
ATOM     14  C   UNL     1      -0.253   0.620  24.124  0.00  0.00    +0.138 C 
BRANCH  10   9
ATOM      9  C   UNL     1      -0.684  -0.461  25.021  0.00  0.00    +0.099 C 
BRANCH   9   8
ATOM      5  C   UNL     1      -2.369  -2.251  24.726  0.00  0.00    +0.073 A 
ATOM      6  C   UNL     1      -2.501  -1.645  25.270  0.00  0.00    +0.016 A 
ATOM      7  C   UNL     1      -1.940  -1.049  25.369  0.00  0.00    -0.002 A 
ATOM      8  C   UNL     1      -1.246  -1.058  24.923  0.00  0.00    -0.006 A 
ATOM     32  C   UNL     1      -1.114  -1.663  24.378  0.00  0.00    -0.002 A 
ATOM     33  C   UNL     1      -1.676  -2.259  24.280  0.00  0.00    +0.016 A 
BRANCH   5   4
ATOM      1  C   UNL     1      -4.184  -3.292  24.104  0.00  0.00    +0.097 C 
ATOM      2  C   UNL     1      -3.621  -2.696  24.203  0.00  0.00    +0.246 C 
ATOM      3  O   UNL     1      -3.751  -1.949  23.876  0.00  0.00    -0.273 OA
ATOM      4  N   UNL     1      -2.930  -2.846  24.627  0.00  0.00    -0.179 NA
ENDBRANCH   5   4
ENDBRANCH   9   8
ENDBRANCH  10   9
ENDBRANCH  15  14
TORSDOF 6
ENDMDL
