MODEL 1
REMARK VINA RESULT:     -10.8      0.000      0.000
REMARK  Name = 
REMARK  8 active torsions:
REMARK  status: ('A' for Active; 'I' for Inactive)
REMARK    1  A    between atoms: C_2  and  C_3
REMARK    2  A    between atoms: C_3  and  N_4
REMARK    3  A    between atoms: C_5  and  O_7
REMARK    4  A    between atoms: O_7  and  C_8
REMARK    5  A    between atoms: C_13  and  C_14
REMARK    6  A    between atoms: C_14  and  C_15
REMARK    7  A    between atoms: C_20  and  N_22
REMARK    8  A    between atoms: C_31  and  C_33
REMARK                            x       y       z     vdW  Elec       q    Type
REMARK                         _______ _______ _______ _____ _____    ______ ____
ROOT
ATOM      8  C   UNL     1      -2.085   3.792  25.586  0.00  0.00    +0.173 C 
ATOM      9  C   UNL     1      -2.210   3.007  25.809  0.00  0.00    +0.044 C 
ATOM     10  C   UNL     1      -1.655   2.429  25.610  0.00  0.00    +0.004 C 
ATOM     11  C   UNL     1      -0.977   2.636  25.189  0.00  0.00    +0.003 C 
ATOM     12  C   UNL     1      -1.102   1.852  25.412  0.00  0.00    +0.000 C 
ATOM     13  C   UNL     1      -0.422   2.058  24.990  0.00  0.00    +0.040 C 
ATOM     26  C   UNL     1       0.256   2.264  24.569  0.00  0.00    +0.152 C 
ATOM     27  O   UNL     1       0.810   1.687  24.370  0.00  0.00    -0.223 OA
ATOM     28  C   UNL     1       0.381   3.050  24.346  0.00  0.00    +0.033 C 
ATOM     29  C   UNL     1      -0.174   3.628  24.545  0.00  0.00    +0.003 C 
ATOM     30  C   UNL     1      -0.852   3.420  24.966  0.00  0.00    +0.006 C 
ATOM     31  C   UNL     1      -1.407   3.999  25.165  0.00  0.00    +0.068 C 
ATOM     32  C   UNL     1      -0.962   4.591  24.800  0.00  0.00    +0.006 C 
ENDROOT
BRANCH  31  33
ATOM     33  C   UNL     1      -1.631   4.792  25.136  0.00  0.00    +0.185 C 
ATOM     34  O   UNL     1      -1.058   5.378  25.031  0.00  0.00    -0.220 OA
ENDBRANCH  31  33
BRANCH   8   7
ATOM      7  O   UNL     1      -2.639   4.370  25.785  0.00  0.00    -0.437 OA
BRANCH   7   5
ATOM      4  N   UNL     1      -4.012   3.999  25.643  0.00  0.00    -0.169 NA
ATOM      5  C   UNL     1      -3.359   4.151  26.123  0.00  0.00    +0.421 C 
ATOM      6  O   UNL     1      -3.426   4.085  26.943  0.00  0.00    -0.225 OA
BRANCH   4   3
ATOM      3  C   UNL     1      -4.732   3.780  25.982  0.00  0.00    +0.119 C 
BRANCH   3   2
ATOM      1  C   UNL     1      -5.786   2.930  25.528  0.00  0.00    +0.002 C 
ATOM      2  C   UNL     1      -5.392   3.654  25.503  0.00  0.00    +0.024 C 
ENDBRANCH   3   2
ENDBRANCH   4   3
ENDBRANCH   7   5
ENDBRANCH   8   7
BRANCH  13  14
ATOM     14  C   UNL     1      -0.547   1.273  25.213  0.00  0.00    +0.088 C 
BRANCH  14  15
ATOM     15  C   UNL     1      -0.686   0.699  24.638  0.00  0.00    +0.226 C 
ATOM     16  O   UNL     1      -0.660   0.901  23.838  0.00  0.00    -0.275 OA
ATOM     17  N   UNL     1      -0.851  -0.078  24.862  0.00  0.00    -0.278 N 
ATOM     18  C   UNL     1      -0.895  -0.360  25.636  0.00  0.00    +0.095 C 
ATOM     19  C   UNL     1      -1.072  -1.165  25.604  0.00  0.00    +0.045 C 
ATOM     20  C   UNL     1      -1.138  -1.380  24.810  0.00  0.00    +0.117 C 
ATOM     21  C   UNL     1      -1.001  -0.708  24.352  0.00  0.00    +0.115 C 
BRANCH  20  22
ATOM     22  N   UNL     1      -1.310  -2.136  24.525  0.00  0.00    -0.205 NA
ATOM     23  C   UNL     1      -2.094  -2.382  24.460  0.00  0.00    +0.242 C 
ATOM     24  C   UNL     1      -2.266  -3.138  24.175  0.00  0.00    +0.096 C 
ATOM     25  O   UNL     1      -2.706  -1.875  24.679  0.00  0.00    -0.273 OA
ENDBRANCH  20  22
ENDBRANCH  14  15
ENDBRANCH  13  14
TORSDOF 8
ENDMDL
MODEL 2
REMARK VINA RESULT:     -10.7      2.493      5.954
REMARK  Name = 
REMARK  8 active torsions:
REMARK  status: ('A' for Active; 'I' for Inactive)
REMARK    1  A    between atoms: C_2  and  C_3
REMARK    2  A    between atoms: C_3  and  N_4
REMARK    3  A    between atoms: C_5  and  O_7
REMARK    4  A    between atoms: O_7  and  C_8
REMARK    5  A    between atoms: C_13  and  C_14
REMARK    6  A    between atoms: C_14  and  C_15
REMARK    7  A    between atoms: C_20  and  N_22
REMARK    8  A    between atoms: C_31  and  C_33
REMARK                            x       y       z     vdW  Elec       q    Type
REMARK                         _______ _______ _______ _____ _____    ______ ____
ROOT
ATOM      8  C   UNL     1      -1.165  -0.895  24.400  0.00  0.00    +0.173 C 
ATOM      9  C   UNL     1      -1.457  -0.129  24.309  0.00  0.00    +0.044 C 
ATOM     10  C   UNL     1      -2.272   0.004  24.301  0.00  0.00    +0.004 C 
ATOM     11  C   UNL     1      -2.794  -0.630  24.386  0.00  0.00    +0.003 C 
ATOM     12  C   UNL     1      -3.085   0.137  24.294  0.00  0.00    +0.000 C 
ATOM     13  C   UNL     1      -3.608  -0.497  24.379  0.00  0.00    +0.040 C 
ATOM     26  C   UNL     1      -4.130  -1.129  24.463  0.00  0.00    +0.152 C 
ATOM     27  O   UNL     1      -4.943  -0.997  24.456  0.00  0.00    -0.223 OA
ATOM     28  C   UNL     1      -3.838  -1.896  24.554  0.00  0.00    +0.033 C 
ATOM     29  C   UNL     1      -3.023  -2.029  24.562  0.00  0.00    +0.003 C 
ATOM     30  C   UNL     1      -2.502  -1.395  24.477  0.00  0.00    +0.006 C 
ATOM     31  C   UNL     1      -1.687  -1.528  24.484  0.00  0.00    +0.068 C 
ATOM     32  C   UNL     1      -1.792  -2.341  24.586  0.00  0.00    +0.006 C 
ENDROOT
BRANCH  31  33
ATOM     33  C   UNL     1      -1.067  -2.070  24.544  0.00  0.00    +0.185 C 
ATOM     34  O   UNL     1      -1.204  -2.817  24.868  0.00  0.00    -0.220 OA
ENDBRANCH  31  33
BRANCH   8   7
ATOM      7  O   UNL     1      -0.351  -1.028  24.407  0.00  0.00    -0.437 OA
BRANCH   7   5
ATOM      4  N   UNL     1       0.623  -0.559  23.472  0.00  0.00    -0.169 NA
ATOM      5  C   UNL     1       0.165  -0.439  24.147  0.00  0.00    +0.421 C 
ATOM      6  O   UNL     1       0.222   0.271  24.563  0.00  0.00    -0.225 OA
BRANCH   4   3
ATOM      3  C   UNL     1       1.139   0.030  23.212  0.00  0.00    +0.119 C 
BRANCH   3   2
ATOM      1  C   UNL     1       2.370   0.095  22.492  0.00  0.00    +0.002 C 
ATOM      2  C   UNL     1       1.564  -0.072  22.513  0.00  0.00    +0.024 C 
ENDBRANCH   3   2
ENDBRANCH   4   3
ENDBRANCH   7   5
ENDBRANCH   8   7
BRANCH  13  14
ATOM     14  C   UNL     1      -3.900   0.270  24.287  0.00  0.00    +0.088 C 
BRANCH  14  15
ATOM     15  C   UNL     1      -4.367   0.606  24.877  0.00  0.00    +0.226 C 
ATOM     16  O   UNL     1      -4.527   0.184  25.568  0.00  0.00    -0.275 OA
ATOM     17  N   UNL     1      -4.676   1.365  24.778  0.00  0.00    -0.278 N 
ATOM     18  C   UNL     1      -4.564   1.851  24.120  0.00  0.00    +0.095 C 
ATOM     19  C   UNL     1      -4.969   2.557  24.254  0.00  0.00    +0.045 C 
ATOM     20  C   UNL     1      -5.331   2.507  24.994  0.00  0.00    +0.117 C 
ATOM     21  C   UNL     1      -5.149   1.770  25.317  0.00  0.00    +0.115 C 
BRANCH  20  22
ATOM     22  N   UNL     1      -5.793   3.093  25.348  0.00  0.00    -0.205 NA
ATOM     23  C   UNL     1      -5.451   3.810  25.569  0.00  0.00    +0.242 C 
ATOM     24  C   UNL     1      -5.913   4.395  25.923  0.00  0.00    +0.096 C 
ATOM     25  O   UNL     1      -4.648   3.942  25.437  0.00  0.00    -0.273 OA
ENDBRANCH  20  22
ENDBRANCH  14  15
ENDBRANCH  13  14
TORSDOF 8
ENDMDL
MODEL 3
REMARK VINA RESULT:     -10.6      2.170      3.798
REMARK  Name = 
REMARK  8 active torsions:
REMARK  status: ('A' for Active; 'I' for Inactive)
REMARK    1  A    between atoms: C_2  and  C_3
REMARK    2  A    between atoms: C_3  and  N_4
REMARK    3  A    between atoms: C_5  and  O_7
REMARK    4  A    between atoms: O_7  and  C_8
REMARK    5  A    between atoms: C_13  and  C_14
REMARK    6  A    between atoms: C_14  and  C_15
REMARK    7  A    between atoms: C_20  and  N_22
REMARK    8  A    between atoms: C_31  and  C_33
REMARK                            x       y       z     vdW  Elec       q    Type
REMARK                         _______ _______ _______ _____ _____    ______ ____
ROOT
ATOM      8  C   UNL     1      -3.840   3.568  25.414  0.00  0.00    +0.173 C 
ATOM      9  C   UNL     1      -3.393   2.948  25.103  0.00  0.00    +0.044 C 
ATOM     10  C   UNL     1      -3.761   2.241  24.886  0.00  0.00    +0.004 C 
ATOM     11  C   UNL     1      -4.577   2.156  24.981  0.00  0.00    +0.003 C 
ATOM     12  C   UNL     1      -4.129   1.536  24.670  0.00  0.00    +0.000 C 
ATOM     13  C   UNL     1      -4.945   1.450  24.764  0.00  0.00    +0.040 C 
ATOM     26  C   UNL     1      -5.760   1.364  24.858  0.00  0.00    +0.152 C 
ATOM     27  O   UNL     1      -6.128   0.659  24.642  0.00  0.00    -0.223 OA
ATOM     28  C   UNL     1      -6.207   1.985  25.169  0.00  0.00    +0.033 C 
ATOM     29  C   UNL     1      -5.839   2.690  25.386  0.00  0.00    +0.003 C 
ATOM     30  C   UNL     1      -5.023   2.776  25.291  0.00  0.00    +0.006 C 
ATOM     31  C   UNL     1      -4.655   3.482  25.508  0.00  0.00    +0.068 C 
ATOM     32  C   UNL     1      -5.371   3.815  25.749  0.00  0.00    +0.006 C 
ENDROOT
BRANCH  31  33
ATOM     33  C   UNL     1      -4.729   4.244  25.816  0.00  0.00    +0.185 C 
ATOM     34  O   UNL     1      -5.471   4.605  25.846  0.00  0.00    -0.220 OA
ENDBRANCH  31  33
BRANCH   8   7
ATOM      7  O   UNL     1      -3.472   4.273  25.630  0.00  0.00    -0.437 OA
BRANCH   7   5
ATOM      4  N   UNL     1      -2.186   4.715  25.191  0.00  0.00    -0.169 NA
ATOM      5  C   UNL     1      -2.653   4.298  25.727  0.00  0.00    +0.421 C 
ATOM      6  O   UNL     1      -2.301   3.905  26.362  0.00  0.00    -0.225 OA
BRANCH   4   3
ATOM      3  C   UNL     1      -1.366   4.739  25.288  0.00  0.00    +0.119 C 
BRANCH   3   2
ATOM      1  C   UNL     1      -0.268   4.948  24.400  0.00  0.00    +0.002 C 
ATOM      2  C   UNL     1      -0.910   5.244  24.823  0.00  0.00    +0.024 C 
ENDBRANCH   3   2
ENDBRANCH   4   3
ENDBRANCH   7   5
ENDBRANCH   8   7
BRANCH  13  14
ATOM     14  C   UNL     1      -4.498   0.830  24.453  0.00  0.00    +0.088 C 
BRANCH  14  15
ATOM     15  C   UNL     1      -4.439   0.118  24.864  0.00  0.00    +0.226 C 
ATOM     16  O   UNL     1      -4.652   0.082  25.661  0.00  0.00    -0.275 OA
ATOM     17  N   UNL     1      -4.166  -0.559  24.480  0.00  0.00    -0.278 N 
ATOM     18  C   UNL     1      -3.934  -0.607  23.690  0.00  0.00    +0.095 C 
ATOM     19  C   UNL     1      -3.702  -1.385  23.540  0.00  0.00    +0.045 C 
ATOM     20  C   UNL     1      -3.791  -1.817  24.237  0.00  0.00    +0.117 C 
ATOM     21  C   UNL     1      -4.078  -1.306  24.818  0.00  0.00    +0.115 C 
BRANCH  20  22
ATOM     22  N   UNL     1      -3.622  -2.619  24.336  0.00  0.00    -0.205 NA
ATOM     23  C   UNL     1      -2.846  -2.863  24.467  0.00  0.00    +0.242 C 
ATOM     24  C   UNL     1      -2.677  -3.666  24.566  0.00  0.00    +0.096 C 
ATOM     25  O   UNL     1      -2.238  -2.307  24.501  0.00  0.00    -0.273 OA
ENDBRANCH  20  22
ENDBRANCH  14  15
ENDBRANCH  13  14
TORSDOF 8
ENDMDL
MODEL 4
REMARK VINA RESULT:     -10.6      2.003      3.647
REMARK  Name = 
REMARK  8 active torsions:
REMARK  status: ('A' for Active; 'I' for Inactive)
REMARK    1  A    between atoms: C_2  and  C_3
REMARK    2  A    between atoms: C_3  and  N_4
REMARK    3  A    between atoms: C_5  and  O_7
REMARK    4  A    between atoms: O_7  and  C_8
REMARK    5  A    between atoms: C_13  and  C_14
REMARK    6  A    between atoms: C_14  and  C_15
REMARK    7  A    between atoms: C_20  and  N_22
REMARK    8  A    between atoms: C_31  and  C_33
REMARK                            x       y       z     vdW  Elec       q    Type
REMARK                         _______ _______ _______ _____ _____    ______ ____
ROOT
ATOM      8  C   UNL     1      -2.590   3.424  25.251  0.00  0.00    +0.173 C 
ATOM      9  C   UNL     1      -2.453   2.714  24.853  0.00  0.00    +0.044 C 
ATOM     10  C   UNL     1      -3.082   2.203  24.693  0.00  0.00    +0.004 C 
ATOM     11  C   UNL     1      -3.846   2.403  24.932  0.00  0.00    +0.003 C 
ATOM     12  C   UNL     1      -3.710   1.693  24.534  0.00  0.00    +0.000 C 
ATOM     13  C   UNL     1      -4.475   1.893  24.772  0.00  0.00    +0.040 C 
ATOM     26  C   UNL     1      -5.239   2.091  25.011  0.00  0.00    +0.152 C 
ATOM     27  O   UNL     1      -5.866   1.582  24.851  0.00  0.00    -0.223 OA
ATOM     28  C   UNL     1      -5.375   2.802  25.409  0.00  0.00    +0.033 C 
ATOM     29  C   UNL     1      -4.746   3.312  25.568  0.00  0.00    +0.003 C 
ATOM     30  C   UNL     1      -3.982   3.112  25.330  0.00  0.00    +0.006 C 
ATOM     31  C   UNL     1      -3.353   3.623  25.489  0.00  0.00    +0.068 C 
ATOM     32  C   UNL     1      -3.852   4.165  25.862  0.00  0.00    +0.006 C 
ENDROOT
BRANCH  31  33
ATOM     33  C   UNL     1      -3.097   4.334  25.820  0.00  0.00    +0.185 C 
ATOM     34  O   UNL     1      -3.495   4.654  26.468  0.00  0.00    -0.220 OA
ENDBRANCH  31  33
BRANCH   8   7
ATOM      7  O   UNL     1      -1.962   3.934  25.410  0.00  0.00    -0.437 OA
BRANCH   7   5
ATOM      4  N   UNL     1      -0.780   3.311  25.919  0.00  0.00    -0.169 NA
ATOM      5  C   UNL     1      -1.185   3.678  25.301  0.00  0.00    +0.421 C 
ATOM      6  O   UNL     1      -0.813   3.789  24.573  0.00  0.00    -0.225 OA
BRANCH   4   3
ATOM      3  C   UNL     1      -0.003   3.055  25.810  0.00  0.00    +0.119 C 
BRANCH   3   2
ATOM      1  C   UNL     1       0.595   2.534  26.997  0.00  0.00    +0.002 C 
ATOM      2  C   UNL     1       0.285   2.415  26.242  0.00  0.00    +0.024 C 
ENDBRANCH   3   2
ENDBRANCH   4   3
ENDBRANCH   7   5
ENDBRANCH   8   7
BRANCH  13  14
ATOM     14  C   UNL     1      -4.339   1.182  24.374  0.00  0.00    +0.088 C 
BRANCH  14  15
ATOM     15  C   UNL     1      -4.444   0.464  24.764  0.00  0.00    +0.226 C 
ATOM     16  O   UNL     1      -4.734   0.453  25.537  0.00  0.00    -0.275 OA
ATOM     17  N   UNL     1      -4.259  -0.244  24.384  0.00  0.00    -0.278 N 
ATOM     18  C   UNL     1      -3.965  -0.318  23.616  0.00  0.00    +0.095 C 
ATOM     19  C   UNL     1      -3.860  -1.123  23.461  0.00  0.00    +0.045 C 
ATOM     20  C   UNL     1      -4.088  -1.543  24.133  0.00  0.00    +0.117 C 
ATOM     21  C   UNL     1      -4.335  -1.000  24.702  0.00  0.00    +0.115 C 
BRANCH  20  22
ATOM     22  N   UNL     1      -4.072  -2.364  24.218  0.00  0.00    -0.205 NA
ATOM     23  C   UNL     1      -3.381  -2.739  24.467  0.00  0.00    +0.242 C 
ATOM     24  C   UNL     1      -3.366  -3.560  24.553  0.00  0.00    +0.096 C 
ATOM     25  O   UNL     1      -2.706  -2.295  24.629  0.00  0.00    -0.273 OA
ENDBRANCH  20  22
ENDBRANCH  14  15
ENDBRANCH  13  14
TORSDOF 8
ENDMDL
MODEL 5
REMARK VINA RESULT:     -10.1      2.513      4.124
REMARK  Name = 
REMARK  8 active torsions:
REMARK  status: ('A' for Active; 'I' for Inactive)
REMARK    1  A    between atoms: C_2  and  C_3
REMARK    2  A    between atoms: C_3  and  N_4
REMARK    3  A    between atoms: C_5  and  O_7
REMARK    4  A    between atoms: O_7  and  C_8
REMARK    5  A    between atoms: C_13  and  C_14
REMARK    6  A    between atoms: C_14  and  C_15
REMARK    7  A    between atoms: C_20  and  N_22
REMARK    8  A    between atoms: C_31  and  C_33
REMARK                            x       y       z     vdW  Elec       q    Type
REMARK                         _______ _______ _______ _____ _____    ______ ____
ROOT
ATOM      8  C   UNL     1      -3.356   0.324  24.786  0.00  0.00    +0.173 C 
ATOM      9  C   UNL     1      -2.790   0.791  24.408  0.00  0.00    +0.044 C 
ATOM     10  C   UNL     1      -2.004   0.540  24.375  0.00  0.00    +0.004 C 
ATOM     11  C   UNL     1      -1.785  -0.177  24.719  0.00  0.00    +0.003 C 
ATOM     12  C   UNL     1      -1.219   0.290  24.342  0.00  0.00    +0.000 C 
ATOM     13  C   UNL     1      -1.000  -0.428  24.686  0.00  0.00    +0.040 C 
ATOM     26  C   UNL     1      -0.780  -1.144  25.030  0.00  0.00    +0.152 C 
ATOM     27  O   UNL     1       0.004  -1.395  24.996  0.00  0.00    -0.223 OA
ATOM     28  C   UNL     1      -1.347  -1.611  25.407  0.00  0.00    +0.033 C 
ATOM     29  C   UNL     1      -2.132  -1.361  25.441  0.00  0.00    +0.003 C 
ATOM     30  C   UNL     1      -2.351  -0.644  25.096  0.00  0.00    +0.006 C 
ATOM     31  C   UNL     1      -3.137  -0.393  25.130  0.00  0.00    +0.068 C 
ATOM     32  C   UNL     1      -3.364  -1.068  25.547  0.00  0.00    +0.006 C 
ENDROOT
BRANCH  31  33
ATOM     33  C   UNL     1      -3.909  -0.544  25.379  0.00  0.00    +0.185 C 
ATOM     34  O   UNL     1      -4.117  -1.299  25.640  0.00  0.00    -0.220 OA
ENDBRANCH  31  33
BRANCH   8   7
ATOM      7  O   UNL     1      -4.141   0.574  24.819  0.00  0.00    -0.437 OA
BRANCH   7   5
ATOM      4  N   UNL     1      -4.673   1.860  25.146  0.00  0.00    -0.169 NA
ATOM      5  C   UNL     1      -4.338   1.344  24.597  0.00  0.00    +0.421 C 
ATOM      6  O   UNL     1      -4.199   1.598  23.824  0.00  0.00    -0.225 OA
BRANCH   4   3
ATOM      3  C   UNL     1      -4.870   2.629  24.923  0.00  0.00    +0.119 C 
BRANCH   3   2
ATOM      1  C   UNL     1      -5.136   3.844  25.625  0.00  0.00    +0.002 C 
ATOM      2  C   UNL     1      -5.364   3.084  25.401  0.00  0.00    +0.024 C 
ENDBRANCH   3   2
ENDBRANCH   4   3
ENDBRANCH   7   5
ENDBRANCH   8   7
BRANCH  13  14
ATOM     14  C   UNL     1      -0.433   0.039  24.308  0.00  0.00    +0.088 C 
BRANCH  14  15
ATOM     15  C   UNL     1       0.066  -0.294  23.744  0.00  0.00    +0.226 C 
ATOM     16  O   UNL     1      -0.108  -1.036  23.425  0.00  0.00    -0.275 OA
ATOM     17  N   UNL     1       0.740   0.112  23.497  0.00  0.00    -0.278 N 
ATOM     18  C   UNL     1       0.984   0.854  23.765  0.00  0.00    +0.095 C 
ATOM     19  C   UNL     1       1.684   1.049  23.373  0.00  0.00    +0.045 C 
ATOM     20  C   UNL     1       1.871   0.428  22.863  0.00  0.00    +0.117 C 
ATOM     21  C   UNL     1       1.288  -0.151  22.940  0.00  0.00    +0.115 C 
BRANCH  20  22
ATOM     22  N   UNL     1       2.528   0.393  22.364  0.00  0.00    -0.205 NA
ATOM     23  C   UNL     1       3.275   0.592  22.651  0.00  0.00    +0.242 C 
ATOM     24  C   UNL     1       3.931   0.556  22.151  0.00  0.00    +0.096 C 
ATOM     25  O   UNL     1       3.366   0.826  23.436  0.00  0.00    -0.273 OA
ENDBRANCH  20  22
ENDBRANCH  14  15
ENDBRANCH  13  14
TORSDOF 8
ENDMDL
MODEL 6
REMARK VINA RESULT:     -10.0      1.311      4.881
REMARK  Name = 
REMARK  8 active torsions:
REMARK  status: ('A' for Active; 'I' for Inactive)
REMARK    1  A    between atoms: C_2  and  C_3
REMARK    2  A    between atoms: C_3  and  N_4
REMARK    3  A    between atoms: C_5  and  O_7
REMARK    4  A    between atoms: O_7  and  C_8
REMARK    5  A    between atoms: C_13  and  C_14
REMARK    6  A    between atoms: C_14  and  C_15
REMARK    7  A    between atoms: C_20  and  N_22
REMARK    8  A    between atoms: C_31  and  C_33
REMARK                            x       y       z     vdW  Elec       q    Type
REMARK                         _______ _______ _______ _____ _____    ______ ____
ROOT
ATOM      8  C   UNL     1      -0.708  -0.302  24.455  0.00  0.00    +0.173 C 
ATOM      9  C   UNL     1      -1.342  -0.005  24.893  0.00  0.00    +0.044 C 
ATOM     10  C   UNL     1      -1.444   0.811  24.970  0.00  0.00    +0.004 C 
ATOM     11  C   UNL     1      -0.912   1.329  24.609  0.00  0.00    +0.003 C 
ATOM     12  C   UNL     1      -1.546   1.625  25.047  0.00  0.00    +0.000 C 
ATOM     13  C   UNL     1      -1.013   2.144  24.686  0.00  0.00    +0.040 C 
ATOM     26  C   UNL     1      -0.482   2.662  24.327  0.00  0.00    +0.152 C 
ATOM     27  O   UNL     1      -0.584   3.476  24.404  0.00  0.00    -0.223 OA
ATOM     28  C   UNL     1       0.152   2.364  23.890  0.00  0.00    +0.033 C 
ATOM     29  C   UNL     1       0.254   1.549  23.813  0.00  0.00    +0.003 C 
ATOM     30  C   UNL     1      -0.278   1.032  24.173  0.00  0.00    +0.006 C 
ATOM     31  C   UNL     1      -0.176   0.216  24.096  0.00  0.00    +0.068 C 
ATOM     32  C   UNL     1       0.500   0.316  23.633  0.00  0.00    +0.006 C 
ENDROOT
BRANCH  31  33
ATOM     33  C   UNL     1       0.267  -0.407  23.786  0.00  0.00    +0.185 C 
ATOM     34  O   UNL     1       0.833  -0.260  23.203  0.00  0.00    -0.220 OA
ENDBRANCH  31  33
BRANCH   8   7
ATOM      7  O   UNL     1      -0.606  -1.117  24.378  0.00  0.00    -0.437 OA
BRANCH   7   5
ATOM      4  N   UNL     1      -1.748  -1.974  24.325  0.00  0.00    -0.169 NA
ATOM      5  C   UNL     1      -1.130  -1.634  24.751  0.00  0.00    +0.421 C 
ATOM      6  O   UNL     1      -1.033  -1.812  25.551  0.00  0.00    -0.225 OA
BRANCH   4   3
ATOM      3  C   UNL     1      -2.272  -2.491  24.698  0.00  0.00    +0.119 C 
BRANCH   3   2
ATOM      1  C   UNL     1      -3.658  -2.803  24.551  0.00  0.00    +0.002 C 
ATOM      2  C   UNL     1      -2.884  -2.840  24.269  0.00  0.00    +0.024 C 
ENDBRANCH   3   2
ENDBRANCH   4   3
ENDBRANCH   7   5
ENDBRANCH   8   7
BRANCH  13  14
ATOM     14  C   UNL     1      -1.648   2.441  25.124  0.00  0.00    +0.088 C 
BRANCH  14  15
ATOM     15  C   UNL     1      -2.274   2.814  24.740  0.00  0.00    +0.226 C 
ATOM     16  O   UNL     1      -2.307   2.822  23.915  0.00  0.00    -0.275 OA
ATOM     17  N   UNL     1      -2.869   3.180  25.179  0.00  0.00    -0.278 N 
ATOM     18  C   UNL     1      -2.909   3.217  26.003  0.00  0.00    +0.095 C 
ATOM     19  C   UNL     1      -3.593   3.633  26.205  0.00  0.00    +0.045 C 
ATOM     20  C   UNL     1      -3.974   3.853  25.507  0.00  0.00    +0.117 C 
ATOM     21  C   UNL     1      -3.526   3.572  24.873  0.00  0.00    +0.115 C 
BRANCH  20  22
ATOM     22  N   UNL     1      -4.679   4.278  25.453  0.00  0.00    -0.205 NA
ATOM     23  C   UNL     1      -5.401   3.893  25.557  0.00  0.00    +0.242 C 
ATOM     24  C   UNL     1      -6.106   4.319  25.503  0.00  0.00    +0.096 C 
ATOM     25  O   UNL     1      -5.419   3.084  25.715  0.00  0.00    -0.273 OA
ENDBRANCH  20  22
ENDBRANCH  14  15
ENDBRANCH  13  14
TORSDOF 8
ENDMDL
MODEL 7
REMARK VINA RESULT:      -9.8      1.892      2.612
REMARK  Name = 
REMARK  8 active torsions:
REMARK  status: ('A' for Active; 'I' for Inactive)
REMARK    1  A    between atoms: C_2  and  C_3
REMARK    2  A    between atoms: C_3  and  N_4
REMARK    3  A    between atoms: C_5  and  O_7
REMARK    4  A    between atoms: O_7  and  C_8
REMARK    5  A    between atoms: C_13  and  C_14
REMARK    6  A    between atoms: C_14  and  C_15
REMARK    7  A    between atoms: C_20  and  N_22
REMARK    8  A    between atoms: C_31  and  C_33
REMARK                            x       y       z     vdW  Elec       q    Type
REMARK                         _______ _______ _______ _____ _____    ______ ____
ROOT
ATOM      8  C   UNL     1      -3.122   3.071  25.047  0.00  0.00    +0.173 C 
ATOM      9  C   UNL     1      -2.910   2.419  24.588  0.00  0.00    +0.044 C 
ATOM     10  C   UNL     1      -2.141   2.121  24.626  0.00  0.00    +0.004 C 
ATOM     11  C   UNL     1      -1.586   2.475  25.123  0.00  0.00    +0.003 C 
ATOM     12  C   UNL     1      -1.373   1.823  24.664  0.00  0.00    +0.000 C 
ATOM     13  C   UNL     1      -0.817   2.177  25.161  0.00  0.00    +0.040 C 
ATOM     26  C   UNL     1      -0.261   2.530  25.658  0.00  0.00    +0.152 C 
ATOM     27  O   UNL     1       0.506   2.233  25.696  0.00  0.00    -0.223 OA
ATOM     28  C   UNL     1      -0.475   3.182  26.117  0.00  0.00    +0.033 C 
ATOM     29  C   UNL     1      -1.243   3.480  26.079  0.00  0.00    +0.003 C 
ATOM     30  C   UNL     1      -1.798   3.126  25.582  0.00  0.00    +0.006 C 
ATOM     31  C   UNL     1      -2.568   3.424  25.544  0.00  0.00    +0.068 C 
ATOM     32  C   UNL     1      -2.396   4.015  26.095  0.00  0.00    +0.006 C 
ENDROOT
BRANCH  31  33
ATOM     33  C   UNL     1      -3.114   3.985  25.805  0.00  0.00    +0.185 C 
ATOM     34  O   UNL     1      -2.883   4.563  26.347  0.00  0.00    -0.220 OA
ENDBRANCH  31  33
BRANCH   8   7
ATOM      7  O   UNL     1      -3.891   3.369  25.009  0.00  0.00    -0.437 OA
BRANCH   7   5
ATOM      4  N   UNL     1      -5.066   2.568  25.149  0.00  0.00    -0.169 NA
ATOM      5  C   UNL     1      -4.492   2.916  24.671  0.00  0.00    +0.421 C 
ATOM      6  O   UNL     1      -4.518   2.811  23.853  0.00  0.00    -0.225 OA
BRANCH   4   3
ATOM      3  C   UNL     1      -5.667   2.115  24.811  0.00  0.00    +0.119 C 
BRANCH   3   2
ATOM      1  C   UNL     1      -6.313   1.307  25.795  0.00  0.00    +0.002 C 
ATOM      2  C   UNL     1      -6.338   1.924  25.250  0.00  0.00    +0.024 C 
ENDBRANCH   3   2
ENDBRANCH   4   3
ENDBRANCH   7   5
ENDBRANCH   8   7
BRANCH  13  14
ATOM     14  C   UNL     1      -0.604   1.525  24.702  0.00  0.00    +0.088 C 
BRANCH  14  15
ATOM     15  C   UNL     1      -0.007   1.596  24.138  0.00  0.00    +0.226 C 
ATOM     16  O   UNL     1       0.281   2.342  23.933  0.00  0.00    -0.275 OA
ATOM     17  N   UNL     1       0.303   0.921  23.778  0.00  0.00    -0.278 N 
ATOM     18  C   UNL     1       0.072   0.143  23.927  0.00  0.00    +0.095 C 
ATOM     19  C   UNL     1       0.525  -0.353  23.447  0.00  0.00    +0.045 C 
ATOM     20  C   UNL     1       1.036   0.119  23.003  0.00  0.00    +0.117 C 
ATOM     21  C   UNL     1       0.899   0.906  23.208  0.00  0.00    +0.115 C 
BRANCH  20  22
ATOM     22  N   UNL     1       1.587  -0.151  22.451  0.00  0.00    -0.205 NA
ATOM     23  C   UNL     1       2.375   0.086  22.506  0.00  0.00    +0.242 C 
ATOM     24  C   UNL     1       2.926  -0.183  21.954  0.00  0.00    +0.096 C 
ATOM     25  O   UNL     1       2.612   0.592  23.113  0.00  0.00    -0.273 OA
ENDBRANCH  20  22
ENDBRANCH  14  15
ENDBRANCH  13  14
TORSDOF 8
ENDMDL
MODEL 8
REMARK VINA RESULT:      -9.6      1.931      5.763
REMARK  Name = 
REMARK  8 active torsions:
REMARK  status: ('A' for Active; 'I' for Inactive)
REMARK    1  A    between atoms: C_2  and  C_3
REMARK    2  A    between atoms: C_3  and  N_4
REMARK    3  A    between atoms: C_5  and  O_7
REMARK    4  A    between atoms: O_7  and  C_8
REMARK    5  A    between atoms: C_13  and  C_14
REMARK    6  A    between atoms: C_14  and  C_15
REMARK    7  A    between atoms: C_20  and  N_22
REMARK    8  A    between atoms: C_31  and  C_33
REMARK                            x       y       z     vdW  Elec       q    Type
REMARK                         _______ _______ _______ _____ _____    ______ ____
ROOT
ATOM      8  C   UNL     1      -2.853  -0.806  24.698  0.00  0.00    +0.173 C 
ATOM      9  C   UNL     1      -2.491  -0.145  25.035  0.00  0.00    +0.044 C 
ATOM     10  C   UNL     1      -2.921   0.553  25.139  0.00  0.00    +0.004 C 
ATOM     11  C   UNL     1      -3.713   0.587  24.907  0.00  0.00    +0.003 C 
ATOM     12  C   UNL     1      -3.351   1.248  25.243  0.00  0.00    +0.000 C 
ATOM     13  C   UNL     1      -4.142   1.284  25.012  0.00  0.00    +0.040 C 
ATOM     26  C   UNL     1      -4.933   1.320  24.780  0.00  0.00    +0.152 C 
ATOM     27  O   UNL     1      -5.362   2.015  24.885  0.00  0.00    -0.223 OA
ATOM     28  C   UNL     1      -5.295   0.658  24.444  0.00  0.00    +0.033 C 
ATOM     29  C   UNL     1      -4.865  -0.039  24.340  0.00  0.00    +0.003 C 
ATOM     30  C   UNL     1      -4.074  -0.073  24.571  0.00  0.00    +0.006 C 
ATOM     31  C   UNL     1      -3.644  -0.771  24.467  0.00  0.00    +0.068 C 
ATOM     32  C   UNL     1      -4.294  -1.156  24.136  0.00  0.00    +0.006 C 
ENDROOT
BRANCH  31  33
ATOM     33  C   UNL     1      -3.633  -1.553  24.205  0.00  0.00    +0.185 C 
ATOM     34  O   UNL     1      -4.303  -1.876  23.847  0.00  0.00    -0.220 OA
ENDBRANCH  31  33
BRANCH   8   7
ATOM      7  O   UNL     1      -2.423  -1.502  24.594  0.00  0.00    -0.437 OA
BRANCH   7   5
ATOM      4  N   UNL     1      -1.085  -1.286  24.142  0.00  0.00    -0.169 NA
ATOM      5  C   UNL     1      -1.611  -1.510  24.736  0.00  0.00    +0.421 C 
ATOM      6  O   UNL     1      -1.324  -1.743  25.474  0.00  0.00    -0.225 OA
BRANCH   4   3
ATOM      3  C   UNL     1      -0.272  -1.294  24.284  0.00  0.00    +0.119 C 
BRANCH   3   2
ATOM      1  C   UNL     1       0.627  -0.398  23.630  0.00  0.00    +0.002 C 
ATOM      2  C   UNL     1       0.255  -1.133  23.672  0.00  0.00    +0.024 C 
ENDBRANCH   3   2
ENDBRANCH   4   3
ENDBRANCH   7   5
ENDBRANCH   8   7
BRANCH  13  14
ATOM     14  C   UNL     1      -3.781   1.946  25.348  0.00  0.00    +0.088 C 
BRANCH  14  15
ATOM     15  C   UNL     1      -3.583   2.592  24.876  0.00  0.00    +0.226 C 
ATOM     16  O   UNL     1      -3.808   2.606  24.081  0.00  0.00    -0.275 OA
ATOM     17  N   UNL     1      -3.162   3.224  25.197  0.00  0.00    -0.278 N 
ATOM     18  C   UNL     1      -2.902   3.286  25.978  0.00  0.00    +0.095 C 
ATOM     19  C   UNL     1      -2.505   4.006  26.057  0.00  0.00    +0.045 C 
ATOM     20  C   UNL     1      -2.521   4.387  25.326  0.00  0.00    +0.117 C 
ATOM     21  C   UNL     1      -2.927   3.904  24.794  0.00  0.00    +0.115 C 
BRANCH  20  22
ATOM     22  N   UNL     1      -2.189   5.124  25.156  0.00  0.00    -0.205 NA
ATOM     23  C   UNL     1      -1.380   5.186  25.005  0.00  0.00    +0.242 C 
ATOM     24  C   UNL     1      -1.048   5.922  24.836  0.00  0.00    +0.096 C 
ATOM     25  O   UNL     1      -0.904   4.513  25.024  0.00  0.00    -0.273 OA
ENDBRANCH  20  22
ENDBRANCH  14  15
ENDBRANCH  13  14
TORSDOF 8
ENDMDL
MODEL 9
REMARK VINA RESULT:      -9.3      1.764      3.364
REMARK  Name = 
REMARK  8 active torsions:
REMARK  status: ('A' for Active; 'I' for Inactive)
REMARK    1  A    between atoms: C_2  and  C_3
REMARK    2  A    between atoms: C_3  and  N_4
REMARK    3  A    between atoms: C_5  and  O_7
REMARK    4  A    between atoms: O_7  and  C_8
REMARK    5  A    between atoms: C_13  and  C_14
REMARK    6  A    between atoms: C_14  and  C_15
REMARK    7  A    between atoms: C_20  and  N_22
REMARK    8  A    between atoms: C_31  and  C_33
REMARK                            x       y       z     vdW  Elec       q    Type
REMARK                         _______ _______ _______ _____ _____    ______ ____
ROOT
ATOM      8  C   UNL     1      -3.789   2.895  25.369  0.00  0.00    +0.173 C 
ATOM      9  C   UNL     1      -3.033   2.567  25.415  0.00  0.00    +0.044 C 
ATOM     10  C   UNL     1      -2.920   1.766  25.247  0.00  0.00    +0.004 C 
ATOM     11  C   UNL     1      -3.563   1.295  25.033  0.00  0.00    +0.003 C 
ATOM     12  C   UNL     1      -2.807   0.968  25.079  0.00  0.00    +0.000 C 
ATOM     13  C   UNL     1      -3.450   0.496  24.865  0.00  0.00    +0.040 C 
ATOM     26  C   UNL     1      -4.092   0.024  24.651  0.00  0.00    +0.152 C 
ATOM     27  O   UNL     1      -3.979  -0.775  24.484  0.00  0.00    -0.223 OA
ATOM     28  C   UNL     1      -4.848   0.353  24.606  0.00  0.00    +0.033 C 
ATOM     29  C   UNL     1      -4.961   1.152  24.773  0.00  0.00    +0.003 C 
ATOM     30  C   UNL     1      -4.317   1.623  24.987  0.00  0.00    +0.006 C 
ATOM     31  C   UNL     1      -4.431   2.424  25.155  0.00  0.00    +0.068 C 
ATOM     32  C   UNL     1      -5.241   2.369  25.011  0.00  0.00    +0.006 C 
ENDROOT
BRANCH  31  33
ATOM     33  C   UNL     1      -4.955   3.058  25.218  0.00  0.00    +0.185 C 
ATOM     34  O   UNL     1      -5.767   2.917  25.267  0.00  0.00    -0.220 OA
ENDBRANCH  31  33
BRANCH   8   7
ATOM      7  O   UNL     1      -3.901   3.695  25.537  0.00  0.00    -0.437 OA
BRANCH   7   5
ATOM      4  N   UNL     1      -2.789   4.551  25.267  0.00  0.00    -0.169 NA
ATOM      5  C   UNL     1      -3.270   4.153  25.805  0.00  0.00    +0.421 C 
ATOM      6  O   UNL     1      -3.119   4.212  26.614  0.00  0.00    -0.225 OA
BRANCH   4   3
ATOM      3  C   UNL     1      -2.158   5.008  25.536  0.00  0.00    +0.119 C 
BRANCH   3   2
ATOM      1  C   UNL     1      -0.907   5.309  24.916  0.00  0.00    +0.002 C 
ATOM      2  C   UNL     1      -1.714   5.454  25.002  0.00  0.00    +0.024 C 
ENDBRANCH   3   2
ENDBRANCH   4   3
ENDBRANCH   7   5
ENDBRANCH   8   7
BRANCH  13  14
ATOM     14  C   UNL     1      -2.694   0.167  24.911  0.00  0.00    +0.088 C 
BRANCH  14  15
ATOM     15  C   UNL     1      -2.268   0.014  24.222  0.00  0.00    +0.226 C 
ATOM     16  O   UNL     1      -2.635   0.086  23.485  0.00  0.00    -0.275 OA
ATOM     17  N   UNL     1      -1.476  -0.210  24.267  0.00  0.00    -0.278 N 
ATOM     18  C   UNL     1      -1.038  -0.305  24.960  0.00  0.00    +0.095 C 
ATOM     19  C   UNL     1      -0.273  -0.533  24.749  0.00  0.00    +0.045 C 
ATOM     20  C   UNL     1      -0.239  -0.579  23.926  0.00  0.00    +0.117 C 
ATOM     21  C   UNL     1      -0.983  -0.380  23.628  0.00  0.00    +0.115 C 
BRANCH  20  22
ATOM     22  N   UNL     1       0.423  -0.789  23.479  0.00  0.00    -0.205 NA
ATOM     23  C   UNL     1       0.910  -0.202  23.165  0.00  0.00    +0.242 C 
ATOM     24  C   UNL     1       1.572  -0.412  22.718  0.00  0.00    +0.096 C 
ATOM     25  O   UNL     1       0.736   0.593  23.297  0.00  0.00    -0.273 OA
ENDBRANCH  20  22
ENDBRANCH  14  15
ENDBRANCH  13  14
TORSDOF 8
ENDMDL
