MODEL 1
REMARK VINA RESULT:     -10.8      0.000      0.000
REMARK  Name = 
REMARK  5 active torsions:
REMARK  status: ('A' for Active; 'I' for Inactive)
REMARK    1  A    between atoms: O_2  and  C_3
REMARK    2  A    between atoms: C_6  and  C_9
REMARK    3  A    between atoms: C_15  and  C_18
REMARK    4  A    between atoms: C_21  and  C_23
REMARK    5  A    between atoms: N_27  and  C_28
REMARK                            x       y       z     vdW  Elec       q    Type
REMARK                         _______ _______ _______ _____ _____    ______ ____
ROOT
ATOM     18  C   UNL     1      -1.851   1.284  23.685  0.00  0.00    +0.205 A 
ATOM     19  N   UNL     1      -2.358   1.286  23.034  0.00  0.00    -0.056 NA
ATOM     20  O   UNL     1      -3.129   1.372  23.311  0.00  0.00    -0.336 OA
ATOM     21  C   UNL     1      -3.100   1.424  24.135  0.00  0.00    +0.251 A 
ATOM     22  N   UNL     1      -2.310   1.370  24.365  0.00  0.00    -0.190 NA
ENDROOT
BRANCH  18  15
ATOM      9  C   UNL     1       1.785   0.457  23.062  0.00  0.00    +0.270 C 
ATOM     10  O   UNL     1       1.314  -0.001  22.563  0.00  0.00    -0.268 OA
ATOM     11  N   UNL     1       1.434   0.990  23.586  0.00  0.00    -0.157 NA
ATOM     12  C   UNL     1       0.613   1.063  23.611  0.00  0.00    +0.155 A 
ATOM     13  N   UNL     1       0.262   1.595  24.134  0.00  0.00    -0.227 NA
ATOM     14  C   UNL     1      -0.559   1.669  24.159  0.00  0.00    +0.103 A 
ATOM     15  C   UNL     1      -1.030   1.211  23.660  0.00  0.00    +0.058 A 
ATOM     16  C   UNL     1      -0.679   0.678  23.136  0.00  0.00    +0.008 A 
ATOM     17  C   UNL     1       0.143   0.604  23.111  0.00  0.00    +0.036 A 
BRANCH   9   6
ATOM      3  C   UNL     1       4.249   0.236  22.987  0.00  0.00    +0.139 A 
ATOM      4  C   UNL     1       3.893   0.955  22.791  0.00  0.00    +0.037 A 
ATOM      5  C   UNL     1       3.072   1.028  22.816  0.00  0.00    +0.008 A 
ATOM      6  C   UNL     1       2.607   0.384  23.037  0.00  0.00    +0.056 A 
ATOM      7  C   UNL     1       2.962  -0.334  23.233  0.00  0.00    +0.008 A 
ATOM      8  C   UNL     1       3.783  -0.408  23.208  0.00  0.00    +0.037 A 
BRANCH   3   2
ATOM      1  C   UNL     1       5.502   0.118  23.664  0.00  0.00    +0.252 C 
ATOM      2  O   UNL     1       5.071   0.163  22.962  0.00  0.00    -0.471 OA
ENDBRANCH   3   2
ENDBRANCH   9   6
ENDBRANCH  18  15
BRANCH  21  23
ATOM     23  C   UNL     1      -3.748   1.514  24.638  0.00  0.00    +0.138 C 
ATOM     24  C   UNL     1      -4.057   2.229  24.907  0.00  0.00    +0.027 C 
ATOM     25  C   UNL     1      -4.701   2.060  25.396  0.00  0.00    +0.019 C 
ATOM     26  C   UNL     1      -4.788   1.240  25.428  0.00  0.00    +0.072 C 
ATOM     27  N   UNL     1      -4.199   0.902  24.961  0.00  0.00    -0.268 NA
BRANCH  27  28
ATOM     28  C   UNL     1      -4.081   0.095  24.836  0.00  0.00    +0.061 C 
ATOM     29  C   UNL     1      -3.619  -0.339  25.364  0.00  0.00    +0.038 C 
ATOM     30  C   UNL     1      -3.501  -1.147  25.240  0.00  0.00    +0.095 C 
ATOM     31  N   UNL     1      -3.844  -1.519  24.588  0.00  0.00    -0.279 N 
ATOM     32  C   UNL     1      -4.305  -1.084  24.060  0.00  0.00    +0.095 C 
ATOM     33  C   UNL     1      -4.424  -0.277  24.185  0.00  0.00    +0.038 C 
ATOM     34  C   UNL     1      -3.725  -2.325  24.464  0.00  0.00    +0.226 C 
ATOM     35  C   UNL     1      -3.263  -2.761  24.992  0.00  0.00    +0.095 C 
ATOM     36  O   UNL     1      -4.068  -2.698  23.812  0.00  0.00    -0.275 OA
ENDBRANCH  27  28
ENDBRANCH  21  23
TORSDOF 5
ENDMDL
MODEL 2
REMARK VINA RESULT:      -8.8      1.127      2.559
REMARK  Name = 
REMARK  5 active torsions:
REMARK  status: ('A' for Active; 'I' for Inactive)
REMARK    1  A    between atoms: O_2  and  C_3
REMARK    2  A    between atoms: C_6  and  C_9
REMARK    3  A    between atoms: C_15  and  C_18
REMARK    4  A    between atoms: C_21  and  C_23
REMARK    5  A    between atoms: N_27  and  C_28
REMARK                            x       y       z     vdW  Elec       q    Type
REMARK                         _______ _______ _______ _____ _____    ______ ____
ROOT
ATOM     18  C   UNL     1      -1.522   0.928  23.512  0.00  0.00    +0.205 A 
ATOM     19  N   UNL     1      -1.994   1.381  23.010  0.00  0.00    -0.056 NA
ATOM     20  O   UNL     1      -2.783   1.235  23.200  0.00  0.00    -0.336 OA
ATOM     21  C   UNL     1      -2.799   0.690  23.821  0.00  0.00    +0.251 A 
ATOM     22  N   UNL     1      -2.020   0.502  24.013  0.00  0.00    -0.190 NA
ENDROOT
BRANCH  18  15
ATOM      9  C   UNL     1       2.177   0.325  23.010  0.00  0.00    +0.270 C 
ATOM     10  O   UNL     1       1.751  -0.166  22.502  0.00  0.00    -0.268 OA
ATOM     11  N   UNL     1       1.776   0.839  23.518  0.00  0.00    -0.157 NA
ATOM     12  C   UNL     1       0.952   0.862  23.516  0.00  0.00    +0.155 A 
ATOM     13  N   UNL     1       0.553   1.375  24.023  0.00  0.00    -0.227 NA
ATOM     14  C   UNL     1      -0.272   1.397  24.022  0.00  0.00    +0.103 A 
ATOM     15  C   UNL     1      -0.698   0.906  23.514  0.00  0.00    +0.058 A 
ATOM     16  C   UNL     1      -0.297   0.392  23.006  0.00  0.00    +0.008 A 
ATOM     17  C   UNL     1       0.527   0.370  23.008  0.00  0.00    +0.036 A 
BRANCH   9   6
ATOM      3  C   UNL     1       4.651   0.259  23.015  0.00  0.00    +0.139 A 
ATOM      4  C   UNL     1       4.256   0.934  22.749  0.00  0.00    +0.037 A 
ATOM      5  C   UNL     1       3.432   0.956  22.748  0.00  0.00    +0.008 A 
ATOM      6  C   UNL     1       3.001   0.303  23.012  0.00  0.00    +0.056 A 
ATOM      7  C   UNL     1       3.395  -0.371  23.277  0.00  0.00    +0.008 A 
ATOM      8  C   UNL     1       4.220  -0.393  23.278  0.00  0.00    +0.037 A 
BRANCH   3   2
ATOM      1  C   UNL     1       5.880  -0.001  23.694  0.00  0.00    +0.252 C 
ATOM      2  O   UNL     1       5.475   0.237  23.016  0.00  0.00    -0.471 OA
ENDBRANCH   3   2
ENDBRANCH   9   6
ENDBRANCH  18  15
BRANCH  21  23
ATOM     23  C   UNL     1      -3.476   0.389  24.183  0.00  0.00    +0.138 C 
ATOM     24  C   UNL     1      -3.748  -0.388  24.134  0.00  0.00    +0.027 C 
ATOM     25  C   UNL     1      -4.440  -0.443  24.580  0.00  0.00    +0.019 C 
ATOM     26  C   UNL     1      -4.595   0.299  24.904  0.00  0.00    +0.072 C 
ATOM     27  N   UNL     1      -4.000   0.814  24.660  0.00  0.00    -0.268 NA
BRANCH  27  28
ATOM     28  C   UNL     1      -3.937   1.613  24.855  0.00  0.00    +0.061 C 
ATOM     29  C   UNL     1      -3.474   1.844  25.498  0.00  0.00    +0.038 C 
ATOM     30  C   UNL     1      -3.410   2.643  25.694  0.00  0.00    +0.095 C 
ATOM     31  N   UNL     1      -3.811   3.210  25.248  0.00  0.00    -0.279 N 
ATOM     32  C   UNL     1      -4.274   2.979  24.606  0.00  0.00    +0.095 C 
ATOM     33  C   UNL     1      -4.337   2.180  24.410  0.00  0.00    +0.038 C 
ATOM     34  C   UNL     1      -3.747   4.009  25.445  0.00  0.00    +0.226 C 
ATOM     35  C   UNL     1      -3.284   4.241  26.087  0.00  0.00    +0.095 C 
ATOM     36  O   UNL     1      -4.147   4.577  24.999  0.00  0.00    -0.275 OA
ENDBRANCH  27  28
ENDBRANCH  21  23
TORSDOF 5
ENDMDL
MODEL 3
REMARK VINA RESULT:      -7.9      1.621      3.099
REMARK  Name = 
REMARK  5 active torsions:
REMARK  status: ('A' for Active; 'I' for Inactive)
REMARK    1  A    between atoms: O_2  and  C_3
REMARK    2  A    between atoms: C_6  and  C_9
REMARK    3  A    between atoms: C_15  and  C_18
REMARK    4  A    between atoms: C_21  and  C_23
REMARK    5  A    between atoms: N_27  and  C_28
REMARK                            x       y       z     vdW  Elec       q    Type
REMARK                         _______ _______ _______ _____ _____    ______ ____
ROOT
ATOM     18  C   UNL     1      -2.299   0.555  24.802  0.00  0.00    +0.205 A 
ATOM     19  N   UNL     1      -2.543   0.333  25.557  0.00  0.00    -0.056 NA
ATOM     20  O   UNL     1      -3.333   0.550  25.644  0.00  0.00    -0.336 OA
ATOM     21  C   UNL     1      -3.578   0.908  24.941  0.00  0.00    +0.251 A 
ATOM     22  N   UNL     1      -2.939   0.910  24.422  0.00  0.00    -0.190 NA
ENDROOT
BRANCH  18  15
ATOM      9  C   UNL     1       1.221   0.747  23.433  0.00  0.00    +0.270 C 
ATOM     10  O   UNL     1       0.978   1.501  23.662  0.00  0.00    -0.268 OA
ATOM     11  N   UNL     1       0.710   0.104  23.524  0.00  0.00    -0.157 NA
ATOM     12  C   UNL     1      -0.042   0.217  23.843  0.00  0.00    +0.155 A 
ATOM     13  N   UNL     1      -0.552  -0.424  23.933  0.00  0.00    -0.227 NA
ATOM     14  C   UNL     1      -1.304  -0.312  24.253  0.00  0.00    +0.103 A 
ATOM     15  C   UNL     1      -1.547   0.443  24.482  0.00  0.00    +0.058 A 
ATOM     16  C   UNL     1      -1.036   1.085  24.392  0.00  0.00    +0.008 A 
ATOM     17  C   UNL     1      -0.284   0.972  24.072  0.00  0.00    +0.036 A 
BRANCH   9   6
ATOM      3  C   UNL     1       3.478   0.409  22.475  0.00  0.00    +0.139 A 
ATOM      4  C   UNL     1       2.858  -0.093  22.259  0.00  0.00    +0.037 A 
ATOM      5  C   UNL     1       2.106   0.020  22.579  0.00  0.00    +0.008 A 
ATOM      6  C   UNL     1       1.973   0.634  23.114  0.00  0.00    +0.056 A 
ATOM      7  C   UNL     1       2.592   1.135  23.329  0.00  0.00    +0.008 A 
ATOM      8  C   UNL     1       3.344   1.022  23.010  0.00  0.00    +0.037 A 
BRANCH   3   2
ATOM      1  C   UNL     1       4.888   0.268  22.651  0.00  0.00    +0.252 C 
ATOM      2  O   UNL     1       4.230   0.296  22.156  0.00  0.00    -0.471 OA
ENDBRANCH   3   2
ENDBRANCH   9   6
ENDBRANCH  18  15
BRANCH  21  23
ATOM     23  C   UNL     1      -4.331   1.208  24.788  0.00  0.00    +0.138 C 
ATOM     24  C   UNL     1      -4.994   0.769  24.569  0.00  0.00    +0.027 C 
ATOM     25  C   UNL     1      -5.625   1.293  24.473  0.00  0.00    +0.019 C 
ATOM     26  C   UNL     1      -5.352   2.054  24.632  0.00  0.00    +0.072 C 
ATOM     27  N   UNL     1      -4.552   2.003  24.827  0.00  0.00    -0.268 NA
BRANCH  27  28
ATOM     28  C   UNL     1      -4.059   2.634  25.026  0.00  0.00    +0.061 C 
ATOM     29  C   UNL     1      -3.655   3.043  24.434  0.00  0.00    +0.038 C 
ATOM     30  C   UNL     1      -3.162   3.674  24.632  0.00  0.00    +0.095 C 
ATOM     31  N   UNL     1      -3.072   3.896  25.422  0.00  0.00    -0.279 N 
ATOM     32  C   UNL     1      -3.476   3.487  26.013  0.00  0.00    +0.095 C 
ATOM     33  C   UNL     1      -3.970   2.855  25.815  0.00  0.00    +0.038 C 
ATOM     34  C   UNL     1      -2.579   4.526  25.620  0.00  0.00    +0.226 C 
ATOM     35  C   UNL     1      -2.175   4.936  25.028  0.00  0.00    +0.095 C 
ATOM     36  O   UNL     1      -2.489   4.748  26.410  0.00  0.00    -0.275 OA
ENDBRANCH  27  28
ENDBRANCH  21  23
TORSDOF 5
ENDMDL
