REMARK  Name = 
REMARK  5 active torsions:
REMARK  status: ('A' for Active; 'I' for Inactive)
REMARK    1  A    between atoms: N_2  and  C_4
REMARK    2  A    between atoms: C_7  and  C_8
REMARK    3  A    between atoms: C_8  and  N_9
REMARK    4  A    between atoms: C_12  and  C_14
REMARK    5  A    between atoms: C_17  and  C_19
REMARK                            x       y       z     vdW  Elec       q    Type
REMARK                         _______ _______ _______ _____ _____    ______ ____
ROOT
ATOM      9  N   UNL     1       2.024  -3.041   0.000  0.00  0.00    -0.268 NA
ATOM     10  C   UNL     1       2.692  -3.525   0.000  0.00  0.00    +0.073 C 
ATOM     11  C   UNL     1       2.437  -4.310   0.000  0.00  0.00    +0.028 C 
ATOM     12  C   UNL     1       1.612  -4.310   0.000  0.00  0.00    +0.096 C 
ATOM     13  C   UNL     1       1.357  -3.525   0.000  0.00  0.00    +0.082 C 
ENDROOT
BRANCH  12  14
ATOM     14  C   UNL     1       1.127  -4.977   0.000  0.00  0.00    +0.227 A 
ATOM     15  N   UNL     1       1.382  -5.762   0.000  0.00  0.00    -0.111 NA
ATOM     16  N   UNL     1       0.715  -6.247   0.000  0.00  0.00    -0.107 NA
ATOM     17  C   UNL     1       0.047  -5.762   0.000  0.00  0.00    +0.250 A 
ATOM     18  O   UNL     1       0.302  -4.977   0.000  0.00  0.00    -0.419 OA
BRANCH  17  19
ATOM     19  C   UNL     1      -0.738  -6.017   0.000  0.00  0.00    +0.058 A 
ATOM     20  C   UNL     1      -0.909  -6.824   0.000  0.00  0.00    +0.025 A 
ATOM     21  C   UNL     1      -1.694  -7.079   0.000  0.00  0.00    +0.099 A 
ATOM     22  N   UNL     1      -2.307  -6.527   0.000  0.00  0.00    -0.242 NA
ATOM     23  C   UNL     1      -2.135  -5.720   0.000  0.00  0.00    +0.099 A 
ATOM     24  C   UNL     1      -1.351  -5.465   0.000  0.00  0.00    +0.025 A 
ENDBRANCH  17  19
ENDBRANCH  12  14
BRANCH   9   8
ATOM      8  C   UNL     1       2.024  -2.216   0.000  0.00  0.00    +0.099 C 
BRANCH   8   7
ATOM      4  C   UNL     1       4.168  -0.978   0.000  0.00  0.00    +0.143 A 
ATOM      5  C   UNL     1       4.168  -1.803   0.000  0.00  0.00    +0.024 A 
ATOM      6  C   UNL     1       3.453  -2.216   0.000  0.00  0.00    -0.001 A 
ATOM      7  C   UNL     1       2.739  -1.803   0.000  0.00  0.00    -0.006 A 
ATOM     25  C   UNL     1       2.739  -0.978   0.000  0.00  0.00    -0.001 A 
ATOM     26  C   UNL     1       3.453  -0.566   0.000  0.00  0.00    +0.024 A 
BRANCH   4   2
ATOM      1  O   UNL     1       4.882   0.260   0.000  0.00  0.00    -0.126 OA
ATOM      2  N   UNL     1       4.882  -0.566   0.000  0.00  0.00    +0.058 N 
ATOM      3  O   UNL     1       5.597  -0.978   0.000  0.00  0.00    -0.126 OA
ENDBRANCH   4   2
ENDBRANCH   8   7
ENDBRANCH   9   8
TORSDOF 5
