MODEL 1
REMARK VINA RESULT:     -11.8      0.000      0.000
REMARK  Name = 
REMARK  5 active torsions:
REMARK  status: ('A' for Active; 'I' for Inactive)
REMARK    1  A    between atoms: O_2  and  C_3
REMARK    2  A    between atoms: C_6  and  C_9
REMARK    3  A    between atoms: N_11  and  C_12
REMARK    4  A    between atoms: N_22  and  C_23
REMARK    5  A    between atoms: C_23  and  C_24
REMARK                            x       y       z     vdW  Elec       q    Type
REMARK                         _______ _______ _______ _____ _____    ______ ____
ROOT
ATOM     12  C   UNL     1      -4.416   1.242  25.028  0.00  0.00    +0.146 C 
ATOM     13  C   UNL     1      -3.696   1.625  25.162  0.00  0.00    +0.119 C 
ATOM     14  N   UNL     1      -3.544   2.434  25.200  0.00  0.00    -0.261 N 
ATOM     15  C   UNL     1      -4.073   3.062  25.114  0.00  0.00    +0.095 C 
ATOM     16  C   UNL     1      -4.884   3.035  24.968  0.00  0.00    +0.024 C 
ATOM     17  C   UNL     1      -5.367   2.373  24.872  0.00  0.00    +0.037 C 
ATOM     18  C   UNL     1      -5.159   1.576  24.899  0.00  0.00    +0.174 C 
ATOM     19  O   UNL     1      -5.776   1.041  24.781  0.00  0.00    -0.221 OA
ATOM     20  C   UNL     1      -2.759   2.645  25.344  0.00  0.00    +0.324 C 
ATOM     21  O   UNL     1      -2.186   2.059  25.439  0.00  0.00    -0.251 OA
ATOM     22  N   UNL     1      -2.548   3.440  25.393  0.00  0.00    -0.184 NA
ENDROOT
BRANCH  12  11
ATOM      9  C   UNL     1      -3.975   0.023  24.426  0.00  0.00    +0.265 C 
ATOM     10  O   UNL     1      -3.592   0.454  23.836  0.00  0.00    -0.268 OA
ATOM     11  N   UNL     1      -4.387   0.418  25.022  0.00  0.00    -0.199 NA
BRANCH   9   6
ATOM      3  C   UNL     1      -3.889  -2.450  24.408  0.00  0.00    +0.139 A 
ATOM      4  C   UNL     1      -4.264  -2.045  23.794  0.00  0.00    +0.037 A 
ATOM      5  C   UNL     1      -4.293  -1.221  23.800  0.00  0.00    +0.008 A 
ATOM      6  C   UNL     1      -3.947  -0.800  24.420  0.00  0.00    +0.055 A 
ATOM      7  C   UNL     1      -3.572  -1.205  25.033  0.00  0.00    +0.008 A 
ATOM      8  C   UNL     1      -3.543  -2.029  25.027  0.00  0.00    +0.037 A 
BRANCH   3   2
ATOM      1  C   UNL     1      -3.147  -3.661  24.255  0.00  0.00    +0.252 C 
ATOM      2  O   UNL     1      -3.860  -3.274  24.402  0.00  0.00    -0.471 OA
ENDBRANCH   3   2
ENDBRANCH   9   6
ENDBRANCH  12  11
BRANCH  22  23
ATOM     23  C   UNL     1      -1.763   3.651  25.536  0.00  0.00    +0.143 C 
BRANCH  23  24
ATOM     24  C   UNL     1      -1.469   4.367  25.252  0.00  0.00    -0.001 A 
ATOM     25  C   UNL     1      -1.891   5.066  25.378  0.00  0.00    -0.003 A 
ATOM     26  C   UNL     1      -1.597   5.782  25.094  0.00  0.00    -0.000 A 
ATOM     27  C   UNL     1      -0.881   5.800  24.683  0.00  0.00    -0.000 A 
ATOM     28  C   UNL     1      -0.460   5.102  24.557  0.00  0.00    -0.000 A 
ATOM     29  C   UNL     1      -0.754   4.386  24.841  0.00  0.00    -0.003 A 
ENDBRANCH  23  24
ENDBRANCH  22  23
TORSDOF 5
ENDMDL
MODEL 2
REMARK VINA RESULT:     -10.8      1.114      5.771
REMARK  Name = 
REMARK  5 active torsions:
REMARK  status: ('A' for Active; 'I' for Inactive)
REMARK    1  A    between atoms: O_2  and  C_3
REMARK    2  A    between atoms: C_6  and  C_9
REMARK    3  A    between atoms: N_11  and  C_12
REMARK    4  A    between atoms: N_22  and  C_23
REMARK    5  A    between atoms: C_23  and  C_24
REMARK                            x       y       z     vdW  Elec       q    Type
REMARK                         _______ _______ _______ _____ _____    ______ ____
ROOT
ATOM     12  C   UNL     1      -4.019   2.499  24.887  0.00  0.00    +0.146 C 
ATOM     13  C   UNL     1      -3.708   1.787  24.608  0.00  0.00    +0.119 C 
ATOM     14  N   UNL     1      -4.061   1.041  24.596  0.00  0.00    -0.261 N 
ATOM     15  C   UNL     1      -4.811   0.823  24.860  0.00  0.00    +0.095 C 
ATOM     16  C   UNL     1      -5.394   1.296  25.202  0.00  0.00    +0.024 C 
ATOM     17  C   UNL     1      -5.370   2.104  25.363  0.00  0.00    +0.037 C 
ATOM     18  C   UNL     1      -4.759   2.640  25.223  0.00  0.00    +0.174 C 
ATOM     19  O   UNL     1      -4.907   3.419  25.449  0.00  0.00    -0.221 OA
ATOM     20  C   UNL     1      -3.602   0.433  24.278  0.00  0.00    +0.324 C 
ATOM     21  O   UNL     1      -2.843   0.593  23.997  0.00  0.00    -0.251 OA
ATOM     22  N   UNL     1      -3.903  -0.334  24.240  0.00  0.00    -0.184 NA
ENDROOT
BRANCH  12  11
ATOM      9  C   UNL     1      -2.828   3.194  25.262  0.00  0.00    +0.265 C 
ATOM     10  O   UNL     1      -2.627   2.575  25.768  0.00  0.00    -0.268 OA
ATOM     11  N   UNL     1      -3.524   3.156  24.821  0.00  0.00    -0.199 NA
BRANCH   9   6
ATOM      3  C   UNL     1      -1.344   5.165  25.064  0.00  0.00    +0.139 A 
ATOM      4  C   UNL     1      -1.080   4.423  24.821  0.00  0.00    +0.037 A 
ATOM      5  C   UNL     1      -1.574   3.766  24.886  0.00  0.00    +0.008 A 
ATOM      6  C   UNL     1      -2.334   3.850  25.196  0.00  0.00    +0.055 A 
ATOM      7  C   UNL     1      -2.599   4.593  25.439  0.00  0.00    +0.008 A 
ATOM      8  C   UNL     1      -2.104   5.250  25.374  0.00  0.00    +0.037 A 
BRANCH   3   2
ATOM      1  C   UNL     1      -0.184   5.789  24.513  0.00  0.00    +0.252 C 
ATOM      2  O   UNL     1      -0.850   5.821  24.998  0.00  0.00    -0.471 OA
ENDBRANCH   3   2
ENDBRANCH   9   6
ENDBRANCH  12  11
BRANCH  22  23
ATOM     23  C   UNL     1      -3.445  -0.942  23.922  0.00  0.00    +0.143 C 
BRANCH  23  24
ATOM     24  C   UNL     1      -3.611  -1.726  24.112  0.00  0.00    -0.001 A 
ATOM     25  C   UNL     1      -3.209  -2.095  24.733  0.00  0.00    -0.003 A 
ATOM     26  C   UNL     1      -3.375  -2.880  24.923  0.00  0.00    -0.000 A 
ATOM     27  C   UNL     1      -3.942  -3.297  24.494  0.00  0.00    -0.000 A 
ATOM     28  C   UNL     1      -4.344  -2.929  23.874  0.00  0.00    -0.000 A 
ATOM     29  C   UNL     1      -4.178  -2.144  23.683  0.00  0.00    -0.003 A 
ENDBRANCH  23  24
ENDBRANCH  22  23
TORSDOF 5
ENDMDL
MODEL 3
REMARK VINA RESULT:     -10.5      2.028      6.293
REMARK  Name = 
REMARK  5 active torsions:
REMARK  status: ('A' for Active; 'I' for Inactive)
REMARK    1  A    between atoms: O_2  and  C_3
REMARK    2  A    between atoms: C_6  and  C_9
REMARK    3  A    between atoms: N_11  and  C_12
REMARK    4  A    between atoms: N_22  and  C_23
REMARK    5  A    between atoms: C_23  and  C_24
REMARK                            x       y       z     vdW  Elec       q    Type
REMARK                         _______ _______ _______ _____ _____    ______ ____
ROOT
ATOM     12  C   UNL     1      -0.678   1.382  24.677  0.00  0.00    +0.146 C 
ATOM     13  C   UNL     1      -1.357   0.943  24.841  0.00  0.00    +0.119 C 
ATOM     14  N   UNL     1      -1.497   0.143  24.702  0.00  0.00    -0.261 N 
ATOM     15  C   UNL     1      -0.994  -0.417  24.364  0.00  0.00    +0.095 C 
ATOM     16  C   UNL     1      -0.226  -0.314  24.082  0.00  0.00    +0.024 C 
ATOM     17  C   UNL     1       0.229   0.374  24.068  0.00  0.00    +0.037 C 
ATOM     18  C   UNL     1       0.028   1.129  24.333  0.00  0.00    +0.174 C 
ATOM     19  O   UNL     1       0.609   1.707  24.242  0.00  0.00    -0.221 OA
ATOM     20  C   UNL     1      -2.240  -0.136  24.931  0.00  0.00    +0.324 C 
ATOM     21  O   UNL     1      -2.785   0.379  25.274  0.00  0.00    -0.251 OA
ATOM     22  N   UNL     1      -2.437  -0.929  24.816  0.00  0.00    -0.184 NA
ENDROOT
BRANCH  12  11
ATOM      9  C   UNL     1      -1.189   2.699  24.460  0.00  0.00    +0.265 C 
ATOM     10  O   UNL     1      -1.639   2.419  23.827  0.00  0.00    -0.268 OA
ATOM     11  N   UNL     1      -0.709   2.180  24.884  0.00  0.00    -0.199 NA
BRANCH   9   6
ATOM      3  C   UNL     1      -1.282   5.093  25.082  0.00  0.00    +0.139 A 
ATOM      4  C   UNL     1      -0.675   4.815  24.598  0.00  0.00    +0.037 A 
ATOM      5  C   UNL     1      -0.644   4.017  24.390  0.00  0.00    +0.008 A 
ATOM      6  C   UNL     1      -1.220   3.496  24.667  0.00  0.00    +0.055 A 
ATOM      7  C   UNL     1      -1.827   3.774  25.151  0.00  0.00    +0.008 A 
ATOM      8  C   UNL     1      -1.858   4.571  25.358  0.00  0.00    +0.037 A 
BRANCH   3   2
ATOM      1  C   UNL     1      -1.915   6.370  24.994  0.00  0.00    +0.252 C 
ATOM      2  O   UNL     1      -1.313   5.890  25.289  0.00  0.00    -0.471 OA
ENDBRANCH   3   2
ENDBRANCH   9   6
ENDBRANCH  12  11
BRANCH  22  23
ATOM     23  C   UNL     1      -3.179  -1.207  25.044  0.00  0.00    +0.143 C 
BRANCH  23  24
ATOM     24  C   UNL     1      -3.502  -1.870  24.676  0.00  0.00    -0.001 A 
ATOM     25  C   UNL     1      -4.060  -1.777  24.074  0.00  0.00    -0.003 A 
ATOM     26  C   UNL     1      -4.384  -2.440  23.705  0.00  0.00    -0.000 A 
ATOM     27  C   UNL     1      -4.150  -3.196  23.938  0.00  0.00    -0.000 A 
ATOM     28  C   UNL     1      -3.592  -3.289  24.539  0.00  0.00    -0.000 A 
ATOM     29  C   UNL     1      -3.269  -2.626  24.908  0.00  0.00    -0.003 A 
ENDBRANCH  23  24
ENDBRANCH  22  23
TORSDOF 5
ENDMDL
MODEL 4
REMARK VINA RESULT:     -10.2      3.477      4.983
REMARK  Name = 
REMARK  5 active torsions:
REMARK  status: ('A' for Active; 'I' for Inactive)
REMARK    1  A    between atoms: O_2  and  C_3
REMARK    2  A    between atoms: C_6  and  C_9
REMARK    3  A    between atoms: N_11  and  C_12
REMARK    4  A    between atoms: N_22  and  C_23
REMARK    5  A    between atoms: C_23  and  C_24
REMARK                            x       y       z     vdW  Elec       q    Type
REMARK                         _______ _______ _______ _____ _____    ______ ____
ROOT
ATOM     12  C   UNL     1      -0.723  -0.066  24.641  0.00  0.00    +0.146 C 
ATOM     13  C   UNL     1      -1.239   0.569  24.534  0.00  0.00    +0.119 C 
ATOM     14  N   UNL     1      -2.027   0.636  24.767  0.00  0.00    -0.261 N 
ATOM     15  C   UNL     1      -2.495   0.086  25.165  0.00  0.00    +0.095 C 
ATOM     16  C   UNL     1      -2.290  -0.669  25.427  0.00  0.00    +0.024 C 
ATOM     17  C   UNL     1      -1.566  -1.059  25.357  0.00  0.00    +0.037 C 
ATOM     18  C   UNL     1      -0.869  -0.791  25.008  0.00  0.00    +0.174 C 
ATOM     19  O   UNL     1      -0.234  -1.317  25.027  0.00  0.00    -0.221 OA
ATOM     20  C   UNL     1      -2.397   1.350  24.577  0.00  0.00    +0.324 C 
ATOM     21  O   UNL     1      -1.977   1.939  24.180  0.00  0.00    -0.251 OA
ATOM     22  N   UNL     1      -3.185   1.474  24.786  0.00  0.00    -0.184 NA
ENDROOT
BRANCH  12  11
ATOM      9  C   UNL     1       0.162   0.070  23.527  0.00  0.00    +0.265 C 
ATOM     10  O   UNL     1      -0.478   0.001  23.012  0.00  0.00    -0.268 OA
ATOM     11  N   UNL     1       0.039   0.037  24.342  0.00  0.00    -0.199 NA
BRANCH   9   6
ATOM      3  C   UNL     1       2.448   0.380  22.630  0.00  0.00    +0.139 A 
ATOM      4  C   UNL     1       1.963  -0.216  22.329  0.00  0.00    +0.037 A 
ATOM      5  C   UNL     1       1.201  -0.319  22.628  0.00  0.00    +0.008 A 
ATOM      6  C   UNL     1       0.923   0.173  23.229  0.00  0.00    +0.055 A 
ATOM      7  C   UNL     1       1.408   0.769  23.530  0.00  0.00    +0.008 A 
ATOM      8  C   UNL     1       2.170   0.872  23.231  0.00  0.00    +0.037 A 
BRANCH   3   2
ATOM      1  C   UNL     1       3.795   0.821  22.803  0.00  0.00    +0.252 C 
ATOM      2  O   UNL     1       3.209   0.482  22.332  0.00  0.00    -0.471 OA
ENDBRANCH   3   2
ENDBRANCH   9   6
ENDBRANCH  12  11
BRANCH  22  23
ATOM     23  C   UNL     1      -3.555   2.186  24.596  0.00  0.00    +0.143 C 
BRANCH  23  24
ATOM     24  C   UNL     1      -4.308   2.351  24.889  0.00  0.00    -0.001 A 
ATOM     25  C   UNL     1      -4.949   1.878  24.671  0.00  0.00    -0.003 A 
ATOM     26  C   UNL     1      -5.702   2.043  24.964  0.00  0.00    -0.000 A 
ATOM     27  C   UNL     1      -5.815   2.680  25.476  0.00  0.00    -0.000 A 
ATOM     28  C   UNL     1      -5.174   3.153  25.694  0.00  0.00    -0.000 A 
ATOM     29  C   UNL     1      -4.421   2.988  25.401  0.00  0.00    -0.003 A 
ENDBRANCH  23  24
ENDBRANCH  22  23
TORSDOF 5
ENDMDL
MODEL 5
REMARK VINA RESULT:      -9.6      3.346      4.712
REMARK  Name = 
REMARK  5 active torsions:
REMARK  status: ('A' for Active; 'I' for Inactive)
REMARK    1  A    between atoms: O_2  and  C_3
REMARK    2  A    between atoms: C_6  and  C_9
REMARK    3  A    between atoms: N_11  and  C_12
REMARK    4  A    between atoms: N_22  and  C_23
REMARK    5  A    between atoms: C_23  and  C_24
REMARK                            x       y       z     vdW  Elec       q    Type
REMARK                         _______ _______ _______ _____ _____    ______ ____
ROOT
ATOM     12  C   UNL     1      -1.985  -0.015  25.002  0.00  0.00    +0.146 C 
ATOM     13  C   UNL     1      -1.394   0.352  24.557  0.00  0.00    +0.119 C 
ATOM     14  N   UNL     1      -0.669   0.044  24.314  0.00  0.00    -0.261 N 
ATOM     15  C   UNL     1      -0.354  -0.705  24.455  0.00  0.00    +0.095 C 
ATOM     16  C   UNL     1      -0.688  -1.332  24.874  0.00  0.00    +0.024 C 
ATOM     17  C   UNL     1      -1.419  -1.365  25.255  0.00  0.00    +0.037 C 
ATOM     18  C   UNL     1      -1.996  -0.779  25.312  0.00  0.00    +0.174 C 
ATOM     19  O   UNL     1      -2.674  -0.984  25.735  0.00  0.00    -0.221 OA
ATOM     20  C   UNL     1      -0.194   0.555  23.872  0.00  0.00    +0.324 C 
ATOM     21  O   UNL     1      -0.457   1.317  23.700  0.00  0.00    -0.251 OA
ATOM     22  N   UNL     1       0.543   0.302  23.601  0.00  0.00    -0.184 NA
ENDROOT
BRANCH  12  11
ATOM      9  C   UNL     1      -3.189   0.610  24.551  0.00  0.00    +0.265 C 
ATOM     10  O   UNL     1      -3.055   0.317  23.791  0.00  0.00    -0.268 OA
ATOM     11  N   UNL     1      -2.654   0.443  25.156  0.00  0.00    -0.199 NA
BRANCH   9   6
ATOM      3  C   UNL     1      -5.194   1.985  25.013  0.00  0.00    +0.139 A 
ATOM      4  C   UNL     1      -4.479   2.349  24.822  0.00  0.00    +0.037 A 
ATOM      5  C   UNL     1      -3.810   1.890  24.668  0.00  0.00    +0.008 A 
ATOM      6  C   UNL     1      -3.857   1.068  24.704  0.00  0.00    +0.055 A 
ATOM      7  C   UNL     1      -4.572   0.704  24.895  0.00  0.00    +0.008 A 
ATOM      8  C   UNL     1      -5.240   1.162  25.049  0.00  0.00    +0.037 A 
BRANCH   3   2
ATOM      1  C   UNL     1      -5.837   3.026  25.749  0.00  0.00    +0.252 C 
ATOM      2  O   UNL     1      -5.862   2.443  25.166  0.00  0.00    -0.471 OA
ENDBRANCH   3   2
ENDBRANCH   9   6
ENDBRANCH  12  11
BRANCH  22  23
ATOM     23  C   UNL     1       1.017   0.811  23.159  0.00  0.00    +0.143 C 
BRANCH  23  24
ATOM     24  C   UNL     1       1.768   0.570  22.917  0.00  0.00    -0.001 A 
ATOM     25  C   UNL     1       2.439   0.945  23.218  0.00  0.00    -0.003 A 
ATOM     26  C   UNL     1       3.190   0.704  22.976  0.00  0.00    -0.000 A 
ATOM     27  C   UNL     1       3.271   0.088  22.433  0.00  0.00    -0.000 A 
ATOM     28  C   UNL     1       2.599  -0.287  22.132  0.00  0.00    -0.000 A 
ATOM     29  C   UNL     1       1.849  -0.046  22.374  0.00  0.00    -0.003 A 
ENDBRANCH  23  24
ENDBRANCH  22  23
TORSDOF 5
ENDMDL
MODEL 6
REMARK VINA RESULT:      -9.5      2.008      2.769
REMARK  Name = 
REMARK  5 active torsions:
REMARK  status: ('A' for Active; 'I' for Inactive)
REMARK    1  A    between atoms: O_2  and  C_3
REMARK    2  A    between atoms: C_6  and  C_9
REMARK    3  A    between atoms: N_11  and  C_12
REMARK    4  A    between atoms: N_22  and  C_23
REMARK    5  A    between atoms: C_23  and  C_24
REMARK                            x       y       z     vdW  Elec       q    Type
REMARK                         _______ _______ _______ _____ _____    ______ ____
ROOT
ATOM     12  C   UNL     1      -0.984   0.222  24.208  0.00  0.00    +0.146 C 
ATOM     13  C   UNL     1      -1.303   0.907  24.540  0.00  0.00    +0.119 C 
ATOM     14  N   UNL     1      -0.929   1.626  24.692  0.00  0.00    -0.261 N 
ATOM     15  C   UNL     1      -0.144   1.838  24.551  0.00  0.00    +0.095 C 
ATOM     16  C   UNL     1       0.460   1.383  24.222  0.00  0.00    +0.024 C 
ATOM     17  C   UNL     1       0.429   0.604  23.954  0.00  0.00    +0.037 C 
ATOM     18  C   UNL     1      -0.213   0.087  23.947  0.00  0.00    +0.174 C 
ATOM     19  O   UNL     1      -0.065  -0.664  23.640  0.00  0.00    -0.221 OA
ATOM     20  C   UNL     1      -1.402   2.211  25.032  0.00  0.00    +0.324 C 
ATOM     21  O   UNL     1      -2.196   2.056  25.196  0.00  0.00    -0.251 OA
ATOM     22  N   UNL     1      -1.082   2.951  25.206  0.00  0.00    -0.184 NA
ENDROOT
BRANCH  12  11
ATOM      9  C   UNL     1      -1.776  -0.813  24.795  0.00  0.00    +0.265 C 
ATOM     10  O   UNL     1      -1.524  -0.579  25.545  0.00  0.00    -0.268 OA
ATOM     11  N   UNL     1      -1.505  -0.412  24.127  0.00  0.00    -0.199 NA
BRANCH   9   6
ATOM      3  C   UNL     1      -3.340  -2.715  24.551  0.00  0.00    +0.139 A 
ATOM      4  C   UNL     1      -3.632  -1.947  24.626  0.00  0.00    +0.037 A 
ATOM      5  C   UNL     1      -3.111  -1.313  24.708  0.00  0.00    +0.008 A 
ATOM      6  C   UNL     1      -2.297  -1.446  24.714  0.00  0.00    +0.055 A 
ATOM      7  C   UNL     1      -2.005  -2.214  24.639  0.00  0.00    +0.008 A 
ATOM      8  C   UNL     1      -2.526  -2.848  24.558  0.00  0.00    +0.037 A 
BRANCH   3   2
ATOM      1  C   UNL     1      -4.359  -3.392  23.814  0.00  0.00    +0.252 C 
ATOM      2  O   UNL     1      -3.861  -3.348  24.470  0.00  0.00    -0.471 OA
ENDBRANCH   3   2
ENDBRANCH   9   6
ENDBRANCH  12  11
BRANCH  22  23
ATOM     23  C   UNL     1      -1.555   3.536  25.545  0.00  0.00    +0.143 C 
BRANCH  23  24
ATOM     24  C   UNL     1      -1.463   4.324  25.319  0.00  0.00    -0.001 A 
ATOM     25  C   UNL     1      -2.099   4.847  25.377  0.00  0.00    -0.003 A 
ATOM     26  C   UNL     1      -2.006   5.635  25.150  0.00  0.00    -0.000 A 
ATOM     27  C   UNL     1      -1.279   5.900  24.866  0.00  0.00    -0.000 A 
ATOM     28  C   UNL     1      -0.643   5.376  24.808  0.00  0.00    -0.000 A 
ATOM     29  C   UNL     1      -0.735   4.589  25.034  0.00  0.00    -0.003 A 
ENDBRANCH  23  24
ENDBRANCH  22  23
TORSDOF 5
ENDMDL
MODEL 7
REMARK VINA RESULT:      -9.3      3.202      4.706
REMARK  Name = 
REMARK  5 active torsions:
REMARK  status: ('A' for Active; 'I' for Inactive)
REMARK    1  A    between atoms: O_2  and  C_3
REMARK    2  A    between atoms: C_6  and  C_9
REMARK    3  A    between atoms: N_11  and  C_12
REMARK    4  A    between atoms: N_22  and  C_23
REMARK    5  A    between atoms: C_23  and  C_24
REMARK                            x       y       z     vdW  Elec       q    Type
REMARK                         _______ _______ _______ _____ _____    ______ ____
ROOT
ATOM     12  C   UNL     1      -1.642   2.196  25.110  0.00  0.00    +0.146 C 
ATOM     13  C   UNL     1      -1.275   1.610  24.659  0.00  0.00    +0.119 C 
ATOM     14  N   UNL     1      -0.481   1.549  24.444  0.00  0.00    -0.261 N 
ATOM     15  C   UNL     1       0.142   2.058  24.626  0.00  0.00    +0.095 C 
ATOM     16  C   UNL     1       0.125   2.754  25.069  0.00  0.00    +0.024 C 
ATOM     17  C   UNL     1      -0.519   3.112  25.439  0.00  0.00    +0.037 C 
ATOM     18  C   UNL     1      -1.305   2.864  25.457  0.00  0.00    +0.174 C 
ATOM     19  O   UNL     1      -1.823   3.348  25.878  0.00  0.00    -0.221 OA
ATOM     20  C   UNL     1      -0.284   0.892  23.985  0.00  0.00    +0.324 C 
ATOM     21  O   UNL     1      -0.867   0.349  23.771  0.00  0.00    -0.251 OA
ATOM     22  N   UNL     1       0.496   0.779  23.740  0.00  0.00    -0.184 NA
ENDROOT
BRANCH  12  11
ATOM      9  C   UNL     1      -2.980   2.239  24.611  0.00  0.00    +0.265 C 
ATOM     10  O   UNL     1      -2.697   2.473  23.873  0.00  0.00    -0.268 OA
ATOM     11  N   UNL     1      -2.452   2.100  25.230  0.00  0.00    -0.199 NA
BRANCH   9   6
ATOM      3  C   UNL     1      -5.412   1.951  24.970  0.00  0.00    +0.139 A 
ATOM      4  C   UNL     1      -4.920   1.290  24.927  0.00  0.00    +0.037 A 
ATOM      5  C   UNL     1      -4.109   1.386  24.807  0.00  0.00    +0.008 A 
ATOM      6  C   UNL     1      -3.790   2.143  24.731  0.00  0.00    +0.055 A 
ATOM      7  C   UNL     1      -4.282   2.804  24.774  0.00  0.00    +0.008 A 
ATOM      8  C   UNL     1      -5.093   2.708  24.893  0.00  0.00    +0.037 A 
BRANCH   3   2
ATOM      1  C   UNL     1      -6.538   1.924  25.848  0.00  0.00    +0.252 C 
ATOM      2  O   UNL     1      -6.222   1.855  25.089  0.00  0.00    -0.471 OA
ENDBRANCH   3   2
ENDBRANCH   9   6
ENDBRANCH  12  11
BRANCH  22  23
ATOM     23  C   UNL     1       0.693   0.122  23.281  0.00  0.00    +0.143 C 
BRANCH  23  24
ATOM     24  C   UNL     1       1.414   0.100  22.881  0.00  0.00    -0.001 A 
ATOM     25  C   UNL     1       1.450  -0.199  22.112  0.00  0.00    -0.003 A 
ATOM     26  C   UNL     1       2.171  -0.221  21.712  0.00  0.00    -0.000 A 
ATOM     27  C   UNL     1       2.856   0.054  22.080  0.00  0.00    -0.000 A 
ATOM     28  C   UNL     1       2.820   0.353  22.849  0.00  0.00    -0.000 A 
ATOM     29  C   UNL     1       2.099   0.375  23.249  0.00  0.00    -0.003 A 
ENDBRANCH  23  24
ENDBRANCH  22  23
TORSDOF 5
ENDMDL
MODEL 8
REMARK VINA RESULT:      -9.3      4.072      4.781
REMARK  Name = 
REMARK  5 active torsions:
REMARK  status: ('A' for Active; 'I' for Inactive)
REMARK    1  A    between atoms: O_2  and  C_3
REMARK    2  A    between atoms: C_6  and  C_9
REMARK    3  A    between atoms: N_11  and  C_12
REMARK    4  A    between atoms: N_22  and  C_23
REMARK    5  A    between atoms: C_23  and  C_24
REMARK                            x       y       z     vdW  Elec       q    Type
REMARK                         _______ _______ _______ _____ _____    ______ ____
ROOT
ATOM     12  C   UNL     1      -0.798   0.604  24.196  0.00  0.00    +0.146 C 
ATOM     13  C   UNL     1      -0.133   0.330  23.790  0.00  0.00    +0.119 C 
ATOM     14  N   UNL     1       0.603   0.692  23.707  0.00  0.00    -0.261 N 
ATOM     15  C   UNL     1       0.857   1.417  24.007  0.00  0.00    +0.095 C 
ATOM     16  C   UNL     1       0.437   1.959  24.466  0.00  0.00    +0.024 C 
ATOM     17  C   UNL     1      -0.341   1.910  24.737  0.00  0.00    +0.037 C 
ATOM     18  C   UNL     1      -0.890   1.307  24.617  0.00  0.00    +0.174 C 
ATOM     19  O   UNL     1      -1.630   1.423  24.964  0.00  0.00    -0.221 OA
ATOM     20  C   UNL     1       1.159   0.273  23.264  0.00  0.00    +0.324 C 
ATOM     21  O   UNL     1       0.961  -0.458  22.938  0.00  0.00    -0.251 OA
ATOM     22  N   UNL     1       1.913   0.586  23.146  0.00  0.00    -0.184 NA
ENDROOT
BRANCH  12  11
ATOM      9  C   UNL     1      -1.472  -0.577  24.634  0.00  0.00    +0.265 C 
ATOM     10  O   UNL     1      -0.826  -0.768  25.110  0.00  0.00    -0.268 OA
ATOM     11  N   UNL     1      -1.458   0.109  24.177  0.00  0.00    -0.199 NA
BRANCH   9   6
ATOM      3  C   UNL     1      -3.451  -2.063  24.578  0.00  0.00    +0.139 A 
ATOM      4  C   UNL     1      -2.693  -2.385  24.559  0.00  0.00    +0.037 A 
ATOM      5  C   UNL     1      -2.033  -1.890  24.578  0.00  0.00    +0.008 A 
ATOM      6  C   UNL     1      -2.131  -1.072  24.616  0.00  0.00    +0.055 A 
ATOM      7  C   UNL     1      -2.890  -0.750  24.635  0.00  0.00    +0.008 A 
ATOM      8  C   UNL     1      -3.550  -1.245  24.616  0.00  0.00    +0.037 A 
BRANCH   3   2
ATOM      1  C   UNL     1      -4.508  -2.688  23.849  0.00  0.00    +0.252 C 
ATOM      2  O   UNL     1      -4.110  -2.557  24.560  0.00  0.00    -0.471 OA
ENDBRANCH   3   2
ENDBRANCH   9   6
ENDBRANCH  12  11
BRANCH  22  23
ATOM     23  C   UNL     1       2.470   0.168  22.704  0.00  0.00    +0.143 C 
BRANCH  23  24
ATOM     24  C   UNL     1       3.275   0.280  22.841  0.00  0.00    -0.001 A 
ATOM     25  C   UNL     1       3.637   0.988  22.620  0.00  0.00    -0.003 A 
ATOM     26  C   UNL     1       4.443   1.100  22.758  0.00  0.00    -0.000 A 
ATOM     27  C   UNL     1       4.887   0.505  23.117  0.00  0.00    -0.000 A 
ATOM     28  C   UNL     1       4.524  -0.204  23.338  0.00  0.00    -0.000 A 
ATOM     29  C   UNL     1       3.719  -0.316  23.200  0.00  0.00    -0.003 A 
ENDBRANCH  23  24
ENDBRANCH  22  23
TORSDOF 5
ENDMDL
