REMARK  Name = 
REMARK  6 active torsions:
REMARK  status: ('A' for Active; 'I' for Inactive)
REMARK    1  A    between atoms: C_3  and  C_4
REMARK    2  A    between atoms: C_4  and  N_5
REMARK    3  A    between atoms: C_6  and  C_8
REMARK    4  A    between atoms: C_14  and  C_15
REMARK    5  A    between atoms: C_15  and  C_16
REMARK    6  A    between atoms: N_18  and  C_19
REMARK                            x       y       z     vdW  Elec       q    Type
REMARK                         _______ _______ _______ _____ _____    ______ ____
ROOT
ATOM      1  O   UNL     1       2.751  -1.712   0.000  0.00  0.00    -0.218 OA
ATOM      2  C   UNL     1       2.751  -2.537   0.000  0.00  0.00    +0.213 C 
ATOM      3  C   UNL     1       3.419  -3.022   0.000  0.00  0.00    +0.170 C 
ATOM     13  O   UNL     1       3.164  -3.806   0.000  0.00  0.00    -0.351 OA
ATOM     14  C   UNL     1       2.339  -3.806   0.000  0.00  0.00    +0.157 C 
ATOM     25  C   UNL     1       2.084  -3.022   0.000  0.00  0.00    +0.212 C 
ATOM     26  O   UNL     1       1.299  -2.767   0.000  0.00  0.00    -0.218 OA
ENDROOT
BRANCH   3   4
ATOM      4  C   UNL     1       4.203  -2.767   0.000  0.00  0.00    +0.148 C 
BRANCH   4   5
ATOM      5  N   UNL     1       4.375  -1.960   0.000  0.00  0.00    -0.196 NA
ATOM      6  C   UNL     1       5.159  -1.705   0.000  0.00  0.00    +0.300 C 
ATOM      7  O   UNL     1       5.772  -2.257   0.000  0.00  0.00    -0.265 OA
BRANCH   6   8
ATOM      8  C   UNL     1       5.331  -0.898   0.000  0.00  0.00    +0.200 A 
ATOM      9  C   UNL     1       4.779  -0.285   0.000  0.00  0.00    +0.046 A 
ATOM     10  C   UNL     1       5.191   0.430   0.000  0.00  0.00    +0.044 A 
ATOM     11  C   UNL     1       5.998   0.258   0.000  0.00  0.00    +0.180 A 
ATOM     12  O   UNL     1       6.085  -0.562   0.000  0.00  0.00    -0.446 OA
ENDBRANCH   6   8
ENDBRANCH   4   5
ENDBRANCH   3   4
BRANCH  14  15
ATOM     15  C   UNL     1       1.854  -4.474   0.000  0.00  0.00    +0.119 C 
BRANCH  15  16
ATOM     16  C   UNL     1       1.033  -4.387   0.000  0.00  0.00    +0.248 C 
ATOM     17  O   UNL     1       0.698  -3.634   0.000  0.00  0.00    -0.273 OA
ATOM     18  N   UNL     1       0.548  -5.055   0.000  0.00  0.00    -0.179 NA
BRANCH  18  19
ATOM     19  C   UNL     1      -0.272  -4.969   0.000  0.00  0.00    +0.073 A 
ATOM     20  C   UNL     1      -0.757  -5.636   0.000  0.00  0.00    +0.017 A 
ATOM     21  C   UNL     1      -1.577  -5.550   0.000  0.00  0.00    +0.001 A 
ATOM     22  C   UNL     1      -1.913  -4.796   0.000  0.00  0.00    +0.000 A 
ATOM     23  C   UNL     1      -1.428  -4.129   0.000  0.00  0.00    +0.001 A 
ATOM     24  C   UNL     1      -0.608  -4.215   0.000  0.00  0.00    +0.017 A 
ENDBRANCH  18  19
ENDBRANCH  15  16
ENDBRANCH  14  15
TORSDOF 6
