MODEL 1
REMARK VINA RESULT:     -11.8      0.000      0.000
REMARK  Name = 
REMARK  7 active torsions:
REMARK  status: ('A' for Active; 'I' for Inactive)
REMARK    1  A    between atoms: C_2  and  C_4
REMARK    2  A    between atoms: C_4  and  C_5
REMARK    3  A    between atoms: C_4  and  N_15
REMARK    4  A    between atoms: C_5  and  C_6
REMARK    5  A    between atoms: C_16  and  C_18
REMARK    6  A    between atoms: C_24  and  C_26
REMARK    7  A    between atoms: C_31  and  C_33
REMARK                            x       y       z     vdW  Elec       q    Type
REMARK                         _______ _______ _______ _____ _____    ______ ____
ROOT
ATOM     18  C   UNL     1      -1.712   0.989  24.441  0.00  0.00    +0.174 C 
ATOM     19  C   UNL     1      -2.421   0.660  24.706  0.00  0.00    +0.123 C 
ATOM     20  N   UNL     1      -2.555  -0.151  24.627  0.00  0.00    -0.272 N 
ATOM     21  C   UNL     1      -1.980  -0.633  24.284  0.00  0.00    +0.115 C 
ATOM     22  C   UNL     1      -1.271  -0.304  24.020  0.00  0.00    +0.116 C 
ATOM     23  N   UNL     1      -1.137   0.506  24.098  0.00  0.00    -0.266 N 
ATOM     24  C   UNL     1      -0.428   0.835  23.834  0.00  0.00    +0.255 C 
ATOM     25  O   UNL     1      -0.294   1.646  23.912  0.00  0.00    -0.269 OA
ATOM     31  C   UNL     1      -3.264  -0.479  24.892  0.00  0.00    +0.249 C 
ATOM     32  O   UNL     1      -3.839   0.002  25.235  0.00  0.00    -0.270 OA
ENDROOT
BRANCH  31  33
ATOM     33  C   UNL     1      -3.398  -1.290  24.814  0.00  0.00    +0.056 A 
ATOM     34  C   UNL     1      -3.095  -1.814  25.375  0.00  0.00    +0.005 A 
ATOM     35  C   UNL     1      -3.229  -2.624  25.296  0.00  0.00    +0.002 A 
ATOM     36  C   UNL     1      -3.665  -2.910  24.657  0.00  0.00    +0.030 A 
ATOM     37  C   UNL     1      -3.967  -2.386  24.096  0.00  0.00    +0.140 A 
ATOM     38  F   UNL     1      -4.403  -2.673  23.456  0.00  0.00    -0.204 F 
ATOM     39  C   UNL     1      -3.833  -1.576  24.174  0.00  0.00    +0.034 A 
ENDBRANCH  31  33
BRANCH  24  26
ATOM     26  C   UNL     1       0.147   0.353  23.490  0.00  0.00    +0.083 A 
ATOM     27  C   UNL     1       0.152   0.085  22.710  0.00  0.00    +0.012 A 
ATOM     28  C   UNL     1       0.826  -0.379  22.604  0.00  0.00    +0.008 A 
ATOM     29  C   UNL     1       1.238  -0.396  23.320  0.00  0.00    +0.036 A 
ATOM     30  S   UNL     1       0.818   0.056  23.866  0.00  0.00    -0.082 S 
ENDBRANCH  24  26
BRANCH  18  16
ATOM     15  N   UNL     1      -1.740   2.177  25.235  0.00  0.00    -0.196 NA
ATOM     16  C   UNL     1      -1.578   1.798  24.520  0.00  0.00    +0.262 C 
ATOM     17  O   UNL     1      -1.282   2.231  23.883  0.00  0.00    -0.271 OA
BRANCH  15   4
ATOM      4  C   UNL     1      -1.606   2.986  25.313  0.00  0.00    +0.179 C 
BRANCH   4   2
ATOM      1  N   UNL     1      -0.492   3.881  25.288  0.00  0.00    -0.086 NA
ATOM      2  C   UNL     1      -0.899   3.257  25.641  0.00  0.00    +0.281 C 
ATOM      3  O   UNL     1      -0.598   2.901  26.323  0.00  0.00    -0.270 OA
ENDBRANCH   4   2
BRANCH   4   5
ATOM      5  C   UNL     1      -2.179   3.526  25.065  0.00  0.00    +0.059 C 
BRANCH   5   6
ATOM      6  C   UNL     1      -2.827   3.691  25.546  0.00  0.00    +0.001 A 
ATOM      7  C   UNL     1      -2.802   3.850  26.356  0.00  0.00    +0.095 A 
ATOM      8  N   UNL     1      -3.574   3.984  26.614  0.00  0.00    -0.244 NA
ATOM      9  C   UNL     1      -4.076   3.908  25.964  0.00  0.00    +0.081 A 
ATOM     10  C   UNL     1      -3.615   3.727  25.305  0.00  0.00    +0.015 A 
ATOM     11  C   UNL     1      -3.972   3.619  24.569  0.00  0.00    +0.001 A 
ATOM     12  C   UNL     1      -4.790   3.691  24.492  0.00  0.00    +0.000 A 
ATOM     13  C   UNL     1      -5.251   3.872  25.152  0.00  0.00    +0.002 A 
ATOM     14  C   UNL     1      -4.895   3.981  25.888  0.00  0.00    +0.019 A 
ENDBRANCH   5   6
ENDBRANCH   4   5
ENDBRANCH  15   4
ENDBRANCH  18  16
TORSDOF 7
ENDMDL
MODEL 2
REMARK VINA RESULT:     -10.8      2.094      4.758
REMARK  Name = 
REMARK  7 active torsions:
REMARK  status: ('A' for Active; 'I' for Inactive)
REMARK    1  A    between atoms: C_2  and  C_4
REMARK    2  A    between atoms: C_4  and  C_5
REMARK    3  A    between atoms: C_4  and  N_15
REMARK    4  A    between atoms: C_5  and  C_6
REMARK    5  A    between atoms: C_16  and  C_18
REMARK    6  A    between atoms: C_24  and  C_26
REMARK    7  A    between atoms: C_31  and  C_33
REMARK                            x       y       z     vdW  Elec       q    Type
REMARK                         _______ _______ _______ _____ _____    ______ ____
ROOT
ATOM     18  C   UNL     1      -1.379   1.060  24.463  0.00  0.00    +0.174 C 
ATOM     19  C   UNL     1      -0.983   0.426  24.114  0.00  0.00    +0.123 C 
ATOM     20  N   UNL     1      -0.226   0.533  23.802  0.00  0.00    -0.272 N 
ATOM     21  C   UNL     1       0.134   1.275  23.839  0.00  0.00    +0.115 C 
ATOM     22  C   UNL     1      -0.262   1.909  24.188  0.00  0.00    +0.116 C 
ATOM     23  N   UNL     1      -1.018   1.802  24.500  0.00  0.00    -0.266 N 
ATOM     24  C   UNL     1      -1.414   2.436  24.849  0.00  0.00    +0.255 C 
ATOM     25  O   UNL     1      -2.171   2.329  25.161  0.00  0.00    -0.269 OA
ATOM     31  C   UNL     1       0.169  -0.101  23.453  0.00  0.00    +0.249 C 
ATOM     32  O   UNL     1      -0.191  -0.842  23.416  0.00  0.00    -0.270 OA
ENDROOT
BRANCH  31  33
ATOM     33  C   UNL     1       0.926   0.006  23.141  0.00  0.00    +0.056 A 
ATOM     34  C   UNL     1       1.542   0.254  23.630  0.00  0.00    +0.005 A 
ATOM     35  C   UNL     1       2.299   0.361  23.318  0.00  0.00    +0.002 A 
ATOM     36  C   UNL     1       2.438   0.220  22.518  0.00  0.00    +0.030 A 
ATOM     37  C   UNL     1       1.821  -0.027  22.029  0.00  0.00    +0.140 A 
ATOM     38  F   UNL     1       1.961  -0.167  21.227  0.00  0.00    -0.204 F 
ATOM     39  C   UNL     1       1.065  -0.134  22.340  0.00  0.00    +0.034 A 
ENDBRANCH  31  33
BRANCH  24  26
ATOM     26  C   UNL     1      -1.054   3.177  24.886  0.00  0.00    +0.083 A 
ATOM     27  C   UNL     1      -0.517   3.427  25.461  0.00  0.00    +0.012 A 
ATOM     28  C   UNL     1      -0.298   4.203  25.285  0.00  0.00    +0.008 A 
ATOM     29  C   UNL     1      -0.701   4.432  24.601  0.00  0.00    +0.036 A 
ATOM     30  S   UNL     1      -1.167   3.798  24.356  0.00  0.00    -0.082 S 
ENDBRANCH  24  26
BRANCH  18  16
ATOM     15  N   UNL     1      -2.744   0.674  24.294  0.00  0.00    -0.196 NA
ATOM     16  C   UNL     1      -2.135   0.953  24.775  0.00  0.00    +0.262 C 
ATOM     17  O   UNL     1      -2.282   1.127  25.568  0.00  0.00    -0.271 OA
BRANCH  15   4
ATOM      4  C   UNL     1      -3.500   0.567  24.606  0.00  0.00    +0.179 C 
BRANCH   4   2
ATOM      1  N   UNL     1      -4.533   1.376  25.173  0.00  0.00    -0.086 NA
ATOM      2  C   UNL     1      -4.066   1.163  24.528  0.00  0.00    +0.281 C 
ATOM      3  O   UNL     1      -4.163   1.545  23.803  0.00  0.00    -0.270 OA
ENDBRANCH   4   2
BRANCH   4   5
ATOM      5  C   UNL     1      -3.691  -0.135  24.996  0.00  0.00    +0.059 C 
BRANCH   5   6
ATOM      6  C   UNL     1      -3.861  -0.815  24.562  0.00  0.00    +0.001 A 
ATOM      7  C   UNL     1      -4.232  -0.840  23.825  0.00  0.00    +0.095 A 
ATOM      8  N   UNL     1      -4.291  -1.630  23.596  0.00  0.00    -0.244 NA
ATOM      9  C   UNL     1      -3.958  -2.093  24.190  0.00  0.00    +0.081 A 
ATOM     10  C   UNL     1      -3.692  -1.590  24.787  0.00  0.00    +0.015 A 
ATOM     11  C   UNL     1      -3.330  -1.903  25.460  0.00  0.00    +0.001 A 
ATOM     12  C   UNL     1      -3.234  -2.718  25.535  0.00  0.00    +0.000 A 
ATOM     13  C   UNL     1      -3.499  -3.221  24.938  0.00  0.00    +0.002 A 
ATOM     14  C   UNL     1      -3.861  -2.910  24.266  0.00  0.00    +0.019 A 
ENDBRANCH   5   6
ENDBRANCH   4   5
ENDBRANCH  15   4
ENDBRANCH  18  16
TORSDOF 7
ENDMDL
MODEL 3
REMARK VINA RESULT:     -10.3      1.311      2.075
REMARK  Name = 
REMARK  7 active torsions:
REMARK  status: ('A' for Active; 'I' for Inactive)
REMARK    1  A    between atoms: C_2  and  C_4
REMARK    2  A    between atoms: C_4  and  C_5
REMARK    3  A    between atoms: C_4  and  N_15
REMARK    4  A    between atoms: C_5  and  C_6
REMARK    5  A    between atoms: C_16  and  C_18
REMARK    6  A    between atoms: C_24  and  C_26
REMARK    7  A    between atoms: C_31  and  C_33
REMARK                            x       y       z     vdW  Elec       q    Type
REMARK                         _______ _______ _______ _____ _____    ______ ____
ROOT
ATOM     18  C   UNL     1      -2.778   0.789  23.845  0.00  0.00    +0.174 C 
ATOM     19  C   UNL     1      -3.387   0.282  24.077  0.00  0.00    +0.123 C 
ATOM     20  N   UNL     1      -3.214  -0.489  24.315  0.00  0.00    -0.272 N 
ATOM     21  C   UNL     1      -2.433  -0.754  24.321  0.00  0.00    +0.115 C 
ATOM     22  C   UNL     1      -1.824  -0.248  24.089  0.00  0.00    +0.116 C 
ATOM     23  N   UNL     1      -1.996   0.523  23.851  0.00  0.00    -0.266 N 
ATOM     24  C   UNL     1      -1.387   1.029  23.620  0.00  0.00    +0.255 C 
ATOM     25  O   UNL     1      -1.560   1.801  23.382  0.00  0.00    -0.269 OA
ATOM     31  C   UNL     1      -3.824  -0.994  24.546  0.00  0.00    +0.249 C 
ATOM     32  O   UNL     1      -4.605  -0.729  24.540  0.00  0.00    -0.270 OA
ENDROOT
BRANCH  31  33
ATOM     33  C   UNL     1      -3.651  -1.766  24.784  0.00  0.00    +0.056 A 
ATOM     34  C   UNL     1      -3.404  -1.913  25.557  0.00  0.00    +0.005 A 
ATOM     35  C   UNL     1      -3.231  -2.684  25.795  0.00  0.00    +0.002 A 
ATOM     36  C   UNL     1      -3.307  -3.307  25.260  0.00  0.00    +0.030 A 
ATOM     37  C   UNL     1      -3.555  -3.159  24.487  0.00  0.00    +0.140 A 
ATOM     38  F   UNL     1      -3.630  -3.784  23.952  0.00  0.00    -0.204 F 
ATOM     39  C   UNL     1      -3.727  -2.389  24.249  0.00  0.00    +0.034 A 
ENDBRANCH  31  33
BRANCH  24  26
ATOM     26  C   UNL     1      -0.606   0.764  23.626  0.00  0.00    +0.083 A 
ATOM     27  C   UNL     1      -0.266   0.245  23.082  0.00  0.00    +0.012 A 
ATOM     28  C   UNL     1       0.523   0.131  23.297  0.00  0.00    +0.008 A 
ATOM     29  C   UNL     1       0.670   0.582  23.973  0.00  0.00    +0.036 A 
ATOM     30  S   UNL     1      -0.028   0.972  24.176  0.00  0.00    -0.082 S 
ENDBRANCH  24  26
BRANCH  18  16
ATOM     15  N   UNL     1      -3.306   2.085  24.135  0.00  0.00    -0.196 NA
ATOM     16  C   UNL     1      -2.950   1.559  23.607  0.00  0.00    +0.262 C 
ATOM     17  O   UNL     1      -2.765   1.805  22.842  0.00  0.00    -0.271 OA
BRANCH  15   4
ATOM      4  C   UNL     1      -3.478   2.855  23.897  0.00  0.00    +0.179 C 
BRANCH   4   2
ATOM      1  N   UNL     1      -4.896   2.817  24.063  0.00  0.00    -0.086 NA
ATOM      2  C   UNL     1      -4.235   3.044  23.628  0.00  0.00    +0.281 C 
ATOM      3  O   UNL     1      -4.328   3.461  22.922  0.00  0.00    -0.270 OA
ENDBRANCH   4   2
BRANCH   4   5
ATOM      5  C   UNL     1      -2.893   3.437  23.928  0.00  0.00    +0.059 C 
BRANCH   5   6
ATOM      6  C   UNL     1      -2.747   3.838  24.633  0.00  0.00    +0.001 A 
ATOM      7  C   UNL     1      -3.206   3.799  25.318  0.00  0.00    +0.095 A 
ATOM      8  N   UNL     1      -2.859   4.285  25.886  0.00  0.00    -0.244 NA
ATOM      9  C   UNL     1      -2.186   4.626  25.553  0.00  0.00    +0.081 A 
ATOM     10  C   UNL     1      -2.117   4.349  24.779  0.00  0.00    +0.015 A 
ATOM     11  C   UNL     1      -1.488   4.600  24.306  0.00  0.00    +0.001 A 
ATOM     12  C   UNL     1      -0.929   5.126  24.607  0.00  0.00    +0.000 A 
ATOM     13  C   UNL     1      -0.999   5.402  25.382  0.00  0.00    +0.002 A 
ATOM     14  C   UNL     1      -1.627   5.152  25.855  0.00  0.00    +0.019 A 
ENDBRANCH   5   6
ENDBRANCH   4   5
ENDBRANCH  15   4
ENDBRANCH  18  16
TORSDOF 7
ENDMDL
MODEL 4
REMARK VINA RESULT:     -10.2      2.138      3.868
REMARK  Name = 
REMARK  7 active torsions:
REMARK  status: ('A' for Active; 'I' for Inactive)
REMARK    1  A    between atoms: C_2  and  C_4
REMARK    2  A    between atoms: C_4  and  C_5
REMARK    3  A    between atoms: C_4  and  N_15
REMARK    4  A    between atoms: C_5  and  C_6
REMARK    5  A    between atoms: C_16  and  C_18
REMARK    6  A    between atoms: C_24  and  C_26
REMARK    7  A    between atoms: C_31  and  C_33
REMARK                            x       y       z     vdW  Elec       q    Type
REMARK                         _______ _______ _______ _____ _____    ______ ____
ROOT
ATOM     18  C   UNL     1      -2.938   0.459  24.552  0.00  0.00    +0.174 C 
ATOM     19  C   UNL     1      -3.306   1.166  24.764  0.00  0.00    +0.123 C 
ATOM     20  N   UNL     1      -4.115   1.178  24.927  0.00  0.00    -0.272 N 
ATOM     21  C   UNL     1      -4.556   0.483  24.878  0.00  0.00    +0.115 C 
ATOM     22  C   UNL     1      -4.189  -0.224  24.665  0.00  0.00    +0.116 C 
ATOM     23  N   UNL     1      -3.381  -0.237  24.502  0.00  0.00    -0.266 N 
ATOM     24  C   UNL     1      -3.013  -0.944  24.290  0.00  0.00    +0.255 C 
ATOM     25  O   UNL     1      -2.204  -0.956  24.127  0.00  0.00    -0.269 OA
ATOM     31  C   UNL     1      -4.482   1.886  25.140  0.00  0.00    +0.249 C 
ATOM     32  O   UNL     1      -4.041   2.581  25.189  0.00  0.00    -0.270 OA
ENDROOT
BRANCH  31  33
ATOM     33  C   UNL     1      -5.291   1.898  25.303  0.00  0.00    +0.056 A 
ATOM     34  C   UNL     1      -5.835   1.957  24.686  0.00  0.00    +0.005 A 
ATOM     35  C   UNL     1      -6.644   1.970  24.849  0.00  0.00    +0.002 A 
ATOM     36  C   UNL     1      -6.908   1.922  25.629  0.00  0.00    +0.030 A 
ATOM     37  C   UNL     1      -6.364   1.863  26.246  0.00  0.00    +0.140 A 
ATOM     38  F   UNL     1      -6.629   1.815  27.026  0.00  0.00    -0.204 F 
ATOM     39  C   UNL     1      -5.555   1.851  26.083  0.00  0.00    +0.034 A 
ENDBRANCH  31  33
BRANCH  24  26
ATOM     26  C   UNL     1      -3.454  -1.640  24.240  0.00  0.00    +0.083 A 
ATOM     27  C   UNL     1      -4.036  -1.805  23.679  0.00  0.00    +0.012 A 
ATOM     28  C   UNL     1      -4.333  -2.560  23.835  0.00  0.00    +0.008 A 
ATOM     29  C   UNL     1      -3.933  -2.859  24.493  0.00  0.00    +0.036 A 
ATOM     30  S   UNL     1      -3.391  -2.290  24.743  0.00  0.00    -0.082 S 
ENDBRANCH  24  26
BRANCH  18  16
ATOM     15  N   UNL     1      -1.590   0.693  24.961  0.00  0.00    -0.196 NA
ATOM     16  C   UNL     1      -2.130   0.446  24.389  0.00  0.00    +0.262 C 
ATOM     17  O   UNL     1      -1.862   0.187  23.653  0.00  0.00    -0.271 OA
BRANCH  15   4
ATOM      4  C   UNL     1      -0.782   0.681  24.798  0.00  0.00    +0.179 C 
BRANCH   4   2
ATOM      1  N   UNL     1       0.144  -0.292  24.309  0.00  0.00    -0.086 NA
ATOM      2  C   UNL     1      -0.350  -0.015  24.907  0.00  0.00    +0.281 C 
ATOM      3  O   UNL     1      -0.414  -0.432  25.617  0.00  0.00    -0.270 OA
ENDBRANCH   4   2
BRANCH   4   5
ATOM      5  C   UNL     1      -0.404   1.362  24.526  0.00  0.00    +0.059 C 
BRANCH   5   6
ATOM      6  C   UNL     1      -0.316   2.012  25.026  0.00  0.00    +0.001 A 
ATOM      7  C   UNL     1      -0.126   1.984  25.829  0.00  0.00    +0.095 A 
ATOM      8  N   UNL     1      -0.094   2.759  26.110  0.00  0.00    -0.244 NA
ATOM      9  C   UNL     1      -0.263   3.265  25.482  0.00  0.00    +0.081 A 
ATOM     10  C   UNL     1      -0.400   2.804  24.812  0.00  0.00    +0.015 A 
ATOM     11  C   UNL     1      -0.584   3.165  24.093  0.00  0.00    +0.001 A 
ATOM     12  C   UNL     1      -0.631   3.987  24.044  0.00  0.00    +0.000 A 
ATOM     13  C   UNL     1      -0.494   4.448  24.714  0.00  0.00    +0.002 A 
ATOM     14  C   UNL     1      -0.310   4.088  25.433  0.00  0.00    +0.019 A 
ENDBRANCH   5   6
ENDBRANCH   4   5
ENDBRANCH  15   4
ENDBRANCH  18  16
TORSDOF 7
ENDMDL
MODEL 5
REMARK VINA RESULT:      -9.9      1.874      3.865
REMARK  Name = 
REMARK  7 active torsions:
REMARK  status: ('A' for Active; 'I' for Inactive)
REMARK    1  A    between atoms: C_2  and  C_4
REMARK    2  A    between atoms: C_4  and  C_5
REMARK    3  A    between atoms: C_4  and  N_15
REMARK    4  A    between atoms: C_5  and  C_6
REMARK    5  A    between atoms: C_16  and  C_18
REMARK    6  A    between atoms: C_24  and  C_26
REMARK    7  A    between atoms: C_31  and  C_33
REMARK                            x       y       z     vdW  Elec       q    Type
REMARK                         _______ _______ _______ _____ _____    ______ ____
ROOT
ATOM     18  C   UNL     1      -3.403   1.509  24.843  0.00  0.00    +0.174 C 
ATOM     19  C   UNL     1      -2.957   0.826  24.719  0.00  0.00    +0.123 C 
ATOM     20  N   UNL     1      -3.325   0.087  24.724  0.00  0.00    -0.272 N 
ATOM     21  C   UNL     1      -4.138   0.031  24.852  0.00  0.00    +0.115 C 
ATOM     22  C   UNL     1      -4.583   0.715  24.976  0.00  0.00    +0.116 C 
ATOM     23  N   UNL     1      -4.216   1.453  24.971  0.00  0.00    -0.266 N 
ATOM     24  C   UNL     1      -4.662   2.137  25.095  0.00  0.00    +0.255 C 
ATOM     25  O   UNL     1      -4.294   2.876  25.090  0.00  0.00    -0.269 OA
ATOM     31  C   UNL     1      -2.879  -0.596  24.600  0.00  0.00    +0.249 C 
ATOM     32  O   UNL     1      -2.066  -0.541  24.472  0.00  0.00    -0.270 OA
ENDROOT
BRANCH  31  33
ATOM     33  C   UNL     1      -3.247  -1.335  24.605  0.00  0.00    +0.056 A 
ATOM     34  C   UNL     1      -3.181  -1.823  25.266  0.00  0.00    +0.005 A 
ATOM     35  C   UNL     1      -3.549  -2.562  25.271  0.00  0.00    +0.002 A 
ATOM     36  C   UNL     1      -3.982  -2.812  24.615  0.00  0.00    +0.030 A 
ATOM     37  C   UNL     1      -4.046  -2.323  23.953  0.00  0.00    +0.140 A 
ATOM     38  F   UNL     1      -4.480  -2.573  23.297  0.00  0.00    -0.204 F 
ATOM     39  C   UNL     1      -3.679  -1.585  23.948  0.00  0.00    +0.034 A 
ENDBRANCH  31  33
BRANCH  24  26
ATOM     26  C   UNL     1      -5.475   2.081  25.224  0.00  0.00    +0.083 A 
ATOM     27  C   UNL     1      -6.048   1.939  24.647  0.00  0.00    +0.012 A 
ATOM     28  C   UNL     1      -6.785   1.928  25.018  0.00  0.00    +0.008 A 
ATOM     29  C   UNL     1      -6.666   2.064  25.824  0.00  0.00    +0.036 A 
ATOM     30  S   UNL     1      -5.857   2.159  25.950  0.00  0.00    -0.082 S 
ENDBRANCH  24  26
BRANCH  18  16
ATOM     15  N   UNL     1      -2.440   2.416  25.384  0.00  0.00    -0.196 NA
ATOM     16  C   UNL     1      -3.036   2.248  24.838  0.00  0.00    +0.262 C 
ATOM     17  O   UNL     1      -3.264   2.818  24.288  0.00  0.00    -0.271 OA
BRANCH  15   4
ATOM      4  C   UNL     1      -2.073   3.155  25.379  0.00  0.00    +0.179 C 
BRANCH   4   2
ATOM      1  N   UNL     1      -2.506   4.512  25.487  0.00  0.00    -0.086 NA
ATOM      2  C   UNL     1      -2.385   3.772  25.829  0.00  0.00    +0.281 C 
ATOM      3  O   UNL     1      -2.575   3.648  26.623  0.00  0.00    -0.270 OA
ENDBRANCH   4   2
BRANCH   4   5
ATOM      5  C   UNL     1      -1.395   3.276  24.925  0.00  0.00    +0.059 C 
BRANCH   5   6
ATOM      6  C   UNL     1      -0.686   2.911  25.136  0.00  0.00    +0.001 A 
ATOM      7  C   UNL     1      -0.360   2.886  25.893  0.00  0.00    +0.095 A 
ATOM      8  N   UNL     1       0.349   2.466  25.851  0.00  0.00    -0.244 NA
ATOM      9  C   UNL     1       0.460   2.231  25.069  0.00  0.00    +0.081 A 
ATOM     10  C   UNL     1      -0.180   2.506  24.627  0.00  0.00    +0.015 A 
ATOM     11  C   UNL     1      -0.217   2.351  23.817  0.00  0.00    +0.001 A 
ATOM     12  C   UNL     1       0.383   1.923  23.450  0.00  0.00    +0.000 A 
ATOM     13  C   UNL     1       1.023   1.648  23.892  0.00  0.00    +0.002 A 
ATOM     14  C   UNL     1       1.062   1.801  24.702  0.00  0.00    +0.019 A 
ENDBRANCH   5   6
ENDBRANCH   4   5
ENDBRANCH  15   4
ENDBRANCH  18  16
TORSDOF 7
ENDMDL
MODEL 6
REMARK VINA RESULT:      -9.7      2.061      4.902
REMARK  Name = 
REMARK  7 active torsions:
REMARK  status: ('A' for Active; 'I' for Inactive)
REMARK    1  A    between atoms: C_2  and  C_4
REMARK    2  A    between atoms: C_4  and  C_5
REMARK    3  A    between atoms: C_4  and  N_15
REMARK    4  A    between atoms: C_5  and  C_6
REMARK    5  A    between atoms: C_16  and  C_18
REMARK    6  A    between atoms: C_24  and  C_26
REMARK    7  A    between atoms: C_31  and  C_33
REMARK                            x       y       z     vdW  Elec       q    Type
REMARK                         _______ _______ _______ _____ _____    ______ ____
ROOT
ATOM     18  C   UNL     1      -1.949   1.055  25.060  0.00  0.00    +0.174 C 
ATOM     19  C   UNL     1      -2.693   0.698  25.040  0.00  0.00    +0.123 C 
ATOM     20  N   UNL     1      -3.375   1.163  25.044  0.00  0.00    -0.272 N 
ATOM     21  C   UNL     1      -3.313   1.986  25.069  0.00  0.00    +0.115 C 
ATOM     22  C   UNL     1      -2.570   2.343  25.089  0.00  0.00    +0.116 C 
ATOM     23  N   UNL     1      -1.888   1.878  25.085  0.00  0.00    -0.266 N 
ATOM     24  C   UNL     1      -1.145   2.236  25.105  0.00  0.00    +0.255 C 
ATOM     25  O   UNL     1      -0.463   1.771  25.100  0.00  0.00    -0.269 OA
ATOM     31  C   UNL     1      -4.118   0.805  25.024  0.00  0.00    +0.249 C 
ATOM     32  O   UNL     1      -4.179  -0.017  24.999  0.00  0.00    -0.270 OA
ENDROOT
BRANCH  31  33
ATOM     33  C   UNL     1      -4.800   1.270  25.029  0.00  0.00    +0.056 A 
ATOM     34  C   UNL     1      -5.046   1.647  24.337  0.00  0.00    +0.005 A 
ATOM     35  C   UNL     1      -5.728   2.112  24.342  0.00  0.00    +0.002 A 
ATOM     36  C   UNL     1      -6.163   2.200  25.038  0.00  0.00    +0.030 A 
ATOM     37  C   UNL     1      -5.915   1.823  25.729  0.00  0.00    +0.140 A 
ATOM     38  F   UNL     1      -6.351   1.911  26.424  0.00  0.00    -0.204 F 
ATOM     39  C   UNL     1      -5.234   1.358  25.724  0.00  0.00    +0.034 A 
ENDBRANCH  31  33
BRANCH  24  26
ATOM     26  C   UNL     1      -1.083   3.058  25.130  0.00  0.00    +0.083 A 
ATOM     27  C   UNL     1      -1.266   3.538  25.775  0.00  0.00    +0.012 A 
ATOM     28  C   UNL     1      -1.124   4.322  25.558  0.00  0.00    +0.008 A 
ATOM     29  C   UNL     1      -0.853   4.325  24.778  0.00  0.00    +0.036 A 
ATOM     30  S   UNL     1      -0.828   3.544  24.514  0.00  0.00    -0.082 S 
ENDBRANCH  24  26
BRANCH  18  16
ATOM     15  N   UNL     1      -1.121   0.079  24.425  0.00  0.00    -0.196 NA
ATOM     16  C   UNL     1      -1.268   0.591  25.055  0.00  0.00    +0.262 C 
ATOM     17  O   UNL     1      -0.733   0.639  25.681  0.00  0.00    -0.271 OA
BRANCH  15   4
ATOM      4  C   UNL     1      -0.440  -0.385  24.421  0.00  0.00    +0.179 C 
BRANCH   4   2
ATOM      1  N   UNL     1      -1.041  -1.682  24.403  0.00  0.00    -0.086 NA
ATOM      2  C   UNL     1      -0.470  -1.163  24.694  0.00  0.00    +0.281 C 
ATOM      3  O   UNL     1       0.073  -1.422  25.260  0.00  0.00    -0.270 OA
ENDBRANCH   4   2
BRANCH   4   5
ATOM      5  C   UNL     1       0.271  -0.072  24.143  0.00  0.00    +0.059 C 
BRANCH   5   6
ATOM      6  C   UNL     1       0.496  -0.192  23.359  0.00  0.00    +0.001 A 
ATOM      7  C   UNL     1       0.012  -0.472  22.752  0.00  0.00    +0.095 A 
ATOM      8  N   UNL     1       0.462  -0.505  22.062  0.00  0.00    -0.244 NA
ATOM      9  C   UNL     1       1.223  -0.245  22.241  0.00  0.00    +0.081 A 
ATOM     10  C   UNL     1       1.245  -0.051  23.043  0.00  0.00    +0.015 A 
ATOM     11  C   UNL     1       1.944   0.228  23.381  0.00  0.00    +0.001 A 
ATOM     12  C   UNL     1       2.621   0.313  22.918  0.00  0.00    +0.000 A 
ATOM     13  C   UNL     1       2.599   0.119  22.116  0.00  0.00    +0.002 A 
ATOM     14  C   UNL     1       1.901  -0.160  21.777  0.00  0.00    +0.019 A 
ENDBRANCH   5   6
ENDBRANCH   4   5
ENDBRANCH  15   4
ENDBRANCH  18  16
TORSDOF 7
ENDMDL
MODEL 7
REMARK VINA RESULT:      -9.6      2.071      3.774
REMARK  Name = 
REMARK  7 active torsions:
REMARK  status: ('A' for Active; 'I' for Inactive)
REMARK    1  A    between atoms: C_2  and  C_4
REMARK    2  A    between atoms: C_4  and  C_5
REMARK    3  A    between atoms: C_4  and  N_15
REMARK    4  A    between atoms: C_5  and  C_6
REMARK    5  A    between atoms: C_16  and  C_18
REMARK    6  A    between atoms: C_24  and  C_26
REMARK    7  A    between atoms: C_31  and  C_33
REMARK                            x       y       z     vdW  Elec       q    Type
REMARK                         _______ _______ _______ _____ _____    ______ ____
ROOT
ATOM     18  C   UNL     1      -0.501   0.880  24.705  0.00  0.00    +0.174 C 
ATOM     19  C   UNL     1       0.142   1.219  24.314  0.00  0.00    +0.123 C 
ATOM     20  N   UNL     1       0.635   0.751  23.846  0.00  0.00    -0.272 N 
ATOM     21  C   UNL     1       0.484  -0.057  23.769  0.00  0.00    +0.115 C 
ATOM     22  C   UNL     1      -0.159  -0.396  24.160  0.00  0.00    +0.116 C 
ATOM     23  N   UNL     1      -0.651   0.072  24.627  0.00  0.00    -0.266 N 
ATOM     24  C   UNL     1      -1.294  -0.267  25.018  0.00  0.00    +0.255 C 
ATOM     25  O   UNL     1      -1.786   0.202  25.486  0.00  0.00    -0.269 OA
ATOM     31  C   UNL     1       1.277   1.090  23.456  0.00  0.00    +0.249 C 
ATOM     32  O   UNL     1       1.427   1.898  23.533  0.00  0.00    -0.270 OA
ENDROOT
BRANCH  31  33
ATOM     33  C   UNL     1       1.769   0.622  22.988  0.00  0.00    +0.056 A 
ATOM     34  C   UNL     1       1.458   0.215  22.341  0.00  0.00    +0.005 A 
ATOM     35  C   UNL     1       1.950  -0.254  21.873  0.00  0.00    +0.002 A 
ATOM     36  C   UNL     1       2.753  -0.315  22.051  0.00  0.00    +0.030 A 
ATOM     37  C   UNL     1       3.064   0.092  22.698  0.00  0.00    +0.140 A 
ATOM     38  F   UNL     1       3.868   0.031  22.877  0.00  0.00    -0.204 F 
ATOM     39  C   UNL     1       2.572   0.560  23.166  0.00  0.00    +0.034 A 
ENDBRANCH  31  33
BRANCH  24  26
ATOM     26  C   UNL     1      -1.444  -1.074  24.941  0.00  0.00    +0.083 A 
ATOM     27  C   UNL     1      -1.010  -1.684  25.289  0.00  0.00    +0.012 A 
ATOM     28  C   UNL     1      -1.353  -2.401  25.065  0.00  0.00    +0.008 A 
ATOM     29  C   UNL     1      -1.998  -2.233  24.579  0.00  0.00    +0.036 A 
ATOM     30  S   UNL     1      -2.054  -1.414  24.502  0.00  0.00    -0.082 S 
ENDBRANCH  24  26
BRANCH  18  16
ATOM     15  N   UNL     1      -1.389   1.991  24.841  0.00  0.00    -0.196 NA
ATOM     16  C   UNL     1      -0.993   1.348  25.173  0.00  0.00    +0.262 C 
ATOM     17  O   UNL     1      -1.089   1.173  25.974  0.00  0.00    -0.271 OA
BRANCH  15   4
ATOM      4  C   UNL     1      -1.881   2.459  25.309  0.00  0.00    +0.179 C 
BRANCH   4   2
ATOM      1  N   UNL     1      -1.152   3.684  25.214  0.00  0.00    -0.086 NA
ATOM      2  C   UNL     1      -1.585   3.144  25.661  0.00  0.00    +0.281 C 
ATOM      3  O   UNL     1      -1.724   3.288  26.462  0.00  0.00    -0.270 OA
ENDBRANCH   4   2
BRANCH   4   5
ATOM      5  C   UNL     1      -2.669   2.242  25.425  0.00  0.00    +0.059 C 
BRANCH   5   6
ATOM      6  C   UNL     1      -3.249   2.495  24.897  0.00  0.00    +0.001 A 
ATOM      7  C   UNL     1      -3.128   2.976  24.237  0.00  0.00    +0.095 A 
ATOM      8  N   UNL     1      -3.856   3.090  23.868  0.00  0.00    -0.244 NA
ATOM      9  C   UNL     1      -4.428   2.681  24.299  0.00  0.00    +0.081 A 
ATOM     10  C   UNL     1      -4.052   2.313  24.935  0.00  0.00    +0.015 A 
ATOM     11  C   UNL     1      -4.492   1.860  25.466  0.00  0.00    +0.001 A 
ATOM     12  C   UNL     1      -5.305   1.774  25.362  0.00  0.00    +0.000 A 
ATOM     13  C   UNL     1      -5.680   2.142  24.726  0.00  0.00    +0.002 A 
ATOM     14  C   UNL     1      -5.242   2.595  24.194  0.00  0.00    +0.019 A 
ENDBRANCH   5   6
ENDBRANCH   4   5
ENDBRANCH  15   4
ENDBRANCH  18  16
TORSDOF 7
ENDMDL
MODEL 8
REMARK VINA RESULT:      -9.5      1.926      4.692
REMARK  Name = 
REMARK  7 active torsions:
REMARK  status: ('A' for Active; 'I' for Inactive)
REMARK    1  A    between atoms: C_2  and  C_4
REMARK    2  A    between atoms: C_4  and  C_5
REMARK    3  A    between atoms: C_4  and  N_15
REMARK    4  A    between atoms: C_5  and  C_6
REMARK    5  A    between atoms: C_16  and  C_18
REMARK    6  A    between atoms: C_24  and  C_26
REMARK    7  A    between atoms: C_31  and  C_33
REMARK                            x       y       z     vdW  Elec       q    Type
REMARK                         _______ _______ _______ _____ _____    ______ ____
ROOT
ATOM     18  C   UNL     1      -2.323   1.161  24.736  0.00  0.00    +0.174 C 
ATOM     19  C   UNL     1      -3.145   1.118  24.791  0.00  0.00    +0.123 C 
ATOM     20  N   UNL     1      -3.585   1.798  24.951  0.00  0.00    -0.272 N 
ATOM     21  C   UNL     1      -3.202   2.521  25.056  0.00  0.00    +0.115 C 
ATOM     22  C   UNL     1      -2.380   2.565  25.001  0.00  0.00    +0.116 C 
ATOM     23  N   UNL     1      -1.941   1.886  24.841  0.00  0.00    -0.266 N 
ATOM     24  C   UNL     1      -1.119   1.929  24.787  0.00  0.00    +0.255 C 
ATOM     25  O   UNL     1      -0.679   1.249  24.627  0.00  0.00    -0.269 OA
ATOM     31  C   UNL     1      -4.407   1.754  25.005  0.00  0.00    +0.249 C 
ATOM     32  O   UNL     1      -4.789   1.031  24.900  0.00  0.00    -0.270 OA
ENDROOT
BRANCH  31  33
ATOM     33  C   UNL     1      -4.847   2.434  25.165  0.00  0.00    +0.056 A 
ATOM     34  C   UNL     1      -4.829   3.069  24.639  0.00  0.00    +0.005 A 
ATOM     35  C   UNL     1      -5.269   3.749  24.799  0.00  0.00    +0.002 A 
ATOM     36  C   UNL     1      -5.725   3.793  25.484  0.00  0.00    +0.030 A 
ATOM     37  C   UNL     1      -5.742   3.158  26.010  0.00  0.00    +0.140 A 
ATOM     38  F   UNL     1      -6.199   3.203  26.696  0.00  0.00    -0.204 F 
ATOM     39  C   UNL     1      -5.303   2.478  25.851  0.00  0.00    +0.034 A 
ENDBRANCH  31  33
BRANCH  24  26
ATOM     26  C   UNL     1      -0.736   2.652  24.892  0.00  0.00    +0.083 A 
ATOM     27  C   UNL     1      -0.491   2.970  25.612  0.00  0.00    +0.012 A 
ATOM     28  C   UNL     1      -0.134   3.700  25.461  0.00  0.00    +0.008 A 
ATOM     29  C   UNL     1      -0.161   3.831  24.646  0.00  0.00    +0.036 A 
ATOM     30  S   UNL     1      -0.532   3.184  24.295  0.00  0.00    -0.082 S 
ENDBRANCH  24  26
BRANCH  18  16
ATOM     15  N   UNL     1      -1.968  -0.186  25.053  0.00  0.00    -0.196 NA
ATOM     16  C   UNL     1      -1.884   0.482  24.577  0.00  0.00    +0.262 C 
ATOM     17  O   UNL     1      -1.360   0.471  23.940  0.00  0.00    -0.271 OA
BRANCH  15   4
ATOM      4  C   UNL     1      -1.529  -0.865  24.894  0.00  0.00    +0.179 C 
BRANCH   4   2
ATOM      1  N   UNL     1      -0.138  -1.184  24.810  0.00  0.00    -0.086 NA
ATOM      2  C   UNL     1      -0.797  -0.978  25.259  0.00  0.00    +0.281 C 
ATOM      3  O   UNL     1      -0.727  -0.883  26.077  0.00  0.00    -0.270 OA
ENDBRANCH   4   2
BRANCH   4   5
ATOM      5  C   UNL     1      -1.820  -1.431  24.369  0.00  0.00    +0.059 C 
BRANCH   5   6
ATOM      6  C   UNL     1      -2.360  -1.997  24.630  0.00  0.00    +0.001 A 
ATOM      7  C   UNL     1      -2.283  -2.467  25.304  0.00  0.00    +0.095 A 
ATOM      8  N   UNL     1      -2.948  -2.952  25.353  0.00  0.00    -0.244 NA
ATOM      9  C   UNL     1      -3.435  -2.783  24.711  0.00  0.00    +0.081 A 
ATOM     10  C   UNL     1      -3.072  -2.192  24.264  0.00  0.00    +0.015 A 
ATOM     11  C   UNL     1      -3.438  -1.909  23.580  0.00  0.00    +0.001 A 
ATOM     12  C   UNL     1      -4.166  -2.216  23.344  0.00  0.00    +0.000 A 
ATOM     13  C   UNL     1      -4.529  -2.807  23.791  0.00  0.00    +0.002 A 
ATOM     14  C   UNL     1      -4.164  -3.090  24.474  0.00  0.00    +0.019 A 
ENDBRANCH   5   6
ENDBRANCH   4   5
ENDBRANCH  15   4
ENDBRANCH  18  16
TORSDOF 7
ENDMDL
MODEL 9
REMARK VINA RESULT:      -9.3      1.692      3.704
REMARK  Name = 
REMARK  7 active torsions:
REMARK  status: ('A' for Active; 'I' for Inactive)
REMARK    1  A    between atoms: C_2  and  C_4
REMARK    2  A    between atoms: C_4  and  C_5
REMARK    3  A    between atoms: C_4  and  N_15
REMARK    4  A    between atoms: C_5  and  C_6
REMARK    5  A    between atoms: C_16  and  C_18
REMARK    6  A    between atoms: C_24  and  C_26
REMARK    7  A    between atoms: C_31  and  C_33
REMARK                            x       y       z     vdW  Elec       q    Type
REMARK                         _______ _______ _______ _____ _____    ______ ____
ROOT
ATOM     18  C   UNL     1      -2.730   0.414  24.687  0.00  0.00    +0.174 C 
ATOM     19  C   UNL     1      -2.024   0.787  24.477  0.00  0.00    +0.123 C 
ATOM     20  N   UNL     1      -1.395   0.342  24.181  0.00  0.00    -0.272 N 
ATOM     21  C   UNL     1      -1.470  -0.475  24.096  0.00  0.00    +0.115 C 
ATOM     22  C   UNL     1      -2.176  -0.847  24.306  0.00  0.00    +0.116 C 
ATOM     23  N   UNL     1      -2.805  -0.404  24.601  0.00  0.00    -0.266 N 
ATOM     24  C   UNL     1      -3.510  -0.777  24.812  0.00  0.00    +0.255 C 
ATOM     25  O   UNL     1      -4.140  -0.332  25.107  0.00  0.00    -0.269 OA
ATOM     31  C   UNL     1      -0.690   0.716  23.971  0.00  0.00    +0.249 C 
ATOM     32  O   UNL     1      -0.614   1.533  24.057  0.00  0.00    -0.270 OA
ENDROOT
BRANCH  31  33
ATOM     33  C   UNL     1      -0.060   0.272  23.675  0.00  0.00    +0.056 A 
ATOM     34  C   UNL     1       0.397  -0.187  24.187  0.00  0.00    +0.005 A 
ATOM     35  C   UNL     1       1.026  -0.631  23.891  0.00  0.00    +0.002 A 
ATOM     36  C   UNL     1       1.199  -0.616  23.084  0.00  0.00    +0.030 A 
ATOM     37  C   UNL     1       0.741  -0.157  22.574  0.00  0.00    +0.140 A 
ATOM     38  F   UNL     1       0.914  -0.143  21.766  0.00  0.00    -0.204 F 
ATOM     39  C   UNL     1       0.112   0.287  22.869  0.00  0.00    +0.034 A 
ENDBRANCH  31  33
BRANCH  24  26
ATOM     26  C   UNL     1      -3.586  -1.594  24.726  0.00  0.00    +0.083 A 
ATOM     27  C   UNL     1      -3.319  -2.164  25.260  0.00  0.00    +0.012 A 
ATOM     28  C   UNL     1      -3.510  -2.907  24.955  0.00  0.00    +0.008 A 
ATOM     29  C   UNL     1      -3.896  -2.795  24.234  0.00  0.00    +0.036 A 
ATOM     30  S   UNL     1      -3.942  -1.984  24.093  0.00  0.00    -0.082 S 
ENDBRANCH  24  26
BRANCH  18  16
ATOM     15  N   UNL     1      -3.625   1.521  24.572  0.00  0.00    -0.196 NA
ATOM     16  C   UNL     1      -3.359   0.857  24.983  0.00  0.00    +0.262 C 
ATOM     17  O   UNL     1      -3.722   0.637  25.690  0.00  0.00    -0.271 OA
BRANCH  15   4
ATOM      4  C   UNL     1      -4.254   1.965  24.867  0.00  0.00    +0.179 C 
BRANCH   4   2
ATOM      1  N   UNL     1      -5.590   1.685  25.292  0.00  0.00    -0.086 NA
ATOM      2  C   UNL     1      -5.031   1.747  24.690  0.00  0.00    +0.281 C 
ATOM      3  O   UNL     1      -5.246   1.591  23.909  0.00  0.00    -0.270 OA
ENDBRANCH   4   2
BRANCH   4   5
ATOM      5  C   UNL     1      -4.108   2.625  25.339  0.00  0.00    +0.059 C 
BRANCH   5   6
ATOM      6  C   UNL     1      -3.796   3.311  25.004  0.00  0.00    +0.001 A 
ATOM      7  C   UNL     1      -4.023   3.647  24.286  0.00  0.00    +0.095 A 
ATOM      8  N   UNL     1      -3.568   4.325  24.166  0.00  0.00    -0.244 NA
ATOM      9  C   UNL     1      -3.060   4.408  24.810  0.00  0.00    +0.081 A 
ATOM     10  C   UNL     1      -3.201   3.781  25.328  0.00  0.00    +0.015 A 
ATOM     11  C   UNL     1      -2.768   3.720  26.028  0.00  0.00    +0.001 A 
ATOM     12  C   UNL     1      -2.195   4.284  26.210  0.00  0.00    +0.000 A 
ATOM     13  C   UNL     1      -2.055   4.911  25.692  0.00  0.00    +0.002 A 
ATOM     14  C   UNL     1      -2.487   4.973  24.992  0.00  0.00    +0.019 A 
ENDBRANCH   5   6
ENDBRANCH   4   5
ENDBRANCH  15   4
ENDBRANCH  18  16
TORSDOF 7
ENDMDL
MODEL 10
REMARK VINA RESULT:      -9.3      2.123      4.135
REMARK  Name = 
REMARK  7 active torsions:
REMARK  status: ('A' for Active; 'I' for Inactive)
REMARK    1  A    between atoms: C_2  and  C_4
REMARK    2  A    between atoms: C_4  and  C_5
REMARK    3  A    between atoms: C_4  and  N_15
REMARK    4  A    between atoms: C_5  and  C_6
REMARK    5  A    between atoms: C_16  and  C_18
REMARK    6  A    between atoms: C_24  and  C_26
REMARK    7  A    between atoms: C_31  and  C_33
REMARK                            x       y       z     vdW  Elec       q    Type
REMARK                         _______ _______ _______ _____ _____    ______ ____
ROOT
ATOM     18  C   UNL     1      -0.997   0.443  24.803  0.00  0.00    +0.174 C 
ATOM     19  C   UNL     1      -0.586  -0.136  24.382  0.00  0.00    +0.123 C 
ATOM     20  N   UNL     1       0.061   0.075  23.915  0.00  0.00    -0.272 N 
ATOM     21  C   UNL     1       0.296   0.865  23.867  0.00  0.00    +0.115 C 
ATOM     22  C   UNL     1      -0.116   1.443  24.288  0.00  0.00    +0.116 C 
ATOM     23  N   UNL     1      -0.762   1.233  24.755  0.00  0.00    -0.266 N 
ATOM     24  C   UNL     1      -1.174   1.811  25.175  0.00  0.00    +0.255 C 
ATOM     25  O   UNL     1      -1.820   1.600  25.643  0.00  0.00    -0.269 OA
ATOM     31  C   UNL     1       0.472  -0.504  23.495  0.00  0.00    +0.249 C 
ATOM     32  O   UNL     1       0.237  -1.293  23.542  0.00  0.00    -0.270 OA
ENDROOT
BRANCH  31  33
ATOM     33  C   UNL     1       1.119  -0.293  23.027  0.00  0.00    +0.056 A 
ATOM     34  C   UNL     1       1.801   0.008  23.380  0.00  0.00    +0.005 A 
ATOM     35  C   UNL     1       2.448   0.219  22.912  0.00  0.00    +0.002 A 
ATOM     36  C   UNL     1       2.411   0.129  22.093  0.00  0.00    +0.030 A 
ATOM     37  C   UNL     1       1.728  -0.172  21.741  0.00  0.00    +0.140 A 
ATOM     38  F   UNL     1       1.692  -0.262  20.921  0.00  0.00    -0.204 F 
ATOM     39  C   UNL     1       1.082  -0.383  22.208  0.00  0.00    +0.034 A 
ENDBRANCH  31  33
BRANCH  24  26
ATOM     26  C   UNL     1      -0.939   2.601  25.128  0.00  0.00    +0.083 A 
ATOM     27  C   UNL     1      -0.366   2.965  25.597  0.00  0.00    +0.012 A 
ATOM     28  C   UNL     1      -0.308   3.754  25.362  0.00  0.00    +0.008 A 
ATOM     29  C   UNL     1      -0.847   3.877  24.748  0.00  0.00    +0.036 A 
ATOM     30  S   UNL     1      -1.236   3.164  24.604  0.00  0.00    -0.082 S 
ENDBRANCH  24  26
BRANCH  18  16
ATOM     15  N   UNL     1      -2.320  -0.086  24.921  0.00  0.00    -0.196 NA
ATOM     16  C   UNL     1      -1.643   0.233  25.270  0.00  0.00    +0.262 C 
ATOM     17  O   UNL     1      -1.613   0.340  26.087  0.00  0.00    -0.271 OA
BRANCH  15   4
ATOM      4  C   UNL     1      -2.966  -0.296  25.388  0.00  0.00    +0.179 C 
BRANCH   4   2
ATOM      1  N   UNL     1      -2.948  -1.702  25.136  0.00  0.00    -0.086 NA
ATOM      2  C   UNL     1      -3.043  -1.072  25.658  0.00  0.00    +0.281 C 
ATOM      3  O   UNL     1      -3.216  -1.216  26.452  0.00  0.00    -0.270 OA
ENDBRANCH   4   2
BRANCH   4   5
ATOM      5  C   UNL     1      -3.534   0.269  25.586  0.00  0.00    +0.059 C 
BRANCH   5   6
ATOM      6  C   UNL     1      -4.182   0.393  25.091  0.00  0.00    +0.001 A 
ATOM      7  C   UNL     1      -4.385  -0.063  24.434  0.00  0.00    +0.095 A 
ATOM      8  N   UNL     1      -5.069   0.257  24.103  0.00  0.00    -0.244 NA
ATOM      9  C   UNL     1      -5.289   0.911  24.555  0.00  0.00    +0.081 A 
ATOM     10  C   UNL     1      -4.740   0.995  25.165  0.00  0.00    +0.015 A 
ATOM     11  C   UNL     1      -4.821   1.610  25.710  0.00  0.00    +0.001 A 
ATOM     12  C   UNL     1      -5.449   2.139  25.645  0.00  0.00    +0.000 A 
ATOM     13  C   UNL     1      -5.997   2.056  25.035  0.00  0.00    +0.002 A 
ATOM     14  C   UNL     1      -5.918   1.442  24.489  0.00  0.00    +0.019 A 
ENDBRANCH   5   6
ENDBRANCH   4   5
ENDBRANCH  15   4
ENDBRANCH  18  16
TORSDOF 7
ENDMDL
