REMARK  Name = 
REMARK  7 active torsions:
REMARK  status: ('A' for Active; 'I' for Inactive)
REMARK    1  A    between atoms: C_2  and  C_3
REMARK    2  A    between atoms: C_3  and  C_4
REMARK    3  A    between atoms: C_4  and  C_5
REMARK    4  A    between atoms: C_7  and  C_8
REMARK    5  A    between atoms: C_8  and  C_9
REMARK    6  A    between atoms: C_11  and  N_12
REMARK    7  A    between atoms: N_12  and  S_13
REMARK                            x       y       z     vdW  Elec       q    Type
REMARK                         _______ _______ _______ _____ _____    ______ ____
ROOT
ATOM      9  C   UNL     1       0.063   2.711   0.000  0.00  0.00    +0.009 C 
ATOM     10  C   UNL     1      -0.520   2.127   0.000  0.00  0.00    +0.020 C 
ATOM     11  C   UNL     1      -1.104   2.711   0.000  0.00  0.00    +0.097 C 
ATOM     17  C   UNL     1      -0.520   3.294   0.000  0.00  0.00    +0.017 C 
ATOM     18  C   UNL     1      -0.951   3.997   0.000  0.00  0.00    +0.001 C 
ATOM     19  C   UNL     1      -0.089   3.997   0.000  0.00  0.00    +0.001 C 
ENDROOT
BRANCH   9   8
ATOM      8  C   UNL     1       0.888   2.711   0.000  0.00  0.00    +0.049 C 
BRANCH   8   7
ATOM      5  C   UNL     1       2.293   4.318   0.000  0.00  0.00    +0.154 A 
ATOM      6  C   UNL     1       2.121   3.511   0.000  0.00  0.00    +0.054 A 
ATOM      7  C   UNL     1       1.301   3.425   0.000  0.00  0.00    +0.100 A 
ATOM     20  N   UNL     1       0.965   4.179   0.000  0.00  0.00    -0.082 NA
ATOM     21  O   UNL     1       1.578   4.731   0.000  0.00  0.00    -0.358 OA
BRANCH   5   4
ATOM      4  C   UNL     1       3.046   4.654   0.000  0.00  0.00    +0.067 C 
BRANCH   4   3
ATOM      3  C   UNL     1       3.133   5.474   0.000  0.00  0.00    +0.008 C 
BRANCH   3   2
ATOM      1  C   UNL     1       3.973   6.630   0.000  0.00  0.00    +0.000 C 
ATOM      2  C   UNL     1       3.886   5.810   0.000  0.00  0.00    +0.000 C 
ENDBRANCH   3   2
ENDBRANCH   4   3
ENDBRANCH   5   4
ENDBRANCH   8   7
ENDBRANCH   9   8
BRANCH  11  12
ATOM     12  N   UNL     1      -1.929   2.711   0.000  0.00  0.00    -0.083 NA
BRANCH  12  13
ATOM     13  S   UNL     1      -2.341   1.996   0.000  0.00  0.00    +0.059 S 
ATOM     14  C   UNL     1      -2.754   1.282   0.000  0.00  0.00    +0.197 C 
ATOM     15  O   UNL     1      -3.056   2.409   0.000  0.00  0.00    -0.156 OA
ATOM     16  O   UNL     1      -1.627   1.584   0.000  0.00  0.00    -0.156 OA
ENDBRANCH  12  13
ENDBRANCH  11  12
TORSDOF 7
