MODEL 1
REMARK VINA RESULT:      -8.6      0.000      0.000
REMARK  Name = 
REMARK  5 active torsions:
REMARK  status: ('A' for Active; 'I' for Inactive)
REMARK    1  A    between atoms: C_2  and  C_3
REMARK    2  A    between atoms: C_2  and  C_25
REMARK    3  A    between atoms: C_14  and  C_16
REMARK    4  A    between atoms: N_27  and  C_29
REMARK    5  A    between atoms: C_29  and  C_30
REMARK                            x       y       z     vdW  Elec       q    Type
REMARK                         _______ _______ _______ _____ _____    ______ ____
ROOT
ATOM      3  C   UNL     1      -2.429   0.684  24.667  0.00  0.00    +0.039 C 
ATOM      4  C   UNL     1      -2.208   1.460  24.842  0.00  0.00    +0.003 C 
ATOM      5  C   UNL     1      -1.442   1.718  24.679  0.00  0.00    +0.001 C 
ATOM      6  C   UNL     1      -0.896   1.200  24.342  0.00  0.00    +0.007 C 
ATOM      7  C   UNL     1      -0.676   1.975  24.515  0.00  0.00    +0.000 C 
ATOM      8  C   UNL     1      -0.129   1.458  24.178  0.00  0.00    +0.034 C 
ATOM      9  C   UNL     1       0.418   0.940  23.841  0.00  0.00    +0.023 A 
ATOM     10  C   UNL     1       0.197   0.163  23.666  0.00  0.00    +0.063 A 
ATOM     11  N   UNL     1       0.850  -0.218  23.338  0.00  0.00    -0.227 NA
ATOM     12  C   UNL     1       1.473   0.320  23.309  0.00  0.00    +0.185 A 
ATOM     13  N   UNL     1       2.231   0.170  23.020  0.00  0.00    -0.154 NA
ATOM     14  C   UNL     1       2.800   0.767  23.026  0.00  0.00    +0.247 C 
ATOM     15  O   UNL     1       2.613   1.514  23.321  0.00  0.00    -0.273 OA
ATOM     19  S   UNL     1       1.206   1.036  23.620  0.00  0.00    -0.054 S 
ATOM     20  C   UNL     1      -0.570  -0.094  23.830  0.00  0.00    +0.043 C 
ATOM     21  C   UNL     1      -0.790  -0.870  23.656  0.00  0.00    +0.006 C 
ATOM     22  C   UNL     1      -1.117   0.424  24.167  0.00  0.00    +0.036 C 
ATOM     23  C   UNL     1      -1.883   0.166  24.330  0.00  0.00    +0.153 C 
ATOM     24  O   UNL     1      -2.103  -0.610  24.156  0.00  0.00    -0.223 OA
ENDROOT
BRANCH  14  16
ATOM     16  C   UNL     1       3.558   0.616  22.737  0.00  0.00    +0.079 C 
ATOM     17  C   UNL     1       4.360   0.472  22.873  0.00  0.00    +0.010 C 
ATOM     18  C   UNL     1       4.071   0.500  22.101  0.00  0.00    +0.010 C 
ENDBRANCH  14  16
BRANCH   3   2
ATOM      1  C   UNL     1      -3.316  -0.214  25.337  0.00  0.00    +0.010 C 
ATOM      2  C   UNL     1      -3.195   0.426  24.831  0.00  0.00    +0.079 C 
BRANCH   2  25
ATOM     25  C   UNL     1      -3.841   0.808  24.489  0.00  0.00    +0.226 C 
ATOM     26  O   UNL     1      -3.813   1.036  23.695  0.00  0.00    -0.275 OA
ATOM     27  N   UNL     1      -4.515   0.964  24.939  0.00  0.00    -0.266 N 
ATOM     28  C   UNL     1      -4.543   0.736  25.731  0.00  0.00    +0.116 C 
BRANCH  27  29
ATOM     29  C   UNL     1      -5.161   1.346  24.597  0.00  0.00    +0.172 C 
BRANCH  29  30
ATOM     30  C   UNL     1      -5.687   1.771  25.069  0.00  0.00    -0.056 C 
ATOM     31  C   UNL     1      -6.213   2.196  25.541  0.00  0.00    -0.012 C 
ENDBRANCH  29  30
ENDBRANCH  27  29
ENDBRANCH   2  25
ENDBRANCH   3   2
TORSDOF 5
ENDMDL
MODEL 2
REMARK VINA RESULT:      -8.2      1.211      1.761
REMARK  Name = 
REMARK  5 active torsions:
REMARK  status: ('A' for Active; 'I' for Inactive)
REMARK    1  A    between atoms: C_2  and  C_3
REMARK    2  A    between atoms: C_2  and  C_25
REMARK    3  A    between atoms: C_14  and  C_16
REMARK    4  A    between atoms: N_27  and  C_29
REMARK    5  A    between atoms: C_29  and  C_30
REMARK                            x       y       z     vdW  Elec       q    Type
REMARK                         _______ _______ _______ _____ _____    ______ ____
ROOT
ATOM      3  C   UNL     1      -2.470   2.074  24.718  0.00  0.00    +0.039 C 
ATOM      4  C   UNL     1      -2.587   1.282  24.513  0.00  0.00    +0.003 C 
ATOM      5  C   UNL     1      -1.956   0.832  24.232  0.00  0.00    +0.001 C 
ATOM      6  C   UNL     1      -1.209   1.171  24.155  0.00  0.00    +0.007 C 
ATOM      7  C   UNL     1      -1.326   0.382  23.951  0.00  0.00    +0.000 C 
ATOM      8  C   UNL     1      -0.577   0.721  23.874  0.00  0.00    +0.034 C 
ATOM      9  C   UNL     1       0.171   1.060  23.797  0.00  0.00    +0.023 A 
ATOM     10  C   UNL     1       0.288   1.852  24.001  0.00  0.00    +0.063 A 
ATOM     11  N   UNL     1       1.080   2.035  23.867  0.00  0.00    -0.227 NA
ATOM     12  C   UNL     1       1.454   1.358  23.580  0.00  0.00    +0.185 A 
ATOM     13  N   UNL     1       2.250   1.294  23.374  0.00  0.00    -0.154 NA
ATOM     14  C   UNL     1       2.546   0.577  23.094  0.00  0.00    +0.247 C 
ATOM     15  O   UNL     1       2.048  -0.076  23.020  0.00  0.00    -0.273 OA
ATOM     19  S   UNL     1       0.891   0.756  23.537  0.00  0.00    -0.054 S 
ATOM     20  C   UNL     1      -0.344   2.303  24.282  0.00  0.00    +0.043 C 
ATOM     21  C   UNL     1      -0.227   3.093  24.486  0.00  0.00    +0.006 C 
ATOM     22  C   UNL     1      -1.092   1.963  24.359  0.00  0.00    +0.036 C 
ATOM     23  C   UNL     1      -1.723   2.414  24.640  0.00  0.00    +0.153 C 
ATOM     24  O   UNL     1      -1.606   3.204  24.844  0.00  0.00    -0.223 OA
ENDROOT
BRANCH  14  16
ATOM     16  C   UNL     1       3.342   0.513  22.887  0.00  0.00    +0.079 C 
ATOM     17  C   UNL     1       3.939   0.557  22.318  0.00  0.00    +0.010 C 
ATOM     18  C   UNL     1       4.125   0.358  23.096  0.00  0.00    +0.010 C 
ENDBRANCH  14  16
BRANCH   3   2
ATOM      1  C   UNL     1      -3.021   2.957  25.696  0.00  0.00    +0.010 C 
ATOM      2  C   UNL     1      -3.102   2.525  24.999  0.00  0.00    +0.079 C 
BRANCH   2  25
ATOM     25  C   UNL     1      -3.813   2.543  24.583  0.00  0.00    +0.226 C 
ATOM     26  O   UNL     1      -3.811   2.651  23.764  0.00  0.00    -0.275 OA
ATOM     27  N   UNL     1      -4.529   2.452  24.984  0.00  0.00    -0.266 N 
ATOM     28  C   UNL     1      -4.532   2.343  25.802  0.00  0.00    +0.116 C 
BRANCH  27  29
ATOM     29  C   UNL     1      -5.241   2.470  24.569  0.00  0.00    +0.172 C 
BRANCH  29  30
ATOM     30  C   UNL     1      -5.907   2.092  24.874  0.00  0.00    -0.056 C 
ATOM     31  C   UNL     1      -6.573   1.714  25.180  0.00  0.00    -0.012 C 
ENDBRANCH  29  30
ENDBRANCH  27  29
ENDBRANCH   2  25
ENDBRANCH   3   2
TORSDOF 5
ENDMDL
MODEL 3
REMARK VINA RESULT:      -7.8      1.266      6.069
REMARK  Name = 
REMARK  5 active torsions:
REMARK  status: ('A' for Active; 'I' for Inactive)
REMARK    1  A    between atoms: C_2  and  C_3
REMARK    2  A    between atoms: C_2  and  C_25
REMARK    3  A    between atoms: C_14  and  C_16
REMARK    4  A    between atoms: N_27  and  C_29
REMARK    5  A    between atoms: C_29  and  C_30
REMARK                            x       y       z     vdW  Elec       q    Type
REMARK                         _______ _______ _______ _____ _____    ______ ____
ROOT
ATOM      3  C   UNL     1      -0.056   0.654  23.519  0.00  0.00    +0.039 C 
ATOM      4  C   UNL     1      -0.234   1.299  23.034  0.00  0.00    +0.003 C 
ATOM      5  C   UNL     1      -0.973   1.660  23.085  0.00  0.00    +0.001 C 
ATOM      6  C   UNL     1      -1.534   1.378  23.619  0.00  0.00    +0.007 C 
ATOM      7  C   UNL     1      -1.713   2.021  23.136  0.00  0.00    +0.000 C 
ATOM      8  C   UNL     1      -2.275   1.739  23.670  0.00  0.00    +0.034 C 
ATOM      9  C   UNL     1      -2.837   1.457  24.204  0.00  0.00    +0.023 A 
ATOM     10  C   UNL     1      -2.658   0.812  24.689  0.00  0.00    +0.063 A 
ATOM     11  N   UNL     1      -3.317   0.658  25.158  0.00  0.00    -0.227 NA
ATOM     12  C   UNL     1      -3.903   1.205  24.966  0.00  0.00    +0.185 A 
ATOM     13  N   UNL     1      -4.655   1.251  25.304  0.00  0.00    -0.154 NA
ATOM     14  C   UNL     1      -5.184   1.831  25.054  0.00  0.00    +0.247 C 
ATOM     15  O   UNL     1      -4.963   2.367  24.466  0.00  0.00    -0.273 OA
ATOM     19  S   UNL     1      -3.606   1.699  24.376  0.00  0.00    -0.054 S 
ATOM     20  C   UNL     1      -1.918   0.451  24.637  0.00  0.00    +0.043 C 
ATOM     21  C   UNL     1      -1.740  -0.193  25.121  0.00  0.00    +0.006 C 
ATOM     22  C   UNL     1      -1.356   0.733  24.103  0.00  0.00    +0.036 C 
ATOM     23  C   UNL     1      -0.617   0.372  24.053  0.00  0.00    +0.153 C 
ATOM     24  O   UNL     1      -0.439  -0.272  24.536  0.00  0.00    -0.223 OA
ENDROOT
BRANCH  14  16
ATOM     16  C   UNL     1      -5.935   1.877  25.391  0.00  0.00    +0.079 C 
ATOM     17  C   UNL     1      -6.757   1.875  25.310  0.00  0.00    +0.010 C 
ATOM     18  C   UNL     1      -6.416   1.958  26.057  0.00  0.00    +0.010 C 
ENDBRANCH  14  16
BRANCH   3   2
ATOM      1  C   UNL     1       0.738  -0.524  23.364  0.00  0.00    +0.010 C 
ATOM      2  C   UNL     1       0.685   0.293  23.468  0.00  0.00    +0.079 C 
BRANCH   2  25
ATOM     25  C   UNL     1       1.370   0.747  23.520  0.00  0.00    +0.226 C 
ATOM     26  O   UNL     1       1.401   1.390  24.038  0.00  0.00    -0.275 OA
ATOM     27  N   UNL     1       2.027   0.561  23.056  0.00  0.00    -0.266 N 
ATOM     28  C   UNL     1       1.996  -0.082  22.539  0.00  0.00    +0.116 C 
BRANCH  27  29
ATOM     29  C   UNL     1       2.712   1.015  23.109  0.00  0.00    +0.172 C 
BRANCH  29  30
ATOM     30  C   UNL     1       3.416   0.741  22.776  0.00  0.00    -0.056 C 
ATOM     31  C   UNL     1       4.119   0.468  22.444  0.00  0.00    -0.012 C 
ENDBRANCH  29  30
ENDBRANCH  27  29
ENDBRANCH   2  25
ENDBRANCH   3   2
TORSDOF 5
ENDMDL
MODEL 4
REMARK VINA RESULT:      -7.5      3.166      4.404
REMARK  Name = 
REMARK  5 active torsions:
REMARK  status: ('A' for Active; 'I' for Inactive)
REMARK    1  A    between atoms: C_2  and  C_3
REMARK    2  A    between atoms: C_2  and  C_25
REMARK    3  A    between atoms: C_14  and  C_16
REMARK    4  A    between atoms: N_27  and  C_29
REMARK    5  A    between atoms: C_29  and  C_30
REMARK                            x       y       z     vdW  Elec       q    Type
REMARK                         _______ _______ _______ _____ _____    ______ ____
ROOT
ATOM      3  C   UNL     1      -3.733  -0.507  25.115  0.00  0.00    +0.039 C 
ATOM      4  C   UNL     1      -4.412  -0.068  24.945  0.00  0.00    +0.003 C 
ATOM      5  C   UNL     1      -4.362   0.750  24.855  0.00  0.00    +0.001 C 
ATOM      6  C   UNL     1      -3.635   1.130  24.936  0.00  0.00    +0.007 C 
ATOM      7  C   UNL     1      -4.312   1.568  24.766  0.00  0.00    +0.000 C 
ATOM      8  C   UNL     1      -3.585   1.949  24.847  0.00  0.00    +0.034 C 
ATOM      9  C   UNL     1      -2.858   2.331  24.928  0.00  0.00    +0.023 A 
ATOM     10  C   UNL     1      -2.179   1.892  25.099  0.00  0.00    +0.063 A 
ATOM     11  N   UNL     1      -1.544   2.415  25.147  0.00  0.00    -0.227 NA
ATOM     12  C   UNL     1      -1.828   3.176  25.007  0.00  0.00    +0.185 A 
ATOM     13  N   UNL     1      -1.380   3.868  25.002  0.00  0.00    -0.154 NA
ATOM     14  C   UNL     1      -1.742   4.593  24.852  0.00  0.00    +0.247 C 
ATOM     15  O   UNL     1      -2.554   4.627  24.706  0.00  0.00    -0.273 OA
ATOM     19  S   UNL     1      -2.640   3.123  24.871  0.00  0.00    -0.054 S 
ATOM     20  C   UNL     1      -2.229   1.073  25.189  0.00  0.00    +0.043 C 
ATOM     21  C   UNL     1      -1.551   0.635  25.359  0.00  0.00    +0.006 C 
ATOM     22  C   UNL     1      -2.957   0.692  25.107  0.00  0.00    +0.036 C 
ATOM     23  C   UNL     1      -3.006  -0.126  25.197  0.00  0.00    +0.153 C 
ATOM     24  O   UNL     1      -2.329  -0.564  25.367  0.00  0.00    -0.223 OA
ENDROOT
BRANCH  14  16
ATOM     16  C   UNL     1      -1.294   5.286  24.847  0.00  0.00    +0.079 C 
ATOM     17  C   UNL     1      -1.230   6.097  24.985  0.00  0.00    +0.010 C 
ATOM     18  C   UNL     1      -0.581   5.675  24.702  0.00  0.00    +0.010 C 
ENDBRANCH  14  16
BRANCH   3   2
ATOM      1  C   UNL     1      -3.741  -1.661  25.957  0.00  0.00    +0.010 C 
ATOM      2  C   UNL     1      -3.784  -1.325  25.205  0.00  0.00    +0.079 C 
BRANCH   2  25
ATOM     25  C   UNL     1      -3.876  -1.808  24.543  0.00  0.00    +0.226 C 
ATOM     26  O   UNL     1      -4.256  -1.517  23.870  0.00  0.00    -0.275 OA
ATOM     27  N   UNL     1      -3.589  -2.582  24.552  0.00  0.00    -0.266 N 
ATOM     28  C   UNL     1      -3.210  -2.872  25.224  0.00  0.00    +0.116 C 
BRANCH  27  29
ATOM     29  C   UNL     1      -3.682  -3.064  23.890  0.00  0.00    +0.172 C 
BRANCH  29  30
ATOM     30  C   UNL     1      -3.046  -3.510  23.611  0.00  0.00    -0.056 C 
ATOM     31  C   UNL     1      -2.410  -3.955  23.333  0.00  0.00    -0.012 C 
ENDBRANCH  29  30
ENDBRANCH  27  29
ENDBRANCH   2  25
ENDBRANCH   3   2
TORSDOF 5
ENDMDL
MODEL 5
REMARK VINA RESULT:      -7.1      3.409      5.179
REMARK  Name = 
REMARK  5 active torsions:
REMARK  status: ('A' for Active; 'I' for Inactive)
REMARK    1  A    between atoms: C_2  and  C_3
REMARK    2  A    between atoms: C_2  and  C_25
REMARK    3  A    between atoms: C_14  and  C_16
REMARK    4  A    between atoms: N_27  and  C_29
REMARK    5  A    between atoms: C_29  and  C_30
REMARK                            x       y       z     vdW  Elec       q    Type
REMARK                         _______ _______ _______ _____ _____    ______ ____
ROOT
ATOM      3  C   UNL     1      -3.456   3.158  25.322  0.00  0.00    +0.039 C 
ATOM      4  C   UNL     1      -4.243   3.116  25.076  0.00  0.00    +0.003 C 
ATOM      5  C   UNL     1      -4.562   2.394  24.836  0.00  0.00    +0.001 C 
ATOM      6  C   UNL     1      -4.095   1.715  24.842  0.00  0.00    +0.007 C 
ATOM      7  C   UNL     1      -4.881   1.673  24.597  0.00  0.00    +0.000 C 
ATOM      8  C   UNL     1      -4.414   0.992  24.602  0.00  0.00    +0.034 C 
ATOM      9  C   UNL     1      -3.947   0.312  24.608  0.00  0.00    +0.023 A 
ATOM     10  C   UNL     1      -3.159   0.354  24.854  0.00  0.00    +0.063 A 
ATOM     11  N   UNL     1      -2.836  -0.402  24.802  0.00  0.00    -0.227 NA
ATOM     12  C   UNL     1      -3.421  -0.912  24.524  0.00  0.00    +0.185 A 
ATOM     13  N   UNL     1      -3.336  -1.721  24.389  0.00  0.00    -0.154 NA
ATOM     14  C   UNL     1      -3.974  -2.162  24.109  0.00  0.00    +0.247 C 
ATOM     15  O   UNL     1      -4.698  -1.794  23.963  0.00  0.00    -0.273 OA
ATOM     19  S   UNL     1      -4.108  -0.470  24.404  0.00  0.00    -0.054 S 
ATOM     20  C   UNL     1      -2.841   1.077  25.094  0.00  0.00    +0.043 C 
ATOM     21  C   UNL     1      -2.055   1.119  25.340  0.00  0.00    +0.006 C 
ATOM     22  C   UNL     1      -3.308   1.757  25.088  0.00  0.00    +0.036 C 
ATOM     23  C   UNL     1      -2.989   2.479  25.328  0.00  0.00    +0.153 C 
ATOM     24  O   UNL     1      -2.203   2.521  25.573  0.00  0.00    -0.223 OA
ENDROOT
BRANCH  14  16
ATOM     16  C   UNL     1      -3.888  -2.971  23.974  0.00  0.00    +0.079 C 
ATOM     17  C   UNL     1      -4.064  -3.645  23.530  0.00  0.00    +0.010 C 
ATOM     18  C   UNL     1      -3.564  -3.701  24.184  0.00  0.00    +0.010 C 
ENDBRANCH  14  16
BRANCH   3   2
ATOM      1  C   UNL     1      -3.169   4.102  26.355  0.00  0.00    +0.010 C 
ATOM      2  C   UNL     1      -3.138   3.881  25.561  0.00  0.00    +0.079 C 
BRANCH   2  25
ATOM     25  C   UNL     1      -2.788   4.382  25.008  0.00  0.00    +0.226 C 
ATOM     26  O   UNL     1      -3.115   4.456  24.253  0.00  0.00    -0.275 OA
ATOM     27  N   UNL     1      -2.110   4.809  25.207  0.00  0.00    -0.266 N 
ATOM     28  C   UNL     1      -1.783   4.734  25.961  0.00  0.00    +0.116 C 
BRANCH  27  29
ATOM     29  C   UNL     1      -1.760   5.310  24.654  0.00  0.00    +0.172 C 
BRANCH  29  30
ATOM     30  C   UNL     1      -0.938   5.349  24.593  0.00  0.00    -0.056 C 
ATOM     31  C   UNL     1      -0.117   5.388  24.532  0.00  0.00    -0.012 C 
ENDBRANCH  29  30
ENDBRANCH  27  29
ENDBRANCH   2  25
ENDBRANCH   3   2
TORSDOF 5
ENDMDL
