MODEL 1
REMARK VINA RESULT:      -9.0      0.000      0.000
REMARK  Name = 
REMARK  9 active torsions:
REMARK  status: ('A' for Active; 'I' for Inactive)
REMARK    1  A    between atoms: C_2  and  C_4
REMARK    2  A    between atoms: C_2  and  C_8
REMARK    3  A    between atoms: C_4  and  C_5
REMARK    4  A    between atoms: C_8  and  C_9
REMARK    5  A    between atoms: N_11  and  C_12
REMARK    6  A    between atoms: C_16  and  N_20
REMARK    7  A    between atoms: C_24  and  O_25
REMARK    8  A    between atoms: O_25  and  C_26
REMARK    9  A    between atoms: C_29  and  N_32
REMARK                            x       y       z     vdW  Elec       q    Type
REMARK                         _______ _______ _______ _____ _____    ______ ____
ROOT
ATOM     12  C   UNL     1       1.221   0.275  23.048  0.00  0.00    +0.154 C 
ATOM     13  C   UNL     1       0.858  -0.432  22.826  0.00  0.00    +0.166 C 
ATOM     14  O   UNL     1       0.160  -0.506  23.260  0.00  0.00    -0.350 OA
ATOM     15  C   UNL     1       0.092   0.154  23.749  0.00  0.00    +0.169 C 
ATOM     16  C   UNL     1      -0.381   0.517  24.320  0.00  0.00    +0.170 C 
ATOM     17  C   UNL     1      -0.018   1.223  24.541  0.00  0.00    +0.169 C 
ATOM     18  O   UNL     1       0.680   1.298  24.108  0.00  0.00    -0.350 OA
ATOM     19  C   UNL     1       0.748   0.637  23.618  0.00  0.00    +0.167 C 
ENDROOT
BRANCH  16  20
ATOM     20  N   UNL     1      -1.093   0.224  24.617  0.00  0.00    -0.180 N 
ATOM     21  N   UNL     1      -1.203  -0.510  24.978  0.00  0.00    -0.040 NA
ATOM     22  N   UNL     1      -1.998  -0.574  25.189  0.00  0.00    -0.020 NA
ATOM     23  N   UNL     1      -2.379   0.120  24.958  0.00  0.00    -0.071 NA
ATOM     24  C   UNL     1      -1.820   0.613  24.605  0.00  0.00    +0.343 A 
BRANCH  24  25
ATOM     25  O   UNL     1      -1.963   1.364  24.294  0.00  0.00    -0.421 OA
BRANCH  25  26
ATOM     26  C   UNL     1      -2.633   1.786  24.527  0.00  0.00    +0.149 A 
ATOM     27  C   UNL     1      -2.589   2.313  25.159  0.00  0.00    +0.039 A 
ATOM     28  C   UNL     1      -3.258   2.736  25.392  0.00  0.00    +0.022 A 
ATOM     29  C   UNL     1      -3.972   2.630  24.992  0.00  0.00    +0.085 A 
ATOM     30  C   UNL     1      -4.016   2.103  24.359  0.00  0.00    +0.022 A 
ATOM     31  C   UNL     1      -3.346   1.681  24.127  0.00  0.00    +0.039 A 
BRANCH  29  32
ATOM     32  N   UNL     1      -4.642   3.052  25.225  0.00  0.00    -0.208 N 
ATOM     33  C   UNL     1      -5.313   2.734  25.584  0.00  0.00    +0.202 A 
ATOM     34  N   UNL     1      -5.845   3.351  25.721  0.00  0.00    -0.200 NA
ATOM     35  C   UNL     1      -5.502   4.048  25.445  0.00  0.00    +0.221 A 
ATOM     36  N   UNL     1      -4.758   3.863  25.138  0.00  0.00    -0.141 NA
ENDBRANCH  29  32
ENDBRANCH  25  26
ENDBRANCH  24  25
ENDBRANCH  16  20
BRANCH  12  11
ATOM      9  C   UNL     1       2.602   0.085  22.732  0.00  0.00    +0.241 C 
ATOM     10  O   UNL     1       2.558  -0.691  23.010  0.00  0.00    -0.273 OA
ATOM     11  N   UNL     1       1.933   0.568  22.751  0.00  0.00    -0.202 NA
BRANCH   9   8
ATOM      8  C   UNL     1       3.314   0.378  22.435  0.00  0.00    +0.087 C 
BRANCH   8   2
ATOM      1  C   UNL     1       3.971  -0.319  23.103  0.00  0.00    +0.001 C 
ATOM      2  C   UNL     1       3.957   0.490  22.940  0.00  0.00    +0.019 C 
ATOM      3  C   UNL     1       3.943   1.299  22.778  0.00  0.00    +0.001 C 
BRANCH   2   4
ATOM      4  C   UNL     1       4.599   0.603  23.444  0.00  0.00    +0.115 C 
BRANCH   4   5
ATOM      5  C   UNL     1       5.267   0.122  23.375  0.00  0.00    +0.365 C 
ATOM      6  O   UNL     1       5.506  -0.345  24.012  0.00  0.00    -0.246 OA
ATOM      7  O   UNL     1       5.694   0.109  22.670  0.00  0.00    -0.246 OA
ENDBRANCH   4   5
ENDBRANCH   2   4
ENDBRANCH   8   2
ENDBRANCH   9   8
ENDBRANCH  12  11
TORSDOF 9
ENDMDL
MODEL 2
REMARK VINA RESULT:      -8.9      1.855      7.175
REMARK  Name = 
REMARK  9 active torsions:
REMARK  status: ('A' for Active; 'I' for Inactive)
REMARK    1  A    between atoms: C_2  and  C_4
REMARK    2  A    between atoms: C_2  and  C_8
REMARK    3  A    between atoms: C_4  and  C_5
REMARK    4  A    between atoms: C_8  and  C_9
REMARK    5  A    between atoms: N_11  and  C_12
REMARK    6  A    between atoms: C_16  and  N_20
REMARK    7  A    between atoms: C_24  and  O_25
REMARK    8  A    between atoms: O_25  and  C_26
REMARK    9  A    between atoms: C_29  and  N_32
REMARK                            x       y       z     vdW  Elec       q    Type
REMARK                         _______ _______ _______ _____ _____    ______ ____
ROOT
ATOM     12  C   UNL     1      -3.528   0.840  24.266  0.00  0.00    +0.154 C 
ATOM     13  C   UNL     1      -3.639   0.052  24.051  0.00  0.00    +0.166 C 
ATOM     14  O   UNL     1      -2.926  -0.346  24.166  0.00  0.00    -0.350 OA
ATOM     15  C   UNL     1      -2.374   0.195  24.451  0.00  0.00    +0.169 C 
ATOM     16  C   UNL     1      -1.592   0.286  24.698  0.00  0.00    +0.170 C 
ATOM     17  C   UNL     1      -1.481   1.074  24.913  0.00  0.00    +0.169 C 
ATOM     18  O   UNL     1      -2.194   1.472  24.799  0.00  0.00    -0.350 OA
ATOM     19  C   UNL     1      -2.746   0.929  24.513  0.00  0.00    +0.167 C 
ENDROOT
BRANCH  16  20
ATOM     20  N   UNL     1      -1.021  -0.310  24.725  0.00  0.00    -0.180 N 
ATOM     21  N   UNL     1      -1.003  -0.941  25.257  0.00  0.00    -0.040 NA
ATOM     22  N   UNL     1      -0.339  -1.399  25.086  0.00  0.00    -0.020 NA
ATOM     23  N   UNL     1       0.053  -1.052  24.450  0.00  0.00    -0.071 NA
ATOM     24  C   UNL     1      -0.368  -0.379  24.227  0.00  0.00    +0.343 A 
BRANCH  24  25
ATOM     25  O   UNL     1      -0.171   0.136  23.612  0.00  0.00    -0.421 OA
BRANCH  25  26
ATOM     26  C   UNL     1       0.619   0.228  23.389  0.00  0.00    +0.149 A 
ATOM     27  C   UNL     1       1.073   0.830  23.722  0.00  0.00    +0.039 A 
ATOM     28  C   UNL     1       1.862   0.923  23.499  0.00  0.00    +0.022 A 
ATOM     29  C   UNL     1       2.196   0.413  22.942  0.00  0.00    +0.085 A 
ATOM     30  C   UNL     1       1.741  -0.189  22.609  0.00  0.00    +0.022 A 
ATOM     31  C   UNL     1       0.952  -0.281  22.832  0.00  0.00    +0.039 A 
BRANCH  29  32
ATOM     32  N   UNL     1       2.985   0.505  22.719  0.00  0.00    -0.208 N 
ATOM     33  C   UNL     1       3.314   0.273  21.999  0.00  0.00    +0.202 A 
ATOM     34  N   UNL     1       4.116   0.469  22.009  0.00  0.00    -0.200 NA
ATOM     35  C   UNL     1       4.280   0.823  22.736  0.00  0.00    +0.221 A 
ATOM     36  N   UNL     1       3.582   0.845  23.174  0.00  0.00    -0.141 NA
ENDBRANCH  29  32
ENDBRANCH  25  26
ENDBRANCH  24  25
ENDBRANCH  16  20
BRANCH  12  11
ATOM      9  C   UNL     1      -4.790   1.365  24.683  0.00  0.00    +0.241 C 
ATOM     10  O   UNL     1      -4.910   0.698  25.156  0.00  0.00    -0.273 OA
ATOM     11  N   UNL     1      -4.099   1.435  24.239  0.00  0.00    -0.202 NA
BRANCH   9   8
ATOM      8  C   UNL     1      -5.361   1.959  24.656  0.00  0.00    +0.087 C 
BRANCH   8   2
ATOM      1  C   UNL     1      -5.844   1.925  25.719  0.00  0.00    +0.001 C 
ATOM      2  C   UNL     1      -5.433   2.492  25.282  0.00  0.00    +0.019 C 
ATOM      3  C   UNL     1      -5.022   3.060  24.847  0.00  0.00    +0.001 C 
BRANCH   2   4
ATOM      4  C   UNL     1      -5.504   3.025  25.908  0.00  0.00    +0.115 C 
BRANCH   4   5
ATOM      5  C   UNL     1      -5.506   3.837  25.759  0.00  0.00    +0.365 C 
ATOM      6  O   UNL     1      -6.219   4.252  25.749  0.00  0.00    -0.246 OA
ATOM      7  O   UNL     1      -4.795   4.233  25.621  0.00  0.00    -0.246 OA
ENDBRANCH   4   5
ENDBRANCH   2   4
ENDBRANCH   8   2
ENDBRANCH   9   8
ENDBRANCH  12  11
TORSDOF 9
ENDMDL
MODEL 3
REMARK VINA RESULT:      -8.0      1.337      1.899
REMARK  Name = 
REMARK  9 active torsions:
REMARK  status: ('A' for Active; 'I' for Inactive)
REMARK    1  A    between atoms: C_2  and  C_4
REMARK    2  A    between atoms: C_2  and  C_8
REMARK    3  A    between atoms: C_4  and  C_5
REMARK    4  A    between atoms: C_8  and  C_9
REMARK    5  A    between atoms: N_11  and  C_12
REMARK    6  A    between atoms: C_16  and  N_20
REMARK    7  A    between atoms: C_24  and  O_25
REMARK    8  A    between atoms: O_25  and  C_26
REMARK    9  A    between atoms: C_29  and  N_32
REMARK                            x       y       z     vdW  Elec       q    Type
REMARK                         _______ _______ _______ _____ _____    ______ ____
ROOT
ATOM     12  C   UNL     1      -0.106  -0.688  24.099  0.00  0.00    +0.154 C 
ATOM     13  C   UNL     1      -0.082  -0.262  24.805  0.00  0.00    +0.166 C 
ATOM     14  O   UNL     1      -0.810  -0.355  25.183  0.00  0.00    -0.350 OA
ATOM     15  C   UNL     1      -1.283  -0.837  24.711  0.00  0.00    +0.169 C 
ATOM     16  C   UNL     1      -2.024  -1.194  24.651  0.00  0.00    +0.170 C 
ATOM     17  C   UNL     1      -2.048  -1.620  23.945  0.00  0.00    +0.169 C 
ATOM     18  O   UNL     1      -1.321  -1.527  23.568  0.00  0.00    -0.350 OA
ATOM     19  C   UNL     1      -0.847  -1.043  24.041  0.00  0.00    +0.167 C 
ENDROOT
BRANCH  16  20
ATOM     20  N   UNL     1      -2.636  -1.134  25.202  0.00  0.00    -0.180 N 
ATOM     21  N   UNL     1      -2.719  -1.588  25.887  0.00  0.00    -0.040 NA
ATOM     22  N   UNL     1      -3.406  -1.344  26.273  0.00  0.00    -0.020 NA
ATOM     23  N   UNL     1      -3.748  -0.741  25.827  0.00  0.00    -0.071 NA
ATOM     24  C   UNL     1      -3.272  -0.611  25.166  0.00  0.00    +0.343 A 
BRANCH  24  25
ATOM     25  O   UNL     1      -3.409  -0.054  24.572  0.00  0.00    -0.421 OA
BRANCH  25  26
ATOM     26  C   UNL     1      -3.810   0.646  24.746  0.00  0.00    +0.149 A 
ATOM     27  C   UNL     1      -3.388   1.341  24.877  0.00  0.00    +0.039 A 
ATOM     28  C   UNL     1      -3.788   2.041  25.052  0.00  0.00    +0.022 A 
ATOM     29  C   UNL     1      -4.612   2.044  25.095  0.00  0.00    +0.085 A 
ATOM     30  C   UNL     1      -5.035   1.348  24.964  0.00  0.00    +0.022 A 
ATOM     31  C   UNL     1      -4.634   0.649  24.790  0.00  0.00    +0.039 A 
BRANCH  29  32
ATOM     32  N   UNL     1      -5.014   2.744  25.270  0.00  0.00    -0.208 N 
ATOM     33  C   UNL     1      -5.742   2.801  25.654  0.00  0.00    +0.202 A 
ATOM     34  N   UNL     1      -5.937   3.601  25.713  0.00  0.00    -0.200 NA
ATOM     35  C   UNL     1      -5.329   4.037  25.365  0.00  0.00    +0.221 A 
ATOM     36  N   UNL     1      -4.759   3.507  25.092  0.00  0.00    -0.141 NA
ENDBRANCH  29  32
ENDBRANCH  25  26
ENDBRANCH  24  25
ENDBRANCH  16  20
BRANCH  12  11
ATOM      9  C   UNL     1       0.949  -0.080  23.349  0.00  0.00    +0.241 C 
ATOM     10  O   UNL     1       0.780   0.647  23.702  0.00  0.00    -0.273 OA
ATOM     11  N   UNL     1       0.506  -0.747  23.548  0.00  0.00    -0.202 NA
BRANCH   9   8
ATOM      8  C   UNL     1       1.560  -0.140  22.799  0.00  0.00    +0.087 C 
BRANCH   8   2
ATOM      1  C   UNL     1       2.657  -0.422  23.079  0.00  0.00    +0.001 C 
ATOM      2  C   UNL     1       2.260   0.282  22.912  0.00  0.00    +0.019 C 
ATOM      3  C   UNL     1       1.864   0.986  22.746  0.00  0.00    +0.001 C 
BRANCH   2   4
ATOM      4  C   UNL     1       2.960   0.703  23.025  0.00  0.00    +0.115 C 
BRANCH   4   5
ATOM      5  C   UNL     1       3.619   0.542  22.555  0.00  0.00    +0.365 C 
ATOM      6  O   UNL     1       4.333   0.325  22.907  0.00  0.00    -0.246 OA
ATOM      7  O   UNL     1       3.564   0.598  21.734  0.00  0.00    -0.246 OA
ENDBRANCH   4   5
ENDBRANCH   2   4
ENDBRANCH   8   2
ENDBRANCH   9   8
ENDBRANCH  12  11
TORSDOF 9
ENDMDL
MODEL 4
REMARK VINA RESULT:      -7.5      2.953      4.761
REMARK  Name = 
REMARK  9 active torsions:
REMARK  status: ('A' for Active; 'I' for Inactive)
REMARK    1  A    between atoms: C_2  and  C_4
REMARK    2  A    between atoms: C_2  and  C_8
REMARK    3  A    between atoms: C_4  and  C_5
REMARK    4  A    between atoms: C_8  and  C_9
REMARK    5  A    between atoms: N_11  and  C_12
REMARK    6  A    between atoms: C_16  and  N_20
REMARK    7  A    between atoms: C_24  and  O_25
REMARK    8  A    between atoms: O_25  and  C_26
REMARK    9  A    between atoms: C_29  and  N_32
REMARK                            x       y       z     vdW  Elec       q    Type
REMARK                         _______ _______ _______ _____ _____    ______ ____
ROOT
ATOM     12  C   UNL     1      -1.207  -0.297  25.120  0.00  0.00    +0.154 C 
ATOM     13  C   UNL     1      -1.295  -0.034  25.896  0.00  0.00    +0.166 C 
ATOM     14  O   UNL     1      -1.107   0.769  25.916  0.00  0.00    -0.350 OA
ATOM     15  C   UNL     1      -0.903   1.002  25.152  0.00  0.00    +0.169 C 
ATOM     16  C   UNL     1      -0.660   1.642  24.691  0.00  0.00    +0.170 C 
ATOM     17  C   UNL     1      -0.572   1.379  23.914  0.00  0.00    +0.169 C 
ATOM     18  O   UNL     1      -0.760   0.576  23.895  0.00  0.00    -0.350 OA
ATOM     19  C   UNL     1      -0.964   0.343  24.660  0.00  0.00    +0.167 C 
ENDROOT
BRANCH  16  20
ATOM     20  N   UNL     1      -0.529   2.411  24.960  0.00  0.00    -0.180 N 
ATOM     21  N   UNL     1       0.057   2.645  25.492  0.00  0.00    -0.040 NA
ATOM     22  N   UNL     1      -0.012   3.459  25.606  0.00  0.00    -0.020 NA
ATOM     23  N   UNL     1      -0.641   3.728  25.144  0.00  0.00    -0.071 NA
ATOM     24  C   UNL     1      -0.960   3.080  24.746  0.00  0.00    +0.343 A 
BRANCH  24  25
ATOM     25  O   UNL     1      -1.599   3.098  24.223  0.00  0.00    -0.421 OA
BRANCH  25  26
ATOM     26  C   UNL     1      -2.356   3.269  24.504  0.00  0.00    +0.149 A 
ATOM     27  C   UNL     1      -2.452   3.754  25.164  0.00  0.00    +0.039 A 
ATOM     28  C   UNL     1      -3.209   3.924  25.444  0.00  0.00    +0.022 A 
ATOM     29  C   UNL     1      -3.870   3.609  25.064  0.00  0.00    +0.085 A 
ATOM     30  C   UNL     1      -3.774   3.123  24.403  0.00  0.00    +0.022 A 
ATOM     31  C   UNL     1      -3.017   2.953  24.123  0.00  0.00    +0.039 A 
BRANCH  29  32
ATOM     32  N   UNL     1      -4.628   3.778  25.343  0.00  0.00    -0.208 N 
ATOM     33  C   UNL     1      -5.127   3.253  25.737  0.00  0.00    +0.202 A 
ATOM     34  N   UNL     1      -5.828   3.652  25.916  0.00  0.00    -0.200 NA
ATOM     35  C   UNL     1      -5.759   4.423  25.632  0.00  0.00    +0.221 A 
ATOM     36  N   UNL     1      -5.018   4.501  25.278  0.00  0.00    -0.141 NA
ENDBRANCH  29  32
ENDBRANCH  25  26
ENDBRANCH  24  25
ENDBRANCH  16  20
BRANCH  12  11
ATOM      9  C   UNL     1      -2.039  -1.457  25.042  0.00  0.00    +0.241 C 
ATOM     10  O   UNL     1      -2.609  -1.077  25.504  0.00  0.00    -0.273 OA
ATOM     11  N   UNL     1      -1.338  -1.066  24.850  0.00  0.00    -0.202 NA
BRANCH   9   8
ATOM      8  C   UNL     1      -2.171  -2.225  24.773  0.00  0.00    +0.087 C 
BRANCH   8   2
ATOM      1  C   UNL     1      -2.837  -2.910  25.443  0.00  0.00    +0.001 C 
ATOM      2  C   UNL     1      -2.940  -2.519  24.724  0.00  0.00    +0.019 C 
ATOM      3  C   UNL     1      -3.043  -2.130  24.004  0.00  0.00    +0.001 C 
BRANCH   2   4
ATOM      4  C   UNL     1      -3.709  -2.813  24.674  0.00  0.00    +0.115 C 
BRANCH   4   5
ATOM      5  C   UNL     1      -4.008  -3.063  23.946  0.00  0.00    +0.365 C 
ATOM      6  O   UNL     1      -4.551  -2.592  23.541  0.00  0.00    -0.246 OA
ATOM      7  O   UNL     1      -3.764  -3.782  23.624  0.00  0.00    -0.246 OA
ENDBRANCH   4   5
ENDBRANCH   2   4
ENDBRANCH   8   2
ENDBRANCH   9   8
ENDBRANCH  12  11
TORSDOF 9
ENDMDL
MODEL 5
REMARK VINA RESULT:      -7.3      2.935      6.286
REMARK  Name = 
REMARK  9 active torsions:
REMARK  status: ('A' for Active; 'I' for Inactive)
REMARK    1  A    between atoms: C_2  and  C_4
REMARK    2  A    between atoms: C_2  and  C_8
REMARK    3  A    between atoms: C_4  and  C_5
REMARK    4  A    between atoms: C_8  and  C_9
REMARK    5  A    between atoms: N_11  and  C_12
REMARK    6  A    between atoms: C_16  and  N_20
REMARK    7  A    between atoms: C_24  and  O_25
REMARK    8  A    between atoms: O_25  and  C_26
REMARK    9  A    between atoms: C_29  and  N_32
REMARK                            x       y       z     vdW  Elec       q    Type
REMARK                         _______ _______ _______ _____ _____    ______ ____
ROOT
ATOM     12  C   UNL     1      -1.965   2.593  24.087  0.00  0.00    +0.154 C 
ATOM     13  C   UNL     1      -2.087   2.240  23.352  0.00  0.00    +0.166 C 
ATOM     14  O   UNL     1      -1.551   1.618  23.277  0.00  0.00    -0.350 OA
ATOM     15  C   UNL     1      -1.097   1.587  23.964  0.00  0.00    +0.169 C 
ATOM     16  C   UNL     1      -0.485   1.184  24.343  0.00  0.00    +0.170 C 
ATOM     17  C   UNL     1      -0.362   1.538  25.078  0.00  0.00    +0.169 C 
ATOM     18  O   UNL     1      -0.898   2.159  25.153  0.00  0.00    -0.350 OA
ATOM     19  C   UNL     1      -1.353   2.190  24.465  0.00  0.00    +0.167 C 
ENDROOT
BRANCH  16  20
ATOM     20  N   UNL     1      -0.068   0.540  24.039  0.00  0.00    -0.180 N 
ATOM     21  N   UNL     1       0.456   0.557  23.401  0.00  0.00    -0.040 NA
ATOM     22  N   UNL     1       0.745  -0.206  23.288  0.00  0.00    -0.020 NA
ATOM     23  N   UNL     1       0.401  -0.696  23.855  0.00  0.00    -0.071 NA
ATOM     24  C   UNL     1      -0.101  -0.235  24.319  0.00  0.00    +0.343 A 
BRANCH  24  25
ATOM     25  O   UNL     1      -0.557  -0.502  24.953  0.00  0.00    -0.421 OA
BRANCH  25  26
ATOM     26  C   UNL     1      -1.189  -1.017  24.819  0.00  0.00    +0.149 A 
ATOM     27  C   UNL     1      -1.095  -1.662  24.314  0.00  0.00    +0.039 A 
ATOM     28  C   UNL     1      -1.725  -2.176  24.180  0.00  0.00    +0.022 A 
ATOM     29  C   UNL     1      -2.451  -2.045  24.552  0.00  0.00    +0.085 A 
ATOM     30  C   UNL     1      -2.545  -1.399  25.057  0.00  0.00    +0.022 A 
ATOM     31  C   UNL     1      -1.913  -0.885  25.190  0.00  0.00    +0.039 A 
BRANCH  29  32
ATOM     32  N   UNL     1      -3.082  -2.559  24.418  0.00  0.00    -0.208 N 
ATOM     33  C   UNL     1      -3.151  -3.327  24.710  0.00  0.00    +0.202 A 
ATOM     34  N   UNL     1      -3.867  -3.639  24.442  0.00  0.00    -0.200 NA
ATOM     35  C   UNL     1      -4.240  -3.062  23.986  0.00  0.00    +0.221 A 
ATOM     36  N   UNL     1      -3.755  -2.395  23.971  0.00  0.00    -0.141 NA
ENDBRANCH  29  32
ENDBRANCH  25  26
ENDBRANCH  24  25
ENDBRANCH  16  20
BRANCH  12  11
ATOM      9  C   UNL     1      -3.206   3.224  24.411  0.00  0.00    +0.241 C 
ATOM     10  O   UNL     1      -3.614   2.565  24.126  0.00  0.00    -0.273 OA
ATOM     11  N   UNL     1      -2.381   3.238  24.391  0.00  0.00    -0.202 NA
BRANCH   9   8
ATOM      8  C   UNL     1      -3.623   3.868  24.714  0.00  0.00    +0.087 C 
BRANCH   8   2
ATOM      1  C   UNL     1      -3.671   4.063  25.864  0.00  0.00    +0.001 C 
ATOM      2  C   UNL     1      -4.190   3.752  25.302  0.00  0.00    +0.019 C 
ATOM      3  C   UNL     1      -4.709   3.442  24.741  0.00  0.00    +0.001 C 
BRANCH   2   4
ATOM      4  C   UNL     1      -4.757   3.637  25.890  0.00  0.00    +0.115 C 
BRANCH   4   5
ATOM      5  C   UNL     1      -5.527   3.914  25.780  0.00  0.00    +0.365 C 
ATOM      6  O   UNL     1      -5.667   4.724  25.709  0.00  0.00    -0.246 OA
ATOM      7  O   UNL     1      -6.155   3.381  25.740  0.00  0.00    -0.246 OA
ENDBRANCH   4   5
ENDBRANCH   2   4
ENDBRANCH   8   2
ENDBRANCH   9   8
ENDBRANCH  12  11
TORSDOF 9
ENDMDL
