MODEL 1
REMARK VINA RESULT:     -10.4      0.000      0.000
REMARK  Name = 
REMARK  4 active torsions:
REMARK  status: ('A' for Active; 'I' for Inactive)
REMARK    1  A    between atoms: N_3  and  C_4
REMARK    2  A    between atoms: C_4  and  C_5
REMARK    3  A    between atoms: N_14  and  C_15
REMARK    4  A    between atoms: C_15  and  C_16
REMARK                            x       y       z     vdW  Elec       q    Type
REMARK                         _______ _______ _______ _____ _____    ______ ____
ROOT
ATOM      1  O   UNL     1      -4.676   2.332  24.217  0.00  0.00    -0.252 OA
ATOM      2  C   UNL     1      -3.986   1.945  24.452  0.00  0.00    +0.308 C 
ATOM      3  N   UNL     1      -3.224   2.260  24.433  0.00  0.00    -0.257 N 
ATOM     11  C   UNL     1      -2.703   1.686  24.718  0.00  0.00    +0.117 C 
ATOM     12  C   UNL     1      -3.144   1.017  24.912  0.00  0.00    +0.113 C 
ATOM     13  C   UNL     1      -2.927   0.282  25.218  0.00  0.00    +0.094 C 
ATOM     14  N   UNL     1      -3.502  -0.292  25.359  0.00  0.00    -0.266 NA
ATOM     22  C   UNL     1      -4.294  -0.132  25.195  0.00  0.00    +0.094 C 
ATOM     23  C   UNL     1      -4.512   0.603  24.890  0.00  0.00    +0.112 C 
ATOM     24  N   UNL     1      -3.937   1.177  24.748  0.00  0.00    -0.261 N 
ENDROOT
BRANCH   3   4
ATOM      4  C   UNL     1      -3.017   3.016  24.175  0.00  0.00    +0.141 C 
BRANCH   4   5
ATOM      5  C   UNL     1      -2.446   3.450  24.582  0.00  0.00    +0.079 A 
ATOM      6  N   UNL     1      -1.647   3.360  24.391  0.00  0.00    -0.246 NA
ATOM      7  C   UNL     1      -1.075   3.794  24.798  0.00  0.00    +0.099 A 
ATOM      8  C   UNL     1      -1.301   4.316  25.395  0.00  0.00    +0.021 A 
ATOM      9  C   UNL     1      -2.098   4.405  25.586  0.00  0.00    +0.003 A 
ATOM     10  C   UNL     1      -2.671   3.972  25.179  0.00  0.00    +0.016 A 
ENDBRANCH   4   5
ENDBRANCH   3   4
BRANCH  14  15
ATOM     15  C   UNL     1      -3.285  -1.028  25.665  0.00  0.00    +0.101 C 
BRANCH  15  16
ATOM     16  C   UNL     1      -3.108  -1.651  25.155  0.00  0.00    +0.013 A 
ATOM     17  C   UNL     1      -3.708  -2.153  24.892  0.00  0.00    +0.000 A 
ATOM     18  C   UNL     1      -3.532  -2.776  24.383  0.00  0.00    +0.020 A 
ATOM     19  C   UNL     1      -2.755  -2.898  24.134  0.00  0.00    +0.099 A 
ATOM     20  N   UNL     1      -2.154  -2.397  24.396  0.00  0.00    -0.243 NA
ATOM     21  C   UNL     1      -2.331  -1.773  24.907  0.00  0.00    +0.096 A 
ENDBRANCH  15  16
ENDBRANCH  14  15
TORSDOF 4
ENDMDL
MODEL 2
REMARK VINA RESULT:     -10.2      1.957      5.203
REMARK  Name = 
REMARK  4 active torsions:
REMARK  status: ('A' for Active; 'I' for Inactive)
REMARK    1  A    between atoms: N_3  and  C_4
REMARK    2  A    between atoms: C_4  and  C_5
REMARK    3  A    between atoms: N_14  and  C_15
REMARK    4  A    between atoms: C_15  and  C_16
REMARK                            x       y       z     vdW  Elec       q    Type
REMARK                         _______ _______ _______ _____ _____    ______ ____
ROOT
ATOM      1  O   UNL     1      -0.195  -0.434  23.695  0.00  0.00    -0.252 OA
ATOM      2  C   UNL     1      -0.581  -0.100  24.344  0.00  0.00    +0.308 C 
ATOM      3  N   UNL     1      -1.163  -0.463  24.801  0.00  0.00    -0.257 N 
ATOM     11  C   UNL     1      -1.394   0.069  25.389  0.00  0.00    +0.117 C 
ATOM     12  C   UNL     1      -0.954   0.760  25.294  0.00  0.00    +0.113 C 
ATOM     13  C   UNL     1      -0.946   1.471  25.713  0.00  0.00    +0.094 C 
ATOM     14  N   UNL     1      -0.436   2.077  25.485  0.00  0.00    -0.266 NA
ATOM     22  C   UNL     1       0.067   1.973  24.839  0.00  0.00    +0.094 C 
ATOM     23  C   UNL     1       0.059   1.263  24.421  0.00  0.00    +0.112 C 
ATOM     24  N   UNL     1      -0.452   0.656  24.648  0.00  0.00    -0.261 N 
ENDROOT
BRANCH   3   4
ATOM      4  C   UNL     1      -1.463  -1.224  24.691  0.00  0.00    +0.141 C 
BRANCH   4   5
ATOM      5  C   UNL     1      -2.276  -1.356  24.726  0.00  0.00    +0.079 A 
ATOM      6  N   UNL     1      -2.757  -1.138  24.092  0.00  0.00    -0.246 NA
ATOM      7  C   UNL     1      -3.570  -1.271  24.127  0.00  0.00    +0.099 A 
ATOM      8  C   UNL     1      -3.903  -1.622  24.796  0.00  0.00    +0.021 A 
ATOM      9  C   UNL     1      -3.422  -1.840  25.429  0.00  0.00    +0.003 A 
ATOM     10  C   UNL     1      -2.608  -1.707  25.395  0.00  0.00    +0.016 A 
ENDBRANCH   4   5
ENDBRANCH   3   4
BRANCH  14  15
ATOM     15  C   UNL     1      -0.427   2.789  25.904  0.00  0.00    +0.101 C 
BRANCH  15  16
ATOM     16  C   UNL     1      -0.913   3.412  25.669  0.00  0.00    +0.013 A 
ATOM     17  C   UNL     1      -0.622   3.996  25.163  0.00  0.00    +0.000 A 
ATOM     18  C   UNL     1      -1.108   4.618  24.929  0.00  0.00    +0.020 A 
ATOM     19  C   UNL     1      -1.887   4.659  25.199  0.00  0.00    +0.099 A 
ATOM     20  N   UNL     1      -2.179   4.076  25.704  0.00  0.00    -0.243 NA
ATOM     21  C   UNL     1      -1.692   3.452  25.939  0.00  0.00    +0.096 A 
ENDBRANCH  15  16
ENDBRANCH  14  15
TORSDOF 4
ENDMDL
MODEL 3
REMARK VINA RESULT:     -10.2      1.181      4.565
REMARK  Name = 
REMARK  4 active torsions:
REMARK  status: ('A' for Active; 'I' for Inactive)
REMARK    1  A    between atoms: N_3  and  C_4
REMARK    2  A    between atoms: C_4  and  C_5
REMARK    3  A    between atoms: N_14  and  C_15
REMARK    4  A    between atoms: C_15  and  C_16
REMARK                            x       y       z     vdW  Elec       q    Type
REMARK                         _______ _______ _______ _____ _____    ______ ____
ROOT
ATOM      1  O   UNL     1      -5.049   1.107  24.945  0.00  0.00    -0.252 OA
ATOM      2  C   UNL     1      -4.293   0.943  24.659  0.00  0.00    +0.308 C 
ATOM      3  N   UNL     1      -4.028   0.214  24.378  0.00  0.00    -0.257 N 
ATOM     11  C   UNL     1      -3.240   0.300  24.149  0.00  0.00    +0.117 C 
ATOM     12  C   UNL     1      -3.018   1.082  24.288  0.00  0.00    +0.113 C 
ATOM     13  C   UNL     1      -2.308   1.484  24.168  0.00  0.00    +0.094 C 
ATOM     14  N   UNL     1      -2.247   2.283  24.364  0.00  0.00    -0.266 NA
ATOM     22  C   UNL     1      -2.898   2.680  24.679  0.00  0.00    +0.094 C 
ATOM     23  C   UNL     1      -3.609   2.279  24.799  0.00  0.00    +0.112 C 
ATOM     24  N   UNL     1      -3.669   1.479  24.603  0.00  0.00    -0.261 N 
ENDROOT
BRANCH   3   4
ATOM      4  C   UNL     1      -4.474  -0.479  24.334  0.00  0.00    +0.141 C 
BRANCH   4   5
ATOM      5  C   UNL     1      -4.119  -1.208  24.486  0.00  0.00    +0.079 A 
ATOM      6  N   UNL     1      -3.823  -1.372  25.239  0.00  0.00    -0.246 NA
ATOM      7  C   UNL     1      -3.468  -2.101  25.392  0.00  0.00    +0.099 A 
ATOM      8  C   UNL     1      -3.409  -2.665  24.793  0.00  0.00    +0.021 A 
ATOM      9  C   UNL     1      -3.705  -2.501  24.041  0.00  0.00    +0.003 A 
ATOM     10  C   UNL     1      -4.060  -1.772  23.887  0.00  0.00    +0.016 A 
ENDBRANCH   4   5
ENDBRANCH   3   4
BRANCH  14  15
ATOM     15  C   UNL     1      -1.537   2.685  24.245  0.00  0.00    +0.101 C 
BRANCH  15  16
ATOM     16  C   UNL     1      -0.937   2.639  24.808  0.00  0.00    +0.013 A 
ATOM     17  C   UNL     1      -0.981   3.092  25.496  0.00  0.00    +0.000 A 
ATOM     18  C   UNL     1      -0.381   3.047  26.060  0.00  0.00    +0.020 A 
ATOM     19  C   UNL     1       0.264   2.548  25.936  0.00  0.00    +0.099 A 
ATOM     20  N   UNL     1       0.310   2.095  25.248  0.00  0.00    -0.243 NA
ATOM     21  C   UNL     1      -0.292   2.140  24.684  0.00  0.00    +0.096 A 
ENDBRANCH  15  16
ENDBRANCH  14  15
TORSDOF 4
ENDMDL
MODEL 4
REMARK VINA RESULT:     -10.2      1.446      1.867
REMARK  Name = 
REMARK  4 active torsions:
REMARK  status: ('A' for Active; 'I' for Inactive)
REMARK    1  A    between atoms: N_3  and  C_4
REMARK    2  A    between atoms: C_4  and  C_5
REMARK    3  A    between atoms: N_14  and  C_15
REMARK    4  A    between atoms: C_15  and  C_16
REMARK                            x       y       z     vdW  Elec       q    Type
REMARK                         _______ _______ _______ _____ _____    ______ ____
ROOT
ATOM      1  O   UNL     1      -0.079   1.152  24.657  0.00  0.00    -0.252 OA
ATOM      2  C   UNL     1      -0.902   1.153  24.710  0.00  0.00    +0.308 C 
ATOM      3  N   UNL     1      -1.398   1.789  24.537  0.00  0.00    -0.257 N 
ATOM     11  C   UNL     1      -2.177   1.547  24.665  0.00  0.00    +0.117 C 
ATOM     12  C   UNL     1      -2.161   0.762  24.916  0.00  0.00    +0.113 C 
ATOM     13  C   UNL     1      -2.763   0.236  25.124  0.00  0.00    +0.094 C 
ATOM     14  N   UNL     1      -2.576  -0.532  25.359  0.00  0.00    -0.266 NA
ATOM     22  C   UNL     1      -1.789  -0.776  25.386  0.00  0.00    +0.094 C 
ATOM     23  C   UNL     1      -1.187  -0.251  25.179  0.00  0.00    +0.112 C 
ATOM     24  N   UNL     1      -1.374   0.518  24.944  0.00  0.00    -0.261 N 
ENDROOT
BRANCH   3   4
ATOM      4  C   UNL     1      -1.159   2.536  24.282  0.00  0.00    +0.141 C 
BRANCH   4   5
ATOM      5  C   UNL     1      -1.446   3.212  24.656  0.00  0.00    +0.079 A 
ATOM      6  N   UNL     1      -2.205   3.488  24.484  0.00  0.00    -0.246 NA
ATOM      7  C   UNL     1      -2.491   4.165  24.859  0.00  0.00    +0.099 A 
ATOM      8  C   UNL     1      -2.021   4.565  25.406  0.00  0.00    +0.021 A 
ATOM      9  C   UNL     1      -1.263   4.289  25.578  0.00  0.00    +0.003 A 
ATOM     10  C   UNL     1      -0.975   3.612  25.203  0.00  0.00    +0.016 A 
ENDBRANCH   4   5
ENDBRANCH   3   4
BRANCH  14  15
ATOM     15  C   UNL     1      -3.178  -1.058  25.566  0.00  0.00    +0.101 C 
BRANCH  15  16
ATOM     16  C   UNL     1      -3.468  -1.593  25.011  0.00  0.00    +0.013 A 
ATOM     17  C   UNL     1      -4.030  -1.351  24.458  0.00  0.00    +0.000 A 
ATOM     18  C   UNL     1      -4.321  -1.886  23.902  0.00  0.00    +0.020 A 
ATOM     19  C   UNL     1      -4.050  -2.665  23.899  0.00  0.00    +0.099 A 
ATOM     20  N   UNL     1      -3.488  -2.909  24.451  0.00  0.00    -0.243 NA
ATOM     21  C   UNL     1      -3.197  -2.372  25.008  0.00  0.00    +0.096 A 
ENDBRANCH  15  16
ENDBRANCH  14  15
TORSDOF 4
ENDMDL
MODEL 5
REMARK VINA RESULT:      -9.8      2.055      4.373
REMARK  Name = 
REMARK  4 active torsions:
REMARK  status: ('A' for Active; 'I' for Inactive)
REMARK    1  A    between atoms: N_3  and  C_4
REMARK    2  A    between atoms: C_4  and  C_5
REMARK    3  A    between atoms: N_14  and  C_15
REMARK    4  A    between atoms: C_15  and  C_16
REMARK                            x       y       z     vdW  Elec       q    Type
REMARK                         _______ _______ _______ _____ _____    ______ ____
ROOT
ATOM      1  O   UNL     1      -0.460   2.561  25.885  0.00  0.00    -0.252 OA
ATOM      2  C   UNL     1      -1.071   2.268  25.414  0.00  0.00    +0.308 C 
ATOM      3  N   UNL     1      -1.061   1.561  24.991  0.00  0.00    -0.257 N 
ATOM     11  C   UNL     1      -1.784   1.487  24.599  0.00  0.00    +0.117 C 
ATOM     12  C   UNL     1      -2.240   2.149  24.781  0.00  0.00    +0.113 C 
ATOM     13  C   UNL     1      -3.000   2.376  24.553  0.00  0.00    +0.094 C 
ATOM     14  N   UNL     1      -3.320   3.084  24.828  0.00  0.00    -0.266 NA
ATOM     22  C   UNL     1      -2.880   3.567  25.332  0.00  0.00    +0.094 C 
ATOM     23  C   UNL     1      -2.120   3.342  25.560  0.00  0.00    +0.112 C 
ATOM     24  N   UNL     1      -1.800   2.632  25.284  0.00  0.00    -0.261 N 
ENDROOT
BRANCH   3   4
ATOM      4  C   UNL     1      -0.437   1.021  24.963  0.00  0.00    +0.141 C 
BRANCH   4   5
ATOM      5  C   UNL     1      -0.593   0.211  24.951  0.00  0.00    +0.079 A 
ATOM      6  N   UNL     1      -0.868  -0.166  25.632  0.00  0.00    -0.246 NA
ATOM      7  C   UNL     1      -1.023  -0.976  25.619  0.00  0.00    +0.099 A 
ATOM      8  C   UNL     1      -0.904  -1.409  24.927  0.00  0.00    +0.021 A 
ATOM      9  C   UNL     1      -0.629  -1.032  24.248  0.00  0.00    +0.003 A 
ATOM     10  C   UNL     1      -0.473  -0.222  24.259  0.00  0.00    +0.016 A 
ENDBRANCH   4   5
ENDBRANCH   3   4
BRANCH  14  15
ATOM     15  C   UNL     1      -4.080   3.311  24.601  0.00  0.00    +0.101 C 
BRANCH  15  16
ATOM     16  C   UNL     1      -4.738   2.987  24.978  0.00  0.00    +0.013 A 
ATOM     17  C   UNL     1      -5.133   2.345  24.642  0.00  0.00    +0.000 A 
ATOM     18  C   UNL     1      -5.790   2.021  25.019  0.00  0.00    +0.020 A 
ATOM     19  C   UNL     1      -6.054   2.340  25.733  0.00  0.00    +0.099 A 
ATOM     20  N   UNL     1      -5.660   2.981  26.070  0.00  0.00    -0.243 NA
ATOM     21  C   UNL     1      -5.002   3.305  25.692  0.00  0.00    +0.096 A 
ENDBRANCH  15  16
ENDBRANCH  14  15
TORSDOF 4
ENDMDL
MODEL 6
REMARK VINA RESULT:      -9.8      1.512      4.850
REMARK  Name = 
REMARK  4 active torsions:
REMARK  status: ('A' for Active; 'I' for Inactive)
REMARK    1  A    between atoms: N_3  and  C_4
REMARK    2  A    between atoms: C_4  and  C_5
REMARK    3  A    between atoms: N_14  and  C_15
REMARK    4  A    between atoms: C_15  and  C_16
REMARK                            x       y       z     vdW  Elec       q    Type
REMARK                         _______ _______ _______ _____ _____    ______ ____
ROOT
ATOM      1  O   UNL     1      -0.780   0.367  25.437  0.00  0.00    -0.252 OA
ATOM      2  C   UNL     1      -1.543   0.372  25.122  0.00  0.00    +0.308 C 
ATOM      3  N   UNL     1      -2.008  -0.291  24.966  0.00  0.00    -0.257 N 
ATOM     11  C   UNL     1      -2.727  -0.031  24.656  0.00  0.00    +0.117 C 
ATOM     12  C   UNL     1      -2.706   0.793  24.621  0.00  0.00    +0.113 C 
ATOM     13  C   UNL     1      -3.259   1.349  24.363  0.00  0.00    +0.094 C 
ATOM     14  N   UNL     1      -3.080   2.153  24.393  0.00  0.00    -0.266 NA
ATOM     22  C   UNL     1      -2.348   2.402  24.681  0.00  0.00    +0.094 C 
ATOM     23  C   UNL     1      -1.795   1.847  24.939  0.00  0.00    +0.112 C 
ATOM     24  N   UNL     1      -1.974   1.042  24.908  0.00  0.00    -0.261 N 
ENDROOT
BRANCH   3   4
ATOM      4  C   UNL     1      -1.792  -1.076  25.098  0.00  0.00    +0.141 C 
BRANCH   4   5
ATOM      5  C   UNL     1      -2.334  -1.682  24.958  0.00  0.00    +0.079 A 
ATOM      6  N   UNL     1      -2.313  -2.098  24.245  0.00  0.00    -0.246 NA
ATOM      7  C   UNL     1      -2.854  -2.704  24.105  0.00  0.00    +0.099 A 
ATOM      8  C   UNL     1      -3.417  -2.895  24.677  0.00  0.00    +0.021 A 
ATOM      9  C   UNL     1      -3.438  -2.480  25.389  0.00  0.00    +0.003 A 
ATOM     10  C   UNL     1      -2.897  -1.873  25.530  0.00  0.00    +0.016 A 
ENDBRANCH   4   5
ENDBRANCH   3   4
BRANCH  14  15
ATOM     15  C   UNL     1      -3.633   2.709  24.136  0.00  0.00    +0.101 C 
BRANCH  15  16
ATOM     16  C   UNL     1      -4.229   2.965  24.645  0.00  0.00    +0.013 A 
ATOM     17  C   UNL     1      -4.955   2.572  24.660  0.00  0.00    +0.000 A 
ATOM     18  C   UNL     1      -5.551   2.828  25.169  0.00  0.00    +0.020 A 
ATOM     19  C   UNL     1      -5.423   3.476  25.662  0.00  0.00    +0.099 A 
ATOM     20  N   UNL     1      -4.698   3.869  25.648  0.00  0.00    -0.243 NA
ATOM     21  C   UNL     1      -4.100   3.613  25.138  0.00  0.00    +0.096 A 
ENDBRANCH  15  16
ENDBRANCH  14  15
TORSDOF 4
ENDMDL
