MODEL 1
REMARK VINA RESULT:     -11.7      0.000      0.000
REMARK  Name = 
REMARK  8 active torsions:
REMARK  status: ('A' for Active; 'I' for Inactive)
REMARK    1  A    between atoms: C_1  and  N_2
REMARK    2  A    between atoms: C_1  and  C_21
REMARK    3  A    between atoms: N_2  and  C_3
REMARK    4  A    between atoms: C_3  and  C_4
REMARK    5  A    between atoms: C_4  and  C_5
REMARK    6  A    between atoms: C_8  and  C_9
REMARK    7  A    between atoms: C_9  and  O_10
REMARK    8  A    between atoms: O_10  and  C_11
REMARK                            x       y       z     vdW  Elec       q    Type
REMARK                         _______ _______ _______ _____ _____    ______ ____
ROOT
ATOM      3  C   UNL     1      -4.370   3.365  25.338  0.00  0.00    +0.120 C 
ATOM     18  C   UNL     1      -4.339   3.846  26.007  0.00  0.00    +0.161 C 
ATOM     19  O   UNL     1      -5.150   3.980  25.949  0.00  0.00    -0.351 OA
ATOM     20  C   UNL     1      -5.182   3.499  25.280  0.00  0.00    +0.161 C 
ENDROOT
BRANCH   3   2
ATOM      2  N   UNL     1      -3.559   3.231  25.395  0.00  0.00    -0.211 NA
BRANCH   2   1
ATOM      1  C   UNL     1      -3.049   3.856  25.569  0.00  0.00    +0.115 C 
BRANCH   1  21
ATOM     21  C   UNL     1      -2.231   3.743  25.538  0.00  0.00    -0.002 A 
ATOM     22  C   UNL     1      -1.763   4.240  25.074  0.00  0.00    +0.000 A 
ATOM     23  C   UNL     1      -0.947   4.127  25.043  0.00  0.00    +0.040 A 
ATOM     24  C   UNL     1      -0.598   3.516  25.475  0.00  0.00    +0.176 A 
ATOM     25  O   UNL     1       0.185   3.273  25.553  0.00  0.00    -0.435 OA
ATOM     26  C   UNL     1       0.203   2.625  26.064  0.00  0.00    +0.429 C 
ATOM     27  O   UNL     1      -0.571   2.469  26.302  0.00  0.00    -0.435 OA
ATOM     28  C   UNL     1      -1.066   3.019  25.939  0.00  0.00    +0.176 A 
ATOM     29  C   UNL     1      -1.883   3.132  25.970  0.00  0.00    +0.037 A 
ENDBRANCH   1  21
ENDBRANCH   2   1
ENDBRANCH   3   2
BRANCH   3   4
ATOM      4  C   UNL     1      -4.403   2.884  24.668  0.00  0.00    +0.070 C 
BRANCH   4   5
ATOM      5  C   UNL     1      -4.588   2.084  24.743  0.00  0.00    +0.102 A 
ATOM      6  N   UNL     1      -5.213   1.769  25.180  0.00  0.00    -0.082 NA
ATOM      7  O   UNL     1      -5.192   0.949  25.102  0.00  0.00    -0.354 OA
ATOM      8  C   UNL     1      -4.553   0.756  24.616  0.00  0.00    +0.198 A 
ATOM     17  C   UNL     1      -4.180   1.457  24.395  0.00  0.00    +0.057 A 
BRANCH   8   9
ATOM      9  C   UNL     1      -4.328  -0.006  24.392  0.00  0.00    +0.272 C 
BRANCH   9  10
ATOM     10  O   UNL     1      -4.271  -0.603  24.957  0.00  0.00    -0.467 OA
BRANCH  10  11
ATOM     11  C   UNL     1      -4.011  -1.355  24.738  0.00  0.00    +0.139 A 
ATOM     12  C   UNL     1      -4.290  -1.702  24.044  0.00  0.00    +0.037 A 
ATOM     13  C   UNL     1      -4.030  -2.454  23.825  0.00  0.00    +0.003 A 
ATOM     14  C   UNL     1      -3.491  -2.860  24.302  0.00  0.00    +0.000 A 
ATOM     15  C   UNL     1      -3.213  -2.512  24.996  0.00  0.00    +0.003 A 
ATOM     16  C   UNL     1      -3.473  -1.760  25.214  0.00  0.00    +0.037 A 
ENDBRANCH  10  11
ENDBRANCH   9  10
ENDBRANCH   8   9
ENDBRANCH   4   5
ENDBRANCH   3   4
TORSDOF 8
ENDMDL
MODEL 2
REMARK VINA RESULT:     -10.8      1.664      3.375
REMARK  Name = 
REMARK  8 active torsions:
REMARK  status: ('A' for Active; 'I' for Inactive)
REMARK    1  A    between atoms: C_1  and  N_2
REMARK    2  A    between atoms: C_1  and  C_21
REMARK    3  A    between atoms: N_2  and  C_3
REMARK    4  A    between atoms: C_3  and  C_4
REMARK    5  A    between atoms: C_4  and  C_5
REMARK    6  A    between atoms: C_8  and  C_9
REMARK    7  A    between atoms: C_9  and  O_10
REMARK    8  A    between atoms: O_10  and  C_11
REMARK                            x       y       z     vdW  Elec       q    Type
REMARK                         _______ _______ _______ _____ _____    ______ ____
ROOT
ATOM      3  C   UNL     1      -0.547   2.241  24.891  0.00  0.00    +0.120 C 
ATOM     18  C   UNL     1      -0.479   2.886  24.379  0.00  0.00    +0.161 C 
ATOM     19  O   UNL     1       0.311   2.695  24.243  0.00  0.00    -0.351 OA
ATOM     20  C   UNL     1       0.245   2.050  24.754  0.00  0.00    +0.161 C 
ENDROOT
BRANCH   3   2
ATOM      2  N   UNL     1      -1.337   2.432  25.027  0.00  0.00    -0.211 NA
BRANCH   2   1
ATOM      1  C   UNL     1      -1.572   3.223  25.054  0.00  0.00    +0.115 C 
BRANCH   1  21
ATOM     21  C   UNL     1      -2.339   3.419  25.287  0.00  0.00    -0.002 A 
ATOM     22  C   UNL     1      -2.462   3.849  25.980  0.00  0.00    +0.000 A 
ATOM     23  C   UNL     1      -3.228   4.044  26.213  0.00  0.00    +0.040 A 
ATOM     24  C   UNL     1      -3.873   3.809  25.754  0.00  0.00    +0.176 A 
ATOM     25  O   UNL     1      -4.684   3.920  25.843  0.00  0.00    -0.435 OA
ATOM     26  C   UNL     1      -5.063   3.558  25.207  0.00  0.00    +0.429 C 
ATOM     27  O   UNL     1      -4.485   3.224  24.723  0.00  0.00    -0.435 OA
ATOM     28  C   UNL     1      -3.749   3.379  25.061  0.00  0.00    +0.176 A 
ATOM     29  C   UNL     1      -2.982   3.183  24.828  0.00  0.00    +0.037 A 
ENDBRANCH   1  21
ENDBRANCH   2   1
ENDBRANCH   3   2
BRANCH   3   4
ATOM      4  C   UNL     1      -0.614   1.597  25.401  0.00  0.00    +0.070 C 
BRANCH   4   5
ATOM      5  C   UNL     1      -0.731   0.839  25.097  0.00  0.00    +0.102 A 
ATOM      6  N   UNL     1      -0.225   0.439  24.584  0.00  0.00    -0.082 NA
ATOM      7  O   UNL     1      -0.556  -0.298  24.422  0.00  0.00    -0.354 OA
ATOM      8  C   UNL     1      -1.268  -0.354  24.836  0.00  0.00    +0.198 A 
ATOM     17  C   UNL     1      -1.376   0.349  25.252  0.00  0.00    +0.057 A 
BRANCH   8   9
ATOM      9  C   UNL     1      -1.781  -1.001  24.832  0.00  0.00    +0.272 C 
BRANCH   9  10
ATOM     10  O   UNL     1      -2.594  -0.883  24.894  0.00  0.00    -0.467 OA
BRANCH  10  11
ATOM     11  C   UNL     1      -3.117  -1.462  24.624  0.00  0.00    +0.139 A 
ATOM     12  C   UNL     1      -3.735  -1.257  24.119  0.00  0.00    +0.037 A 
ATOM     13  C   UNL     1      -4.258  -1.836  23.849  0.00  0.00    +0.003 A 
ATOM     14  C   UNL     1      -4.162  -2.621  24.086  0.00  0.00    +0.000 A 
ATOM     15  C   UNL     1      -3.543  -2.825  24.592  0.00  0.00    +0.003 A 
ATOM     16  C   UNL     1      -3.021  -2.246  24.861  0.00  0.00    +0.037 A 
ENDBRANCH  10  11
ENDBRANCH   9  10
ENDBRANCH   8   9
ENDBRANCH   4   5
ENDBRANCH   3   4
TORSDOF 8
ENDMDL
MODEL 3
REMARK VINA RESULT:     -10.4      1.324      4.828
REMARK  Name = 
REMARK  8 active torsions:
REMARK  status: ('A' for Active; 'I' for Inactive)
REMARK    1  A    between atoms: C_1  and  N_2
REMARK    2  A    between atoms: C_1  and  C_21
REMARK    3  A    between atoms: N_2  and  C_3
REMARK    4  A    between atoms: C_3  and  C_4
REMARK    5  A    between atoms: C_4  and  C_5
REMARK    6  A    between atoms: C_8  and  C_9
REMARK    7  A    between atoms: C_9  and  O_10
REMARK    8  A    between atoms: O_10  and  C_11
REMARK                            x       y       z     vdW  Elec       q    Type
REMARK                         _______ _______ _______ _____ _____    ______ ____
ROOT
ATOM      3  C   UNL     1      -5.392   1.491  25.195  0.00  0.00    +0.120 C 
ATOM     18  C   UNL     1      -5.636   1.002  25.814  0.00  0.00    +0.161 C 
ATOM     19  O   UNL     1      -6.267   1.510  25.967  0.00  0.00    -0.351 OA
ATOM     20  C   UNL     1      -6.024   2.000  25.349  0.00  0.00    +0.161 C 
ENDROOT
BRANCH   3   2
ATOM      2  N   UNL     1      -4.761   0.982  25.042  0.00  0.00    -0.211 NA
BRANCH   2   1
ATOM      1  C   UNL     1      -4.846   0.171  25.166  0.00  0.00    +0.115 C 
BRANCH   1  21
ATOM     21  C   UNL     1      -4.249  -0.348  24.930  0.00  0.00    -0.002 A 
ATOM     22  C   UNL     1      -4.334  -0.785  24.235  0.00  0.00    +0.000 A 
ATOM     23  C   UNL     1      -3.738  -1.303  23.999  0.00  0.00    +0.040 A 
ATOM     24  C   UNL     1      -3.056  -1.384  24.456  0.00  0.00    +0.176 A 
ATOM     25  O   UNL     1      -2.381  -1.848  24.364  0.00  0.00    -0.435 OA
ATOM     26  C   UNL     1      -1.878  -1.698  25.000  0.00  0.00    +0.429 C 
ATOM     27  O   UNL     1      -2.243  -1.141  25.487  0.00  0.00    -0.435 OA
ATOM     28  C   UNL     1      -2.971  -0.947  25.151  0.00  0.00    +0.176 A 
ATOM     29  C   UNL     1      -3.568  -0.428  25.388  0.00  0.00    +0.037 A 
ENDBRANCH   1  21
ENDBRANCH   2   1
ENDBRANCH   3   2
BRANCH   3   4
ATOM      4  C   UNL     1      -5.149   1.980  24.577  0.00  0.00    +0.070 C 
BRANCH   4   5
ATOM      5  C   UNL     1      -4.763   2.690  24.740  0.00  0.00    +0.102 A 
ATOM      6  N   UNL     1      -5.075   3.326  25.163  0.00  0.00    -0.082 NA
ATOM      7  O   UNL     1      -4.503   3.919  25.193  0.00  0.00    -0.354 OA
ATOM      8  C   UNL     1      -3.836   3.649  24.789  0.00  0.00    +0.198 A 
ATOM     17  C   UNL     1      -3.997   2.890  24.509  0.00  0.00    +0.057 A 
BRANCH   8   9
ATOM      9  C   UNL     1      -3.132   4.066  24.684  0.00  0.00    +0.272 C 
BRANCH   9  10
ATOM     10  O   UNL     1      -2.559   4.065  25.276  0.00  0.00    -0.467 OA
BRANCH  10  11
ATOM     11  C   UNL     1      -1.799   4.348  25.116  0.00  0.00    +0.139 A 
ATOM     12  C   UNL     1      -1.183   3.817  24.979  0.00  0.00    +0.037 A 
ATOM     13  C   UNL     1      -0.424   4.100  24.819  0.00  0.00    +0.003 A 
ATOM     14  C   UNL     1      -0.282   4.913  24.797  0.00  0.00    +0.000 A 
ATOM     15  C   UNL     1      -0.900   5.442  24.934  0.00  0.00    +0.003 A 
ATOM     16  C   UNL     1      -1.658   5.160  25.094  0.00  0.00    +0.037 A 
ENDBRANCH  10  11
ENDBRANCH   9  10
ENDBRANCH   8   9
ENDBRANCH   4   5
ENDBRANCH   3   4
TORSDOF 8
ENDMDL
MODEL 4
REMARK VINA RESULT:     -10.1      1.510      3.521
REMARK  Name = 
REMARK  8 active torsions:
REMARK  status: ('A' for Active; 'I' for Inactive)
REMARK    1  A    between atoms: C_1  and  N_2
REMARK    2  A    between atoms: C_1  and  C_21
REMARK    3  A    between atoms: N_2  and  C_3
REMARK    4  A    between atoms: C_3  and  C_4
REMARK    5  A    between atoms: C_4  and  C_5
REMARK    6  A    between atoms: C_8  and  C_9
REMARK    7  A    between atoms: C_9  and  O_10
REMARK    8  A    between atoms: O_10  and  C_11
REMARK                            x       y       z     vdW  Elec       q    Type
REMARK                         _______ _______ _______ _____ _____    ______ ____
ROOT
ATOM      3  C   UNL     1      -1.140   3.198  25.337  0.00  0.00    +0.120 C 
ATOM     18  C   UNL     1      -1.222   3.854  24.843  0.00  0.00    +0.161 C 
ATOM     19  O   UNL     1      -0.430   4.048  24.970  0.00  0.00    -0.351 OA
ATOM     20  C   UNL     1      -0.348   3.392  25.463  0.00  0.00    +0.161 C 
ENDROOT
BRANCH   3   2
ATOM      2  N   UNL     1      -1.931   3.003  25.210  0.00  0.00    -0.211 NA
BRANCH   2   1
ATOM      1  C   UNL     1      -2.498   3.600  25.155  0.00  0.00    +0.115 C 
BRANCH   1  21
ATOM     21  C   UNL     1      -3.298   3.404  25.088  0.00  0.00    -0.002 A 
ATOM     22  C   UNL     1      -3.596   3.128  24.369  0.00  0.00    +0.000 A 
ATOM     23  C   UNL     1      -4.394   2.933  24.302  0.00  0.00    +0.040 A 
ATOM     24  C   UNL     1      -4.895   3.014  24.952  0.00  0.00    +0.176 A 
ATOM     25  O   UNL     1      -5.700   2.866  25.051  0.00  0.00    -0.435 OA
ATOM     26  C   UNL     1      -5.900   3.051  25.830  0.00  0.00    +0.429 C 
ATOM     27  O   UNL     1      -5.219   3.313  26.212  0.00  0.00    -0.435 OA
ATOM     28  C   UNL     1      -4.598   3.290  25.671  0.00  0.00    +0.176 A 
ATOM     29  C   UNL     1      -3.798   3.485  25.738  0.00  0.00    +0.037 A 
ENDBRANCH   1  21
ENDBRANCH   2   1
ENDBRANCH   3   2
BRANCH   3   4
ATOM      4  C   UNL     1      -1.057   2.542  25.830  0.00  0.00    +0.070 C 
BRANCH   4   5
ATOM      5  C   UNL     1      -0.847   1.810  25.512  0.00  0.00    +0.102 A 
ATOM      6  N   UNL     1      -0.165   1.647  25.079  0.00  0.00    -0.082 NA
ATOM      7  O   UNL     1      -0.178   0.850  24.871  0.00  0.00    -0.354 OA
ATOM      8  C   UNL     1      -0.870   0.518  25.177  0.00  0.00    +0.198 A 
ATOM     17  C   UNL     1      -1.283   1.112  25.573  0.00  0.00    +0.057 A 
BRANCH   8   9
ATOM      9  C   UNL     1      -1.106  -0.268  25.099  0.00  0.00    +0.272 C 
BRANCH   9  10
ATOM     10  O   UNL     1      -1.694  -0.472  24.559  0.00  0.00    -0.467 OA
BRANCH  10  11
ATOM     11  C   UNL     1      -2.057  -1.212  24.602  0.00  0.00    +0.139 A 
ATOM     12  C   UNL     1      -1.617  -1.895  24.459  0.00  0.00    +0.037 A 
ATOM     13  C   UNL     1      -1.979  -2.636  24.502  0.00  0.00    +0.003 A 
ATOM     14  C   UNL     1      -2.781  -2.692  24.688  0.00  0.00    +0.000 A 
ATOM     15  C   UNL     1      -3.220  -2.009  24.831  0.00  0.00    +0.003 A 
ATOM     16  C   UNL     1      -2.858  -1.269  24.788  0.00  0.00    +0.037 A 
ENDBRANCH  10  11
ENDBRANCH   9  10
ENDBRANCH   8   9
ENDBRANCH   4   5
ENDBRANCH   3   4
TORSDOF 8
ENDMDL
