REMARK  Name = 
REMARK  4 active torsions:
REMARK  status: ('A' for Active; 'I' for Inactive)
REMARK    1  A    between atoms: O_2  and  C_3
REMARK    2  A    between atoms: C_3  and  C_5
REMARK    3  A    between atoms: N_14  and  C_15
REMARK    4  A    between atoms: C_15  and  C_16
REMARK                            x       y       z     vdW  Elec       q    Type
REMARK                         _______ _______ _______ _____ _____    ______ ____
ROOT
ATOM      5  C   UNL     1       2.070   1.110   0.000  0.00  0.00    +0.181 C 
ATOM      6  C   UNL     1       1.356   0.698   0.000  0.00  0.00    +0.078 C 
ATOM      7  C   UNL     1       0.641   1.110   0.000  0.00  0.00    +0.076 A 
ATOM      8  C   UNL     1       0.641   1.935   0.000  0.00  0.00    +0.072 A 
ATOM      9  C   UNL     1       1.356   2.348   0.000  0.00  0.00    +0.139 C 
ATOM     10  N   UNL     1       2.070   1.935   0.000  0.00  0.00    -0.265 N 
ATOM     11  C   UNL     1       2.784   2.348   0.000  0.00  0.00    +0.227 C 
ATOM     12  C   UNL     1       3.499   1.935   0.000  0.00  0.00    +0.095 C 
ATOM     13  O   UNL     1       2.784   3.173   0.000  0.00  0.00    -0.275 OA
ATOM     14  N   UNL     1      -0.143   2.190   0.000  0.00  0.00    -0.307 N 
ATOM     22  C   UNL     1      -0.628   1.523   0.000  0.00  0.00    +0.178 A 
ATOM     23  N   UNL     1      -0.143   0.856   0.000  0.00  0.00    -0.229 NA
ENDROOT
BRANCH   5   3
ATOM      3  C   UNL     1       2.784   0.698   0.000  0.00  0.00    +0.336 C 
ATOM      4  O   UNL     1       2.784  -0.127   0.000  0.00  0.00    -0.248 OA
BRANCH   3   2
ATOM      1  C   UNL     1       4.213   0.698   0.000  0.00  0.00    +0.256 C 
ATOM      2  O   UNL     1       3.499   1.110   0.000  0.00  0.00    -0.443 OA
ENDBRANCH   3   2
ENDBRANCH   5   3
BRANCH  14  15
ATOM     15  C   UNL     1      -0.398   2.975   0.000  0.00  0.00    +0.134 C 
BRANCH  15  16
ATOM     16  C   UNL     1       0.154   3.588   0.000  0.00  0.00    +0.000 A 
ATOM     17  C   UNL     1      -0.101   4.373   0.000  0.00  0.00    -0.002 A 
ATOM     18  C   UNL     1       0.451   4.986   0.000  0.00  0.00    -0.000 A 
ATOM     19  C   UNL     1       1.258   4.814   0.000  0.00  0.00    -0.000 A 
ATOM     20  C   UNL     1       1.513   4.030   0.000  0.00  0.00    -0.000 A 
ATOM     21  C   UNL     1       0.961   3.417   0.000  0.00  0.00    -0.002 A 
ENDBRANCH  15  16
ENDBRANCH  14  15
TORSDOF 4
