REMARK  Name = 
REMARK  8 active torsions:
REMARK  status: ('A' for Active; 'I' for Inactive)
REMARK    1  A    between atoms: S_2  and  C_3
REMARK    2  A    between atoms: C_3  and  C_4
REMARK    3  A    between atoms: C_8  and  N_19
REMARK    4  A    between atoms: C_10  and  C_11
REMARK    5  A    between atoms: N_13  and  C_15
REMARK    6  A    between atoms: C_15  and  C_16
REMARK    7  A    between atoms: N_22  and  C_23
REMARK    8  A    between atoms: C_25  and  S_26
REMARK                            x       y       z     vdW  Elec       q    Type
REMARK                         _______ _______ _______ _____ _____    ______ ____
ROOT
ATOM      4  C   UNL     1       2.439  -0.858   0.000  0.00  0.00    +0.237 C 
ATOM      5  O   UNL     1       2.267  -1.665   0.000  0.00  0.00    -0.274 OA
ATOM      6  N   UNL     1       3.223  -0.603   0.000  0.00  0.00    -0.270 N 
ATOM      7  C   UNL     1       3.478   0.182   0.000  0.00  0.00    +0.116 C 
ATOM      8  C   UNL     1       4.303   0.182   0.000  0.00  0.00    +0.119 C 
ATOM      9  C   UNL     1       4.558  -0.603   0.000  0.00  0.00    +0.053 C 
ATOM     10  C   UNL     1       3.891  -1.088   0.000  0.00  0.00    +0.154 C 
ENDROOT
BRANCH  10  11
ATOM     11  C   UNL     1       3.891  -1.913   0.000  0.00  0.00    +0.244 C 
ATOM     12  O   UNL     1       3.176  -2.325   0.000  0.00  0.00    -0.273 OA
ATOM     13  N   UNL     1       4.605  -2.325   0.000  0.00  0.00    -0.268 N 
ATOM     14  C   UNL     1       4.605  -3.150   0.000  0.00  0.00    +0.115 C 
BRANCH  13  15
ATOM     15  C   UNL     1       5.320  -1.913   0.000  0.00  0.00    +0.183 C 
BRANCH  15  16
ATOM     16  C   UNL     1       6.034  -2.325   0.000  0.00  0.00    +0.281 C 
ATOM     17  N   UNL     1       6.749  -1.913   0.000  0.00  0.00    -0.086 NA
ATOM     18  O   UNL     1       6.034  -3.150   0.000  0.00  0.00    -0.270 OA
ENDBRANCH  15  16
ENDBRANCH  13  15
ENDBRANCH  10  11
BRANCH   8  19
ATOM     19  N   UNL     1       4.788   0.849   0.000  0.00  0.00    -0.187 NA
ATOM     20  C   UNL     1       5.609   0.763   0.000  0.00  0.00    +0.343 C 
ATOM     21  O   UNL     1       5.944   0.009   0.000  0.00  0.00    -0.249 OA
ATOM     22  N   UNL     1       6.093   1.431   0.000  0.00  0.00    -0.161 NA
BRANCH  22  23
ATOM     23  C   UNL     1       6.914   1.344   0.000  0.00  0.00    +0.075 A 
ATOM     24  C   UNL     1       7.399   2.012   0.000  0.00  0.00    +0.023 A 
ATOM     25  C   UNL     1       8.219   1.925   0.000  0.00  0.00    +0.027 A 
ATOM     28  C   UNL     1       8.555   1.172   0.000  0.00  0.00    +0.006 A 
ATOM     29  C   UNL     1       8.070   0.504   0.000  0.00  0.00    +0.002 A 
ATOM     30  C   UNL     1       7.250   0.591   0.000  0.00  0.00    +0.017 A 
BRANCH  25  26
ATOM     26  S   UNL     1       8.704   2.593   0.000  0.00  0.00    -0.113 S 
ATOM     27  C   UNL     1       8.369   3.347   0.000  0.00  0.00    +0.074 C 
ENDBRANCH  25  26
ENDBRANCH  22  23
ENDBRANCH   8  19
BRANCH   4   3
ATOM      3  C   UNL     1       1.825  -0.306   0.000  0.00  0.00    +0.143 C 
BRANCH   3   2
ATOM      1  C   UNL     1       1.384   1.053   0.000  0.00  0.00    +0.070 C 
ATOM      2  S   UNL     1       1.997   0.501   0.000  0.00  0.00    -0.130 S 
ENDBRANCH   3   2
ENDBRANCH   4   3
TORSDOF 8
