MODEL 1
REMARK VINA RESULT:      -8.2      0.000      0.000
REMARK  Name = 
REMARK  6 active torsions:
REMARK  status: ('A' for Active; 'I' for Inactive)
REMARK    1  A    between atoms: N_2  and  C_4
REMARK    2  A    between atoms: C_7  and  C_10
REMARK    3  A    between atoms: N_15  and  C_16
REMARK    4  A    between atoms: C_20  and  N_24
REMARK    5  A    between atoms: N_24  and  S_25
REMARK    6  A    between atoms: S_25  and  C_28
REMARK                            x       y       z     vdW  Elec       q    Type
REMARK                         _______ _______ _______ _____ _____    ______ ____
ROOT
ATOM     16  C   UNL     1      -0.129   0.454  23.632  0.00  0.00    +0.154 C 
ATOM     17  C   UNL     1      -0.198  -0.211  23.149  0.00  0.00    +0.166 C 
ATOM     18  O   UNL     1       0.537  -0.352  22.803  0.00  0.00    -0.350 OA
ATOM     19  C   UNL     1       1.061   0.225  23.072  0.00  0.00    +0.164 C 
ATOM     20  C   UNL     1       1.839   0.495  23.026  0.00  0.00    +0.157 C 
ATOM     21  C   UNL     1       1.908   1.160  23.510  0.00  0.00    +0.164 C 
ATOM     22  O   UNL     1       1.173   1.300  23.856  0.00  0.00    -0.350 OA
ATOM     23  C   UNL     1       0.649   0.723  23.585  0.00  0.00    +0.166 C 
ENDROOT
BRANCH  16  15
ATOM     10  C   UNL     1      -2.644   1.802  23.792  0.00  0.00    +0.086 A 
ATOM     11  C   UNL     1      -2.695   1.805  22.968  0.00  0.00    +0.040 A 
ATOM     12  C   UNL     1      -2.091   1.468  22.517  0.00  0.00    +0.103 A 
ATOM     13  N   UNL     1      -1.437   1.130  22.888  0.00  0.00    -0.211 NA
ATOM     14  C   UNL     1      -1.387   1.128  23.712  0.00  0.00    +0.237 A 
ATOM     15  N   UNL     1      -0.732   0.790  24.084  0.00  0.00    -0.200 NA
ATOM     33  N   UNL     1      -1.990   1.464  24.163  0.00  0.00    -0.212 NA
BRANCH  10   7
ATOM      4  C   UNL     1      -4.455   2.810  25.145  0.00  0.00    +0.048 A 
ATOM      5  C   UNL     1      -3.747   3.220  25.031  0.00  0.00    +0.015 A 
ATOM      6  C   UNL     1      -3.144   2.884  24.580  0.00  0.00    +0.003 A 
ATOM      7  C   UNL     1      -3.247   2.138  24.243  0.00  0.00    +0.018 A 
ATOM      8  C   UNL     1      -3.953   1.728  24.357  0.00  0.00    +0.003 A 
ATOM      9  C   UNL     1      -4.557   2.064  24.808  0.00  0.00    +0.015 A 
BRANCH   4   2
ATOM      1  C   UNL     1      -5.212   3.954  25.541  0.00  0.00    +0.112 C 
ATOM      2  N   UNL     1      -5.057   3.146  25.596  0.00  0.00    -0.304 N 
ATOM      3  C   UNL     1      -5.507   2.674  26.103  0.00  0.00    +0.112 C 
ENDBRANCH   4   2
ENDBRANCH  10   7
ENDBRANCH  16  15
BRANCH  20  24
ATOM     24  N   UNL     1       2.443   0.159  22.574  0.00  0.00    -0.074 NA
BRANCH  24  25
ATOM     25  S   UNL     1       3.220   0.172  22.849  0.00  0.00    +0.083 S 
ATOM     26  O   UNL     1       3.120  -0.583  23.167  0.00  0.00    -0.151 OA
ATOM     27  O   UNL     1       3.320   0.927  22.532  0.00  0.00    -0.151 OA
BRANCH  25  28
ATOM     28  C   UNL     1       3.998   0.184  23.125  0.00  0.00    +0.153 A 
ATOM     29  C   UNL     1       4.529   0.811  23.048  0.00  0.00    +0.027 A 
ATOM     30  C   UNL     1       5.241   0.587  23.400  0.00  0.00    +0.009 A 
ATOM     31  C   UNL     1       5.148  -0.178  23.695  0.00  0.00    +0.037 A 
ATOM     32  S   UNL     1       4.381  -0.427  23.525  0.00  0.00    -0.067 S 
ENDBRANCH  25  28
ENDBRANCH  24  25
ENDBRANCH  20  24
TORSDOF 6
ENDMDL
MODEL 2
REMARK VINA RESULT:      -7.4      2.582      7.025
REMARK  Name = 
REMARK  6 active torsions:
REMARK  status: ('A' for Active; 'I' for Inactive)
REMARK    1  A    between atoms: N_2  and  C_4
REMARK    2  A    between atoms: C_7  and  C_10
REMARK    3  A    between atoms: N_15  and  C_16
REMARK    4  A    between atoms: C_20  and  N_24
REMARK    5  A    between atoms: N_24  and  S_25
REMARK    6  A    between atoms: S_25  and  C_28
REMARK                            x       y       z     vdW  Elec       q    Type
REMARK                         _______ _______ _______ _____ _____    ______ ____
ROOT
ATOM     16  C   UNL     1      -0.556   0.780  23.901  0.00  0.00    +0.154 C 
ATOM     17  C   UNL     1      -1.010   0.103  23.776  0.00  0.00    +0.166 C 
ATOM     18  O   UNL     1      -1.801   0.334  23.724  0.00  0.00    -0.350 OA
ATOM     19  C   UNL     1      -1.835   1.152  23.817  0.00  0.00    +0.164 C 
ATOM     20  C   UNL     1      -2.344   1.801  23.843  0.00  0.00    +0.157 C 
ATOM     21  C   UNL     1      -1.889   2.478  23.968  0.00  0.00    +0.164 C 
ATOM     22  O   UNL     1      -1.099   2.247  24.020  0.00  0.00    -0.350 OA
ATOM     23  C   UNL     1      -1.065   1.428  23.927  0.00  0.00    +0.166 C 
ENDROOT
BRANCH  16  15
ATOM     10  C   UNL     1       2.054   0.128  22.934  0.00  0.00    +0.086 A 
ATOM     11  C   UNL     1       1.718  -0.247  22.281  0.00  0.00    +0.040 A 
ATOM     12  C   UNL     1       0.897  -0.271  22.196  0.00  0.00    +0.103 A 
ATOM     13  N   UNL     1       0.412   0.079  22.764  0.00  0.00    -0.211 NA
ATOM     14  C   UNL     1       0.749   0.454  23.418  0.00  0.00    +0.237 A 
ATOM     15  N   UNL     1       0.265   0.804  23.987  0.00  0.00    -0.200 NA
ATOM     33  N   UNL     1       1.569   0.478  23.503  0.00  0.00    -0.212 NA
BRANCH  10   7
ATOM      4  C   UNL     1       4.515   0.200  23.189  0.00  0.00    +0.048 A 
ATOM      5  C   UNL     1       4.112   0.849  22.875  0.00  0.00    +0.015 A 
ATOM      6  C   UNL     1       3.293   0.825  22.790  0.00  0.00    +0.003 A 
ATOM      7  C   UNL     1       2.873   0.152  23.019  0.00  0.00    +0.018 A 
ATOM      8  C   UNL     1       3.275  -0.497  23.332  0.00  0.00    +0.003 A 
ATOM      9  C   UNL     1       4.095  -0.473  23.417  0.00  0.00    +0.015 A 
BRANCH   4   2
ATOM      1  C   UNL     1       5.671   0.616  23.916  0.00  0.00    +0.112 C 
ATOM      2  N   UNL     1       5.334   0.224  23.274  0.00  0.00    -0.304 N 
ATOM      3  C   UNL     1       5.818  -0.145  22.716  0.00  0.00    +0.112 C 
ENDBRANCH   4   2
ENDBRANCH  10   7
ENDBRANCH  16  15
BRANCH  20  24
ATOM     24  N   UNL     1      -3.164   1.777  23.757  0.00  0.00    -0.074 NA
BRANCH  24  25
ATOM     25  S   UNL     1      -3.642   2.263  24.222  0.00  0.00    +0.083 S 
ATOM     26  O   UNL     1      -3.649   1.689  24.814  0.00  0.00    -0.151 OA
ATOM     27  O   UNL     1      -3.635   2.837  23.629  0.00  0.00    -0.151 OA
BRANCH  25  28
ATOM     28  C   UNL     1      -4.120   2.749  24.687  0.00  0.00    +0.153 A 
ATOM     29  C   UNL     1      -4.063   3.570  24.747  0.00  0.00    +0.027 A 
ATOM     30  C   UNL     1      -4.646   3.828  25.271  0.00  0.00    +0.009 A 
ATOM     31  C   UNL     1      -5.063   3.166  25.534  0.00  0.00    +0.037 A 
ATOM     32  S   UNL     1      -4.738   2.499  25.173  0.00  0.00    -0.067 S 
ENDBRANCH  25  28
ENDBRANCH  24  25
ENDBRANCH  20  24
TORSDOF 6
ENDMDL
MODEL 3
REMARK VINA RESULT:      -6.5      3.060      6.940
REMARK  Name = 
REMARK  6 active torsions:
REMARK  status: ('A' for Active; 'I' for Inactive)
REMARK    1  A    between atoms: N_2  and  C_4
REMARK    2  A    between atoms: C_7  and  C_10
REMARK    3  A    between atoms: N_15  and  C_16
REMARK    4  A    between atoms: C_20  and  N_24
REMARK    5  A    between atoms: N_24  and  S_25
REMARK    6  A    between atoms: S_25  and  C_28
REMARK                            x       y       z     vdW  Elec       q    Type
REMARK                         _______ _______ _______ _____ _____    ______ ____
ROOT
ATOM     16  C   UNL     1      -0.230   0.776  24.041  0.00  0.00    +0.154 C 
ATOM     17  C   UNL     1      -0.676   1.168  23.468  0.00  0.00    +0.166 C 
ATOM     18  O   UNL     1      -1.471   1.001  23.607  0.00  0.00    -0.350 OA
ATOM     19  C   UNL     1      -1.518   0.506  24.264  0.00  0.00    +0.164 C 
ATOM     20  C   UNL     1      -2.038   0.097  24.757  0.00  0.00    +0.157 C 
ATOM     21  C   UNL     1      -1.592  -0.295  25.330  0.00  0.00    +0.164 C 
ATOM     22  O   UNL     1      -0.797  -0.128  25.192  0.00  0.00    -0.350 OA
ATOM     23  C   UNL     1      -0.751   0.367  24.533  0.00  0.00    +0.166 C 
ENDROOT
BRANCH  16  15
ATOM     10  C   UNL     1       2.353   0.154  22.988  0.00  0.00    +0.086 A 
ATOM     11  C   UNL     1       2.001  -0.186  22.324  0.00  0.00    +0.040 A 
ATOM     12  C   UNL     1       1.179  -0.201  22.256  0.00  0.00    +0.103 A 
ATOM     13  N   UNL     1       0.709   0.125  22.851  0.00  0.00    -0.211 NA
ATOM     14  C   UNL     1       1.062   0.465  23.515  0.00  0.00    +0.237 A 
ATOM     15  N   UNL     1       0.592   0.791  24.110  0.00  0.00    -0.200 NA
ATOM     33  N   UNL     1       1.883   0.480  23.583  0.00  0.00    -0.212 NA
BRANCH  10   7
ATOM      4  C   UNL     1       4.820   0.198  23.194  0.00  0.00    +0.048 A 
ATOM      5  C   UNL     1       4.420   0.848  22.879  0.00  0.00    +0.015 A 
ATOM      6  C   UNL     1       3.598   0.833  22.811  0.00  0.00    +0.003 A 
ATOM      7  C   UNL     1       3.175   0.169  23.057  0.00  0.00    +0.018 A 
ATOM      8  C   UNL     1       3.574  -0.481  23.371  0.00  0.00    +0.003 A 
ATOM      9  C   UNL     1       4.396  -0.467  23.439  0.00  0.00    +0.015 A 
BRANCH   4   2
ATOM      1  C   UNL     1       5.996   0.626  23.881  0.00  0.00    +0.112 C 
ATOM      2  N   UNL     1       5.641   0.212  23.262  0.00  0.00    -0.304 N 
ATOM      3  C   UNL     1       6.109  -0.187  22.712  0.00  0.00    +0.112 C 
ENDBRANCH   4   2
ENDBRANCH  10   7
ENDBRANCH  16  15
BRANCH  20  24
ATOM     24  N   UNL     1      -2.860   0.082  24.689  0.00  0.00    -0.074 NA
BRANCH  24  25
ATOM     25  S   UNL     1      -3.250  -0.632  24.550  0.00  0.00    +0.083 S 
ATOM     26  O   UNL     1      -3.325  -0.435  23.753  0.00  0.00    -0.151 OA
ATOM     27  O   UNL     1      -3.175  -0.828  25.348  0.00  0.00    -0.151 OA
BRANCH  25  28
ATOM     28  C   UNL     1      -3.640  -1.345  24.411  0.00  0.00    +0.153 A 
ATOM     29  C   UNL     1      -3.493  -2.060  24.794  0.00  0.00    +0.027 A 
ATOM     30  C   UNL     1      -4.007  -2.627  24.484  0.00  0.00    +0.009 A 
ATOM     31  C   UNL     1      -4.472  -2.260  23.910  0.00  0.00    +0.037 A 
ATOM     32  S   UNL     1      -4.246  -1.468  23.864  0.00  0.00    -0.067 S 
ENDBRANCH  25  28
ENDBRANCH  24  25
ENDBRANCH  20  24
TORSDOF 6
ENDMDL
MODEL 4
REMARK VINA RESULT:      -6.1      3.328      7.178
REMARK  Name = 
REMARK  6 active torsions:
REMARK  status: ('A' for Active; 'I' for Inactive)
REMARK    1  A    between atoms: N_2  and  C_4
REMARK    2  A    between atoms: C_7  and  C_10
REMARK    3  A    between atoms: N_15  and  C_16
REMARK    4  A    between atoms: C_20  and  N_24
REMARK    5  A    between atoms: N_24  and  S_25
REMARK    6  A    between atoms: S_25  and  C_28
REMARK                            x       y       z     vdW  Elec       q    Type
REMARK                         _______ _______ _______ _____ _____    ______ ____
ROOT
ATOM     16  C   UNL     1      -1.682   2.974  24.780  0.00  0.00    +0.154 C 
ATOM     17  C   UNL     1      -1.712   3.108  25.593  0.00  0.00    +0.166 C 
ATOM     18  O   UNL     1      -2.488   3.306  25.790  0.00  0.00    -0.350 OA
ATOM     19  C   UNL     1      -2.938   3.296  25.100  0.00  0.00    +0.164 C 
ATOM     20  C   UNL     1      -3.695   3.412  24.794  0.00  0.00    +0.157 C 
ATOM     21  C   UNL     1      -3.665   3.278  23.981  0.00  0.00    +0.164 C 
ATOM     22  O   UNL     1      -2.890   3.080  23.783  0.00  0.00    -0.350 OA
ATOM     23  C   UNL     1      -2.440   3.090  24.475  0.00  0.00    +0.166 C 
ENDROOT
BRANCH  16  15
ATOM     10  C   UNL     1       0.277   1.026  24.049  0.00  0.00    +0.086 A 
ATOM     11  C   UNL     1      -0.082   0.477  24.549  0.00  0.00    +0.040 A 
ATOM     12  C   UNL     1      -0.752   0.689  24.982  0.00  0.00    +0.103 A 
ATOM     13  N   UNL     1      -1.063   1.451  24.915  0.00  0.00    -0.211 NA
ATOM     14  C   UNL     1      -0.702   2.000  24.414  0.00  0.00    +0.237 A 
ATOM     15  N   UNL     1      -1.012   2.762  24.347  0.00  0.00    -0.200 NA
ATOM     33  N   UNL     1      -0.033   1.787  23.982  0.00  0.00    -0.212 NA
BRANCH  10   7
ATOM      4  C   UNL     1       2.287   0.388  22.753  0.00  0.00    +0.048 A 
ATOM      5  C   UNL     1       1.589  -0.047  22.675  0.00  0.00    +0.015 A 
ATOM      6  C   UNL     1       0.920   0.166  23.107  0.00  0.00    +0.003 A 
ATOM      7  C   UNL     1       0.947   0.813  23.617  0.00  0.00    +0.018 A 
ATOM      8  C   UNL     1       1.643   1.248  23.696  0.00  0.00    +0.003 A 
ATOM      9  C   UNL     1       2.313   1.035  23.263  0.00  0.00    +0.015 A 
BRANCH   4   2
ATOM      1  C   UNL     1       2.874  -0.155  21.569  0.00  0.00    +0.112 C 
ATOM      2  N   UNL     1       2.956   0.175  22.321  0.00  0.00    -0.304 N 
ATOM      3  C   UNL     1       3.708   0.292  22.639  0.00  0.00    +0.112 C 
ENDBRANCH   4   2
ENDBRANCH  10   7
ENDBRANCH  16  15
BRANCH  20  24
ATOM     24  N   UNL     1      -4.365   3.624  25.226  0.00  0.00    -0.074 NA
BRANCH  24  25
ATOM     25  S   UNL     1      -4.974   3.079  25.338  0.00  0.00    +0.083 S 
ATOM     26  O   UNL     1      -4.826   3.082  26.150  0.00  0.00    -0.151 OA
ATOM     27  O   UNL     1      -5.122   3.078  24.527  0.00  0.00    -0.151 OA
BRANCH  25  28
ATOM     28  C   UNL     1      -5.583   2.535  25.451  0.00  0.00    +0.153 A 
ATOM     29  C   UNL     1      -5.958   2.098  24.860  0.00  0.00    +0.027 A 
ATOM     30  C   UNL     1      -6.531   1.624  25.218  0.00  0.00    +0.009 A 
ATOM     31  C   UNL     1      -6.510   1.768  26.029  0.00  0.00    +0.037 A 
ATOM     32  S   UNL     1      -5.924   2.331  26.174  0.00  0.00    -0.067 S 
ENDBRANCH  25  28
ENDBRANCH  24  25
ENDBRANCH  20  24
TORSDOF 6
ENDMDL
MODEL 5
REMARK VINA RESULT:      -6.0     14.695     17.464
REMARK  Name = 
REMARK  6 active torsions:
REMARK  status: ('A' for Active; 'I' for Inactive)
REMARK    1  A    between atoms: N_2  and  C_4
REMARK    2  A    between atoms: C_7  and  C_10
REMARK    3  A    between atoms: N_15  and  C_16
REMARK    4  A    between atoms: C_20  and  N_24
REMARK    5  A    between atoms: N_24  and  S_25
REMARK    6  A    between atoms: S_25  and  C_28
REMARK                            x       y       z     vdW  Elec       q    Type
REMARK                         _______ _______ _______ _____ _____    ______ ____
ROOT
ATOM     16  C   UNL     1      11.349  -7.731  32.240  0.00  0.00    +0.154 C 
ATOM     17  C   UNL     1      11.476  -8.417  31.800  0.00  0.00    +0.166 C 
ATOM     18  O   UNL     1      10.761  -8.824  31.752  0.00  0.00    -0.350 OA
ATOM     19  C   UNL     1      10.192  -8.391  32.162  0.00  0.00    +0.164 C 
ATOM     20  C   UNL     1       9.398  -8.374  32.386  0.00  0.00    +0.157 C 
ATOM     21  C   UNL     1       9.271  -7.688  32.826  0.00  0.00    +0.164 C 
ATOM     22  O   UNL     1       9.986  -7.280  32.873  0.00  0.00    -0.350 OA
ATOM     23  C   UNL     1      10.555  -7.715  32.463  0.00  0.00    +0.166 C 
ENDROOT
BRANCH  16  15
ATOM     10  C   UNL     1      13.315  -5.834  31.399  0.00  0.00    +0.086 A 
ATOM     11  C   UNL     1      13.164  -6.027  30.611  0.00  0.00    +0.040 A 
ATOM     12  C   UNL     1      12.596  -6.597  30.427  0.00  0.00    +0.103 A 
ATOM     13  N   UNL     1      12.180  -6.975  31.031  0.00  0.00    -0.211 NA
ATOM     14  C   UNL     1      12.332  -6.782  31.820  0.00  0.00    +0.237 A 
ATOM     15  N   UNL     1      11.916  -7.160  32.424  0.00  0.00    -0.200 NA
ATOM     33  N   UNL     1      12.899  -6.212  32.003  0.00  0.00    -0.212 NA
BRANCH  10   7
ATOM      4  C   UNL     1      15.017  -4.123  31.949  0.00  0.00    +0.048 A 
ATOM      5  C   UNL     1      14.242  -4.038  32.221  0.00  0.00    +0.015 A 
ATOM      6  C   UNL     1      13.676  -4.608  32.037  0.00  0.00    +0.003 A 
ATOM      7  C   UNL     1      13.882  -5.264  31.582  0.00  0.00    +0.018 A 
ATOM      8  C   UNL     1      14.656  -5.350  31.310  0.00  0.00    +0.003 A 
ATOM      9  C   UNL     1      15.224  -4.780  31.494  0.00  0.00    +0.015 A 
BRANCH   4   2
ATOM      1  C   UNL     1      15.755  -2.953  31.593  0.00  0.00    +0.112 C 
ATOM      2  N   UNL     1      15.584  -3.553  32.132  0.00  0.00    -0.304 N 
ATOM      3  C   UNL     1      15.981  -3.583  32.855  0.00  0.00    +0.112 C 
ENDBRANCH   4   2
ENDBRANCH  10   7
ENDBRANCH  16  15
BRANCH  20  24
ATOM     24  N   UNL     1       8.831  -8.945  32.202  0.00  0.00    -0.074 NA
BRANCH  24  25
ATOM     25  S   UNL     1       8.045  -8.723  32.083  0.00  0.00    +0.083 S 
ATOM     26  O   UNL     1       7.877  -8.895  32.872  0.00  0.00    -0.151 OA
ATOM     27  O   UNL     1       8.213  -8.550  31.294  0.00  0.00    -0.151 OA
BRANCH  25  28
ATOM     28  C   UNL     1       7.259  -8.500  31.965  0.00  0.00    +0.153 A 
ATOM     29  C   UNL     1       6.906  -8.341  31.237  0.00  0.00    +0.027 A 
ATOM     30  C   UNL     1       6.117  -8.141  31.375  0.00  0.00    +0.009 A 
ATOM     31  C   UNL     1       5.984  -8.176  32.189  0.00  0.00    +0.037 A 
ATOM     32  S   UNL     1       6.690  -8.398  32.553  0.00  0.00    -0.067 S 
ENDBRANCH  25  28
ENDBRANCH  24  25
ENDBRANCH  20  24
TORSDOF 6
ENDMDL
MODEL 6
REMARK VINA RESULT:      -5.9     16.867     17.946
REMARK  Name = 
REMARK  6 active torsions:
REMARK  status: ('A' for Active; 'I' for Inactive)
REMARK    1  A    between atoms: N_2  and  C_4
REMARK    2  A    between atoms: C_7  and  C_10
REMARK    3  A    between atoms: N_15  and  C_16
REMARK    4  A    between atoms: C_20  and  N_24
REMARK    5  A    between atoms: N_24  and  S_25
REMARK    6  A    between atoms: S_25  and  C_28
REMARK                            x       y       z     vdW  Elec       q    Type
REMARK                         _______ _______ _______ _____ _____    ______ ____
ROOT
ATOM     16  C   UNL     1      15.839  -6.638  28.291  0.00  0.00    +0.154 C 
ATOM     17  C   UNL     1      16.551  -6.412  28.639  0.00  0.00    +0.166 C 
ATOM     18  O   UNL     1      17.059  -6.161  28.040  0.00  0.00    -0.350 OA
ATOM     19  C   UNL     1      16.661  -6.232  27.322  0.00  0.00    +0.164 C 
ATOM     20  C   UNL     1      16.728  -6.120  26.507  0.00  0.00    +0.157 C 
ATOM     21  C   UNL     1      16.015  -6.346  26.159  0.00  0.00    +0.164 C 
ATOM     22  O   UNL     1      15.507  -6.597  26.758  0.00  0.00    -0.350 OA
ATOM     23  C   UNL     1      15.906  -6.527  27.477  0.00  0.00    +0.166 C 
ENDROOT
BRANCH  16  15
ATOM     10  C   UNL     1      13.924  -6.410  30.401  0.00  0.00    +0.086 A 
ATOM     11  C   UNL     1      14.295  -5.721  30.663  0.00  0.00    +0.040 A 
ATOM     12  C   UNL     1      14.959  -5.433  30.266  0.00  0.00    +0.103 A 
ATOM     13  N   UNL     1      15.253  -5.835  29.608  0.00  0.00    -0.211 NA
ATOM     14  C   UNL     1      14.881  -6.524  29.346  0.00  0.00    +0.237 A 
ATOM     15  N   UNL     1      15.174  -6.926  28.688  0.00  0.00    -0.200 NA
ATOM     33  N   UNL     1      14.218  -6.811  29.743  0.00  0.00    -0.212 NA
BRANCH  10   7
ATOM      4  C   UNL     1      11.932  -7.270  31.592  0.00  0.00    +0.048 A 
ATOM      5  C   UNL     1      12.686  -7.387  31.909  0.00  0.00    +0.015 A 
ATOM      6  C   UNL     1      13.349  -7.100  31.512  0.00  0.00    +0.003 A 
ATOM      7  C   UNL     1      13.261  -6.696  30.798  0.00  0.00    +0.018 A 
ATOM      8  C   UNL     1      12.509  -6.579  30.481  0.00  0.00    +0.003 A 
ATOM      9  C   UNL     1      11.844  -6.866  30.878  0.00  0.00    +0.015 A 
BRANCH   4   2
ATOM      1  C   UNL     1      10.932  -7.118  32.600  0.00  0.00    +0.112 C 
ATOM      2  N   UNL     1      11.269  -7.557  31.988  0.00  0.00    -0.304 N 
ATOM      3  C   UNL     1      10.941  -8.283  31.774  0.00  0.00    +0.112 C 
ENDBRANCH   4   2
ENDBRANCH  10   7
ENDBRANCH  16  15
BRANCH  20  24
ATOM     24  N   UNL     1      17.392  -5.833  26.110  0.00  0.00    -0.074 NA
BRANCH  24  25
ATOM     25  S   UNL     1      17.305  -5.449  25.385  0.00  0.00    +0.083 S 
ATOM     26  O   UNL     1      17.405  -6.168  24.993  0.00  0.00    -0.151 OA
ATOM     27  O   UNL     1      17.206  -4.730  25.778  0.00  0.00    -0.151 OA
BRANCH  25  28
ATOM     28  C   UNL     1      17.219  -5.065  24.660  0.00  0.00    +0.153 A 
ATOM     29  C   UNL     1      16.943  -4.296  24.549  0.00  0.00    +0.027 A 
ATOM     30  C   UNL     1      16.947  -4.138  23.738  0.00  0.00    +0.009 A 
ATOM     31  C   UNL     1      17.225  -4.811  23.350  0.00  0.00    +0.037 A 
ATOM     32  S   UNL     1      17.393  -5.384  23.919  0.00  0.00    -0.067 S 
ENDBRANCH  25  28
ENDBRANCH  24  25
ENDBRANCH  20  24
TORSDOF 6
ENDMDL
MODEL 7
REMARK VINA RESULT:      -5.7     17.183     18.751
REMARK  Name = 
REMARK  6 active torsions:
REMARK  status: ('A' for Active; 'I' for Inactive)
REMARK    1  A    between atoms: N_2  and  C_4
REMARK    2  A    between atoms: C_7  and  C_10
REMARK    3  A    between atoms: N_15  and  C_16
REMARK    4  A    between atoms: C_20  and  N_24
REMARK    5  A    between atoms: N_24  and  S_25
REMARK    6  A    between atoms: S_25  and  C_28
REMARK                            x       y       z     vdW  Elec       q    Type
REMARK                         _______ _______ _______ _____ _____    ______ ____
ROOT
ATOM     16  C   UNL     1      16.992  -5.934  25.589  0.00  0.00    +0.154 C 
ATOM     17  C   UNL     1      17.288  -6.366  24.952  0.00  0.00    +0.166 C 
ATOM     18  O   UNL     1      17.401  -5.845  24.323  0.00  0.00    -0.350 OA
ATOM     19  C   UNL     1      17.175  -5.092  24.570  0.00  0.00    +0.164 C 
ATOM     20  C   UNL     1      17.105  -4.304  24.335  0.00  0.00    +0.157 C 
ATOM     21  C   UNL     1      16.809  -3.873  24.972  0.00  0.00    +0.164 C 
ATOM     22  O   UNL     1      16.696  -4.393  25.602  0.00  0.00    -0.350 OA
ATOM     23  C   UNL     1      16.922  -5.147  25.353  0.00  0.00    +0.166 C 
ENDROOT
BRANCH  16  15
ATOM     10  C   UNL     1      15.756  -7.948  27.198  0.00  0.00    +0.086 A 
ATOM     11  C   UNL     1      15.524  -8.350  26.516  0.00  0.00    +0.040 A 
ATOM     12  C   UNL     1      15.717  -8.048  25.772  0.00  0.00    +0.103 A 
ATOM     13  N   UNL     1      16.142  -7.343  25.711  0.00  0.00    -0.211 NA
ATOM     14  C   UNL     1      16.374  -6.941  26.394  0.00  0.00    +0.237 A 
ATOM     15  N   UNL     1      16.799  -6.237  26.333  0.00  0.00    -0.200 NA
ATOM     33  N   UNL     1      16.181  -7.244  27.136  0.00  0.00    -0.212 NA
BRANCH  10   7
ATOM      4  C   UNL     1      15.177  -8.856  29.426  0.00  0.00    +0.048 A 
ATOM      5  C   UNL     1      15.482  -9.355  28.843  0.00  0.00    +0.015 A 
ATOM      6  C   UNL     1      15.675  -9.052  28.101  0.00  0.00    +0.003 A 
ATOM      7  C   UNL     1      15.563  -8.251  27.940  0.00  0.00    +0.018 A 
ATOM      8  C   UNL     1      15.259  -7.752  28.522  0.00  0.00    +0.003 A 
ATOM      9  C   UNL     1      15.065  -8.055  29.265  0.00  0.00    +0.015 A 
BRANCH   4   2
ATOM      1  C   UNL     1      14.226  -9.048  30.475  0.00  0.00    +0.112 C 
ATOM      2  N   UNL     1      14.984  -9.159  30.169  0.00  0.00    -0.304 N 
ATOM      3  C   UNL     1      15.549  -9.572  30.606  0.00  0.00    +0.112 C 
ENDBRANCH   4   2
ENDBRANCH  10   7
ENDBRANCH  16  15
BRANCH  20  24
ATOM     24  N   UNL     1      17.298  -4.002  23.592  0.00  0.00    -0.074 NA
BRANCH  24  25
ATOM     25  S   UNL     1      16.938  -3.310  23.321  0.00  0.00    +0.083 S 
ATOM     26  O   UNL     1      17.405  -2.867  23.836  0.00  0.00    -0.151 OA
ATOM     27  O   UNL     1      16.471  -3.755  22.807  0.00  0.00    -0.151 OA
BRANCH  25  28
ATOM     28  C   UNL     1      16.578  -2.619  23.052  0.00  0.00    +0.153 A 
ATOM     29  C   UNL     1      15.784  -2.535  22.846  0.00  0.00    +0.027 A 
ATOM     30  C   UNL     1      15.664  -1.754  22.607  0.00  0.00    +0.009 A 
ATOM     31  C   UNL     1      16.384  -1.356  22.666  0.00  0.00    +0.037 A 
ATOM     32  S   UNL     1      16.950  -1.891  22.940  0.00  0.00    -0.067 S 
ENDBRANCH  25  28
ENDBRANCH  24  25
ENDBRANCH  20  24
TORSDOF 6
ENDMDL
MODEL 8
REMARK VINA RESULT:      -5.2     17.691     19.089
REMARK  Name = 
REMARK  6 active torsions:
REMARK  status: ('A' for Active; 'I' for Inactive)
REMARK    1  A    between atoms: N_2  and  C_4
REMARK    2  A    between atoms: C_7  and  C_10
REMARK    3  A    between atoms: N_15  and  C_16
REMARK    4  A    between atoms: C_20  and  N_24
REMARK    5  A    between atoms: N_24  and  S_25
REMARK    6  A    between atoms: S_25  and  C_28
REMARK                            x       y       z     vdW  Elec       q    Type
REMARK                         _______ _______ _______ _____ _____    ______ ____
ROOT
ATOM     16  C   UNL     1      16.834  -6.661  26.127  0.00  0.00    +0.154 C 
ATOM     17  C   UNL     1      17.405  -7.183  25.842  0.00  0.00    +0.166 C 
ATOM     18  O   UNL     1      17.271  -7.920  26.186  0.00  0.00    -0.350 OA
ATOM     19  C   UNL     1      16.618  -7.854  26.684  0.00  0.00    +0.164 C 
ATOM     20  C   UNL     1      16.130  -8.269  27.204  0.00  0.00    +0.157 C 
ATOM     21  C   UNL     1      15.558  -7.747  27.490  0.00  0.00    +0.164 C 
ATOM     22  O   UNL     1      15.692  -7.010  27.145  0.00  0.00    -0.350 OA
ATOM     23  C   UNL     1      16.347  -7.076  26.647  0.00  0.00    +0.166 C 
ENDROOT
BRANCH  16  15
ATOM     10  C   UNL     1      17.043  -4.565  24.195  0.00  0.00    +0.086 A 
ATOM     11  C   UNL     1      17.292  -5.111  23.629  0.00  0.00    +0.040 A 
ATOM     12  C   UNL     1      17.363  -5.909  23.829  0.00  0.00    +0.103 A 
ATOM     13  N   UNL     1      17.187  -6.160  24.595  0.00  0.00    -0.211 NA
ATOM     14  C   UNL     1      16.938  -5.612  25.161  0.00  0.00    +0.237 A 
ATOM     15  N   UNL     1      16.762  -5.863  25.927  0.00  0.00    -0.200 NA
ATOM     33  N   UNL     1      16.867  -4.816  24.961  0.00  0.00    -0.212 NA
BRANCH  10   7
ATOM      4  C   UNL     1      16.828  -2.174  23.593  0.00  0.00    +0.048 A 
ATOM      5  C   UNL     1      16.749  -2.411  24.380  0.00  0.00    +0.015 A 
ATOM      6  C   UNL     1      16.821  -3.207  24.580  0.00  0.00    +0.003 A 
ATOM      7  C   UNL     1      16.972  -3.768  23.994  0.00  0.00    +0.018 A 
ATOM      8  C   UNL     1      17.051  -3.532  23.208  0.00  0.00    +0.003 A 
ATOM      9  C   UNL     1      16.979  -2.735  23.007  0.00  0.00    +0.015 A 
BRANCH   4   2
ATOM      1  C   UNL     1      16.461  -1.163  22.653  0.00  0.00    +0.112 C 
ATOM      2  N   UNL     1      16.757  -1.377  23.393  0.00  0.00    -0.304 N 
ATOM      3  C   UNL     1      16.980  -0.794  23.932  0.00  0.00    +0.112 C 
ENDBRANCH   4   2
ENDBRANCH  10   7
ENDBRANCH  16  15
BRANCH  20  24
ATOM     24  N   UNL     1      16.202  -9.066  27.404  0.00  0.00    -0.074 NA
BRANCH  24  25
ATOM     25  S   UNL     1      15.683  -9.403  27.951  0.00  0.00    +0.083 S 
ATOM     26  O   UNL     1      15.160  -9.586  27.339  0.00  0.00    -0.151 OA
ATOM     27  O   UNL     1      16.207  -9.220  28.561  0.00  0.00    -0.151 OA
BRANCH  25  28
ATOM     28  C   UNL     1      15.164  -9.740  28.496  0.00  0.00    +0.153 A 
ATOM     29  C   UNL     1      14.681 -10.396  28.363  0.00  0.00    +0.027 A 
ATOM     30  C   UNL     1      14.254 -10.543  29.054  0.00  0.00    +0.009 A 
ATOM     31  C   UNL     1      14.474  -9.977  29.613  0.00  0.00    +0.037 A 
ATOM     32  S   UNL     1      15.036  -9.481  29.268  0.00  0.00    -0.067 S 
ENDBRANCH  25  28
ENDBRANCH  24  25
ENDBRANCH  20  24
TORSDOF 6
ENDMDL
MODEL 9
REMARK VINA RESULT:      -4.9     16.949     18.887
REMARK  Name = 
REMARK  6 active torsions:
REMARK  status: ('A' for Active; 'I' for Inactive)
REMARK    1  A    between atoms: N_2  and  C_4
REMARK    2  A    between atoms: C_7  and  C_10
REMARK    3  A    between atoms: N_15  and  C_16
REMARK    4  A    between atoms: C_20  and  N_24
REMARK    5  A    between atoms: N_24  and  S_25
REMARK    6  A    between atoms: S_25  and  C_28
REMARK                            x       y       z     vdW  Elec       q    Type
REMARK                         _______ _______ _______ _____ _____    ______ ____
ROOT
ATOM     16  C   UNL     1      17.391  -4.797  26.314  0.00  0.00    +0.154 C 
ATOM     17  C   UNL     1      17.395  -5.424  25.778  0.00  0.00    +0.166 C 
ATOM     18  O   UNL     1      17.400  -5.107  25.016  0.00  0.00    -0.350 OA
ATOM     19  C   UNL     1      17.398  -4.286  25.081  0.00  0.00    +0.164 C 
ATOM     20  C   UNL     1      17.400  -3.581  24.651  0.00  0.00    +0.157 C 
ATOM     21  C   UNL     1      17.396  -2.954  25.187  0.00  0.00    +0.164 C 
ATOM     22  O   UNL     1      17.391  -3.271  25.949  0.00  0.00    -0.350 OA
ATOM     23  C   UNL     1      17.393  -4.094  25.883  0.00  0.00    +0.166 C 
ENDROOT
BRANCH  16  15
ATOM     10  C   UNL     1      16.495  -6.116  28.686  0.00  0.00    +0.086 A 
ATOM     11  C   UNL     1      16.058  -6.644  28.228  0.00  0.00    +0.040 A 
ATOM     12  C   UNL     1      16.064  -6.579  27.405  0.00  0.00    +0.103 A 
ATOM     13  N   UNL     1      16.506  -5.985  27.041  0.00  0.00    -0.211 NA
ATOM     14  C   UNL     1      16.943  -5.456  27.500  0.00  0.00    +0.237 A 
ATOM     15  N   UNL     1      17.386  -4.863  27.136  0.00  0.00    -0.200 NA
ATOM     33  N   UNL     1      16.938  -5.522  28.322  0.00  0.00    -0.212 NA
BRANCH  10   7
ATOM      4  C   UNL     1      16.479  -6.313  31.153  0.00  0.00    +0.048 A 
ATOM      5  C   UNL     1      15.941  -5.815  30.775  0.00  0.00    +0.015 A 
ATOM      6  C   UNL     1      15.947  -5.749  29.953  0.00  0.00    +0.003 A 
ATOM      7  C   UNL     1      16.490  -6.182  29.508  0.00  0.00    +0.018 A 
ATOM      8  C   UNL     1      17.028  -6.680  29.885  0.00  0.00    +0.003 A 
ATOM      9  C   UNL     1      17.023  -6.746  30.708  0.00  0.00    +0.015 A 
BRANCH   4   2
ATOM      1  C   UNL     1      15.859  -6.779  32.353  0.00  0.00    +0.112 C 
ATOM      2  N   UNL     1      16.474  -6.379  31.975  0.00  0.00    -0.304 N 
ATOM      3  C   UNL     1      17.083  -6.046  32.420  0.00  0.00    +0.112 C 
ENDBRANCH   4   2
ENDBRANCH  10   7
ENDBRANCH  16  15
BRANCH  20  24
ATOM     24  N   UNL     1      17.405  -3.516  23.829  0.00  0.00    -0.074 NA
BRANCH  24  25
ATOM     25  S   UNL     1      16.898  -2.984  23.453  0.00  0.00    +0.083 S 
ATOM     26  O   UNL     1      16.405  -3.609  23.237  0.00  0.00    -0.151 OA
ATOM     27  O   UNL     1      17.391  -2.360  23.670  0.00  0.00    -0.151 OA
BRANCH  25  28
ATOM     28  C   UNL     1      16.390  -2.454  23.078  0.00  0.00    +0.153 A 
ATOM     29  C   UNL     1      15.610  -2.605  22.856  0.00  0.00    +0.027 A 
ATOM     30  C   UNL     1      15.309  -1.924  22.499  0.00  0.00    +0.009 A 
ATOM     31  C   UNL     1      15.905  -1.353  22.502  0.00  0.00    +0.037 A 
ATOM     32  S   UNL     1      16.572  -1.680  22.859  0.00  0.00    -0.067 S 
ENDBRANCH  25  28
ENDBRANCH  24  25
ENDBRANCH  20  24
TORSDOF 6
ENDMDL
MODEL 10
REMARK VINA RESULT:      -4.7     18.221     19.343
REMARK  Name = 
REMARK  6 active torsions:
REMARK  status: ('A' for Active; 'I' for Inactive)
REMARK    1  A    between atoms: N_2  and  C_4
REMARK    2  A    between atoms: C_7  and  C_10
REMARK    3  A    between atoms: N_15  and  C_16
REMARK    4  A    between atoms: C_20  and  N_24
REMARK    5  A    between atoms: N_24  and  S_25
REMARK    6  A    between atoms: S_25  and  C_28
REMARK                            x       y       z     vdW  Elec       q    Type
REMARK                         _______ _______ _______ _____ _____    ______ ____
ROOT
ATOM     16  C   UNL     1      16.302  -4.970  30.438  0.00  0.00    +0.154 C 
ATOM     17  C   UNL     1      15.927  -5.225  31.126  0.00  0.00    +0.166 C 
ATOM     18  O   UNL     1      15.903  -4.591  31.653  0.00  0.00    -0.350 OA
ATOM     19  C   UNL     1      16.263  -3.944  31.291  0.00  0.00    +0.164 C 
ATOM     20  C   UNL     1      16.471  -3.152  31.391  0.00  0.00    +0.157 C 
ATOM     21  C   UNL     1      16.846  -2.897  30.702  0.00  0.00    +0.164 C 
ATOM     22  O   UNL     1      16.869  -3.531  30.175  0.00  0.00    -0.350 OA
ATOM     23  C   UNL     1      16.509  -4.178  30.539  0.00  0.00    +0.166 C 
ENDROOT
BRANCH  16  15
ATOM     10  C   UNL     1      15.388  -6.834  28.473  0.00  0.00    +0.086 A 
ATOM     11  C   UNL     1      14.647  -6.853  28.835  0.00  0.00    +0.040 A 
ATOM     12  C   UNL     1      14.505  -6.396  29.507  0.00  0.00    +0.103 A 
ATOM     13  N   UNL     1      15.104  -5.920  29.818  0.00  0.00    -0.211 NA
ATOM     14  C   UNL     1      15.845  -5.902  29.455  0.00  0.00    +0.237 A 
ATOM     15  N   UNL     1      16.444  -5.427  29.765  0.00  0.00    -0.200 NA
ATOM     33  N   UNL     1      15.987  -6.359  28.783  0.00  0.00    -0.212 NA
BRANCH  10   7
ATOM      4  C   UNL     1      15.813  -8.204  26.455  0.00  0.00    +0.048 A 
ATOM      5  C   UNL     1      15.941  -8.523  27.206  0.00  0.00    +0.015 A 
ATOM      6  C   UNL     1      15.800  -8.066  27.878  0.00  0.00    +0.003 A 
ATOM      7  C   UNL     1      15.530  -7.290  27.801  0.00  0.00    +0.018 A 
ATOM      8  C   UNL     1      15.402  -6.971  27.051  0.00  0.00    +0.003 A 
ATOM      9  C   UNL     1      15.543  -7.428  26.378  0.00  0.00    +0.015 A 
BRANCH   4   2
ATOM      1  C   UNL     1      16.636  -8.533  25.335  0.00  0.00    +0.112 C 
ATOM      2  N   UNL     1      15.955  -8.660  25.783  0.00  0.00    -0.304 N 
ATOM      3  C   UNL     1      15.416  -9.244  25.559  0.00  0.00    +0.112 C 
ENDBRANCH   4   2
ENDBRANCH  10   7
ENDBRANCH  16  15
BRANCH  20  24
ATOM     24  N   UNL     1      16.329  -2.695  32.063  0.00  0.00    -0.074 NA
BRANCH  24  25
ATOM     25  S   UNL     1      16.629  -1.928  32.112  0.00  0.00    +0.083 S 
ATOM     26  O   UNL     1      15.948  -1.639  31.748  0.00  0.00    -0.151 OA
ATOM     27  O   UNL     1      17.310  -2.218  32.477  0.00  0.00    -0.151 OA
BRANCH  25  28
ATOM     28  C   UNL     1      16.928  -1.161  32.161  0.00  0.00    +0.153 A 
ATOM     29  C   UNL     1      17.077  -0.658  31.524  0.00  0.00    +0.027 A 
ATOM     30  C   UNL     1      17.372   0.052  31.824  0.00  0.00    +0.009 A 
ATOM     31  C   UNL     1      17.405  -0.013  32.646  0.00  0.00    +0.037 A 
ATOM     32  S   UNL     1      17.131  -0.763  32.854  0.00  0.00    -0.067 S 
ENDBRANCH  25  28
ENDBRANCH  24  25
ENDBRANCH  20  24
TORSDOF 6
ENDMDL
