REMARK  Name = 
REMARK  7 active torsions:
REMARK  status: ('A' for Active; 'I' for Inactive)
REMARK    1  A    between atoms: O_2  and  C_3
REMARK    2  A    between atoms: C_3  and  C_4
REMARK    3  A    between atoms: C_4  and  N_5
REMARK    4  A    between atoms: N_5  and  C_6
REMARK    5  A    between atoms: C_12  and  N_13
REMARK    6  A    between atoms: N_13  and  C_14
REMARK    7  A    between atoms: C_14  and  C_15
REMARK                            x       y       z     vdW  Elec       q    Type
REMARK                         _______ _______ _______ _____ _____    ______ ____
ROOT
ATOM      6  C   UNL     1       1.611  -0.930   0.000  0.00  0.00    +0.161 C 
ATOM      7  C   UNL     1       0.640  -0.930   0.000  0.00  0.00    +0.254 C 
ATOM      8  O   UNL     1       0.120  -1.643   0.000  0.00  0.00    -0.327 OA
ATOM      9  C   UNL     1       0.740  -1.266   0.000  0.00  0.00    +0.176 C 
ATOM     10  C   UNL     1       1.060  -0.557   0.000  0.00  0.00    +0.166 C 
ATOM     11  O   UNL     1       0.500  -0.117   0.000  0.00  0.00    -0.328 OA
ATOM     12  C   UNL     1       1.989  -0.542   0.000  0.00  0.00    +0.135 C 
ATOM     22  C   UNL     1       2.127  -1.359   0.000  0.00  0.00    +0.191 C 
ATOM     23  O   UNL     1       2.539  -2.074   0.000  0.00  0.00    -0.220 OA
ENDROOT
BRANCH   6   5
ATOM      5  N   UNL     1       1.331  -1.706   0.000  0.00  0.00    -0.209 NA
BRANCH   5   4
ATOM      4  C   UNL     1       0.519  -1.852   0.000  0.00  0.00    +0.121 C 
BRANCH   4   3
ATOM      3  C   UNL     1       0.239  -2.628   0.000  0.00  0.00    +0.161 C 
BRANCH   3   2
ATOM      1  C   UNL     1      -0.854  -3.549   0.000  0.00  0.00    +0.174 C 
ATOM      2  O   UNL     1      -0.573  -2.773   0.000  0.00  0.00    -0.350 OA
ENDBRANCH   3   2
ENDBRANCH   4   3
ENDBRANCH   5   4
ENDBRANCH   6   5
BRANCH  12  13
ATOM     13  N   UNL     1       2.517   0.093   0.000  0.00  0.00    -0.209 NA
BRANCH  13  14
ATOM     14  C   UNL     1       2.231   0.867   0.000  0.00  0.00    +0.118 C 
BRANCH  14  15
ATOM     15  C   UNL     1       2.758   1.501   0.000  0.00  0.00    +0.034 A 
ATOM     16  C   UNL     1       2.472   2.275   0.000  0.00  0.00    +0.193 A 
ATOM     17  O   UNL     1       1.659   2.414   0.000  0.00  0.00    -0.287 OA
ATOM     18  C   UNL     1       2.999   2.910   0.000  0.00  0.00    +0.042 A 
ATOM     19  C   UNL     1       3.812   2.770   0.000  0.00  0.00    +0.003 A 
ATOM     20  C   UNL     1       4.098   1.996   0.000  0.00  0.00    -0.000 A 
ATOM     21  C   UNL     1       3.571   1.362   0.000  0.00  0.00    +0.000 A 
ENDBRANCH  14  15
ENDBRANCH  13  14
ENDBRANCH  12  13
TORSDOF 7
