MODEL 1
REMARK VINA RESULT:     -13.8      0.000      0.000
REMARK  Name = 
REMARK  4 active torsions:
REMARK  status: ('A' for Active; 'I' for Inactive)
REMARK    1  A    between atoms: O_2  and  C_3
REMARK    2  A    between atoms: C_6  and  C_9
REMARK    3  A    between atoms: N_19  and  C_20
REMARK    4  A    between atoms: C_25  and  O_26
REMARK                            x       y       z     vdW  Elec       q    Type
REMARK                         _______ _______ _______ _____ _____    ______ ____
ROOT
ATOM      9  C   UNL     1      -1.946   2.022  25.021  0.00  0.00    +0.012 A 
ATOM     10  C   UNL     1      -2.748   1.909  24.865  0.00  0.00    +0.041 A 
ATOM     11  C   UNL     1      -3.506   2.382  24.648  0.00  0.00    +0.058 C 
ATOM     12  C   UNL     1      -3.731   3.035  24.521  0.00  0.00    +0.011 C 
ATOM     13  C   UNL     1      -4.046   2.284  24.546  0.00  0.00    +0.043 C 
ATOM     14  C   UNL     1      -4.604   1.469  24.526  0.00  0.00    +0.097 C 
ATOM     15  N   UNL     1      -4.025   0.898  24.718  0.00  0.00    -0.262 N 
ATOM     16  C   UNL     1      -4.059   1.603  24.625  0.00  0.00    +0.101 C 
ATOM     17  C   UNL     1      -3.697   0.157  24.877  0.00  0.00    +0.328 C 
ATOM     18  O   UNL     1      -2.893   0.091  25.055  0.00  0.00    -0.250 OA
ATOM     19  N   UNL     1      -4.172  -0.516  24.858  0.00  0.00    -0.159 NA
ATOM     28  C   UNL     1      -3.259   1.782  24.773  0.00  0.00    +0.110 C 
ATOM     29  N   UNL     1      -3.071   1.150  24.889  0.00  0.00    -0.299 N 
ATOM     30  C   UNL     1      -2.591   0.504  25.068  0.00  0.00    +0.261 A 
ATOM     31  O   UNL     1      -2.669  -0.313  25.151  0.00  0.00    -0.267 OA
ATOM     32  C   UNL     1      -1.789   0.616  25.224  0.00  0.00    +0.061 A 
ATOM     33  C   UNL     1      -1.467   1.375  25.201  0.00  0.00    +0.006 A 
ENDROOT
BRANCH   9   6
ATOM      3  C   UNL     1      -0.979   4.300  24.950  0.00  0.00    +0.139 A 
ATOM      4  C   UNL     1      -0.938   3.813  24.285  0.00  0.00    +0.037 A 
ATOM      5  C   UNL     1      -1.260   3.054  24.309  0.00  0.00    +0.003 A 
ATOM      6  C   UNL     1      -1.624   2.781  24.997  0.00  0.00    +0.001 A 
ATOM      7  C   UNL     1      -1.665   3.268  25.662  0.00  0.00    +0.003 A 
ATOM      8  C   UNL     1      -1.343   4.027  25.638  0.00  0.00    +0.037 A 
BRANCH   3   2
ATOM      1  C   UNL     1      -1.152   5.715  24.863  0.00  0.00    +0.252 C 
ATOM      2  O   UNL     1      -0.657   5.058  24.926  0.00  0.00    -0.471 OA
ENDBRANCH   3   2
ENDBRANCH   9   6
BRANCH  19  20
ATOM     20  C   UNL     1      -3.844  -1.257  25.017  0.00  0.00    +0.109 A 
ATOM     21  C   UNL     1      -3.483  -1.401  25.745  0.00  0.00    +0.020 A 
ATOM     22  C   UNL     1      -3.155  -2.141  25.903  0.00  0.00    +0.002 A 
ATOM     23  C   UNL     1      -3.189  -2.738  25.335  0.00  0.00    +0.003 A 
ATOM     24  C   UNL     1      -3.550  -2.594  24.607  0.00  0.00    +0.038 A 
ATOM     25  C   UNL     1      -3.878  -1.854  24.447  0.00  0.00    +0.154 A 
BRANCH  25  26
ATOM     26  O   UNL     1      -4.239  -1.710  23.721  0.00  0.00    -0.470 OA
ATOM     27  C   UNL     1      -4.482  -2.341  23.248  0.00  0.00    +0.253 C 
ENDBRANCH  25  26
ENDBRANCH  19  20
TORSDOF 4
ENDMDL
MODEL 2
REMARK VINA RESULT:     -13.3      1.140      5.174
REMARK  Name = 
REMARK  4 active torsions:
REMARK  status: ('A' for Active; 'I' for Inactive)
REMARK    1  A    between atoms: O_2  and  C_3
REMARK    2  A    between atoms: C_6  and  C_9
REMARK    3  A    between atoms: N_19  and  C_20
REMARK    4  A    between atoms: C_25  and  O_26
REMARK                            x       y       z     vdW  Elec       q    Type
REMARK                         _______ _______ _______ _____ _____    ______ ____
ROOT
ATOM      9  C   UNL     1      -3.234   0.373  24.693  0.00  0.00    +0.012 A 
ATOM     10  C   UNL     1      -2.450   0.496  24.921  0.00  0.00    +0.041 A 
ATOM     11  C   UNL     1      -1.670   0.034  25.071  0.00  0.00    +0.058 C 
ATOM     12  C   UNL     1      -1.404  -0.615  25.059  0.00  0.00    +0.011 C 
ATOM     13  C   UNL     1      -1.145   0.139  25.227  0.00  0.00    +0.043 C 
ATOM     14  C   UNL     1      -0.651   0.961  25.467  0.00  0.00    +0.097 C 
ATOM     15  N   UNL     1      -1.262   1.523  25.375  0.00  0.00    -0.262 N 
ATOM     16  C   UNL     1      -1.179   0.819  25.306  0.00  0.00    +0.101 C 
ATOM     17  C   UNL     1      -1.637   2.259  25.370  0.00  0.00    +0.328 C 
ATOM     18  O   UNL     1      -2.434   2.314  25.162  0.00  0.00    -0.250 OA
ATOM     19  N   UNL     1      -1.215   2.938  25.572  0.00  0.00    -0.159 NA
ATOM     28  C   UNL     1      -1.955   0.630  25.072  0.00  0.00    +0.110 C 
ATOM     29  N   UNL     1      -2.185   1.259  25.092  0.00  0.00    -0.299 N 
ATOM     30  C   UNL     1      -2.703   1.898  25.035  0.00  0.00    +0.261 A 
ATOM     31  O   UNL     1      -2.683   2.715  25.147  0.00  0.00    -0.267 OA
ATOM     32  C   UNL     1      -3.486   1.775  24.807  0.00  0.00    +0.061 A 
ATOM     33  C   UNL     1      -3.751   1.013  24.636  0.00  0.00    +0.006 A 
ENDROOT
BRANCH   9   6
ATOM      3  C   UNL     1      -4.029  -1.914  24.180  0.00  0.00    +0.139 A 
ATOM      4  C   UNL     1      -3.984  -1.659  24.963  0.00  0.00    +0.037 A 
ATOM      5  C   UNL     1      -3.719  -0.896  25.134  0.00  0.00    +0.003 A 
ATOM      6  C   UNL     1      -3.499  -0.389  24.522  0.00  0.00    +0.001 A 
ATOM      7  C   UNL     1      -3.544  -0.644  23.739  0.00  0.00    +0.003 A 
ATOM      8  C   UNL     1      -3.810  -1.406  23.568  0.00  0.00    +0.037 A 
BRANCH   3   2
ATOM      1  C   UNL     1      -3.807  -3.325  24.158  0.00  0.00    +0.252 C 
ATOM      2  O   UNL     1      -4.294  -2.675  24.010  0.00  0.00    -0.471 OA
ENDBRANCH   3   2
ENDBRANCH   9   6
BRANCH  19  20
ATOM     20  C   UNL     1      -1.589   3.673  25.567  0.00  0.00    +0.109 A 
ATOM     21  C   UNL     1      -2.255   3.801  26.038  0.00  0.00    +0.020 A 
ATOM     22  C   UNL     1      -2.629   4.536  26.032  0.00  0.00    +0.002 A 
ATOM     23  C   UNL     1      -2.339   5.143  25.556  0.00  0.00    +0.003 A 
ATOM     24  C   UNL     1      -1.673   5.016  25.085  0.00  0.00    +0.038 A 
ATOM     25  C   UNL     1      -1.298   4.281  25.090  0.00  0.00    +0.154 A 
BRANCH  25  26
ATOM     26  O   UNL     1      -0.633   4.153  24.620  0.00  0.00    -0.470 OA
ATOM     27  C   UNL     1      -0.260   4.789  24.251  0.00  0.00    +0.253 C 
ENDBRANCH  25  26
ENDBRANCH  19  20
TORSDOF 4
ENDMDL
MODEL 3
REMARK VINA RESULT:     -12.9      1.141      4.927
REMARK  Name = 
REMARK  4 active torsions:
REMARK  status: ('A' for Active; 'I' for Inactive)
REMARK    1  A    between atoms: O_2  and  C_3
REMARK    2  A    between atoms: C_6  and  C_9
REMARK    3  A    between atoms: N_19  and  C_20
REMARK    4  A    between atoms: C_25  and  O_26
REMARK                            x       y       z     vdW  Elec       q    Type
REMARK                         _______ _______ _______ _____ _____    ______ ____
ROOT
ATOM      9  C   UNL     1      -2.774  -0.063  24.974  0.00  0.00    +0.012 A 
ATOM     10  C   UNL     1      -3.358   0.504  24.836  0.00  0.00    +0.041 A 
ATOM     11  C   UNL     1      -4.259   0.574  24.669  0.00  0.00    +0.058 C 
ATOM     12  C   UNL     1      -4.835   0.182  24.587  0.00  0.00    +0.011 C 
ATOM     13  C   UNL     1      -4.638   0.972  24.577  0.00  0.00    +0.043 C 
ATOM     14  C   UNL     1      -4.598   1.959  24.528  0.00  0.00    +0.097 C 
ATOM     15  N   UNL     1      -3.783   2.074  24.669  0.00  0.00    -0.262 N 
ATOM     16  C   UNL     1      -4.237   1.527  24.618  0.00  0.00    +0.101 C 
ATOM     17  C   UNL     1      -3.069   2.474  24.775  0.00  0.00    +0.328 C 
ATOM     18  O   UNL     1      -2.377   2.051  24.924  0.00  0.00    -0.250 OA
ATOM     19  N   UNL     1      -3.048   3.297  24.731  0.00  0.00    -0.159 NA
ATOM     28  C   UNL     1      -3.695   0.909  24.751  0.00  0.00    +0.110 C 
ATOM     29  N   UNL     1      -3.161   1.305  24.825  0.00  0.00    -0.299 N 
ATOM     30  C   UNL     1      -2.380   1.540  24.953  0.00  0.00    +0.261 A 
ATOM     31  O   UNL     1      -1.950   2.243  24.990  0.00  0.00    -0.267 OA
ATOM     32  C   UNL     1      -1.797   0.974  25.091  0.00  0.00    +0.061 A 
ATOM     33  C   UNL     1      -1.994   0.172  25.101  0.00  0.00    +0.006 A 
ENDROOT
BRANCH   9   6
ATOM      3  C   UNL     1      -3.364  -2.467  25.005  0.00  0.00    +0.139 A 
ATOM      4  C   UNL     1      -3.388  -2.027  25.702  0.00  0.00    +0.037 A 
ATOM      5  C   UNL     1      -3.191  -1.226  25.692  0.00  0.00    +0.003 A 
ATOM      6  C   UNL     1      -2.971  -0.864  24.984  0.00  0.00    +0.001 A 
ATOM      7  C   UNL     1      -2.947  -1.303  24.286  0.00  0.00    +0.003 A 
ATOM      8  C   UNL     1      -3.144  -2.105  24.297  0.00  0.00    +0.037 A 
BRANCH   3   2
ATOM      1  C   UNL     1      -3.753  -3.654  24.313  0.00  0.00    +0.252 C 
ATOM      2  O   UNL     1      -3.561  -3.267  25.015  0.00  0.00    -0.471 OA
ENDBRANCH   3   2
ENDBRANCH   9   6
BRANCH  19  20
ATOM     20  C   UNL     1      -2.334   3.698  24.837  0.00  0.00    +0.109 A 
ATOM     21  C   UNL     1      -1.706   3.565  24.319  0.00  0.00    +0.020 A 
ATOM     22  C   UNL     1      -0.993   3.966  24.426  0.00  0.00    +0.002 A 
ATOM     23  C   UNL     1      -0.907   4.499  25.049  0.00  0.00    +0.003 A 
ATOM     24  C   UNL     1      -1.536   4.631  25.567  0.00  0.00    +0.038 A 
ATOM     25  C   UNL     1      -2.249   4.231  25.462  0.00  0.00    +0.154 A 
BRANCH  25  26
ATOM     26  O   UNL     1      -2.877   4.364  25.979  0.00  0.00    -0.470 OA
ATOM     27  C   UNL     1      -2.914   5.063  26.415  0.00  0.00    +0.253 C 
ENDBRANCH  25  26
ENDBRANCH  19  20
TORSDOF 4
ENDMDL
MODEL 4
REMARK VINA RESULT:     -12.0      1.042      1.963
REMARK  Name = 
REMARK  4 active torsions:
REMARK  status: ('A' for Active; 'I' for Inactive)
REMARK    1  A    between atoms: O_2  and  C_3
REMARK    2  A    between atoms: C_6  and  C_9
REMARK    3  A    between atoms: N_19  and  C_20
REMARK    4  A    between atoms: C_25  and  O_26
REMARK                            x       y       z     vdW  Elec       q    Type
REMARK                         _______ _______ _______ _____ _____    ______ ____
ROOT
ATOM      9  C   UNL     1      -1.955   2.222  24.688  0.00  0.00    +0.012 A 
ATOM     10  C   UNL     1      -1.597   1.605  25.102  0.00  0.00    +0.041 A 
ATOM     11  C   UNL     1      -0.888   1.440  25.663  0.00  0.00    +0.058 C 
ATOM     12  C   UNL     1      -0.350   1.760  25.980  0.00  0.00    +0.011 C 
ATOM     13  C   UNL     1      -0.661   1.009  25.935  0.00  0.00    +0.043 C 
ATOM     14  C   UNL     1      -0.883   0.048  26.006  0.00  0.00    +0.097 C 
ATOM     15  N   UNL     1      -1.558   0.024  25.516  0.00  0.00    -0.262 N 
ATOM     16  C   UNL     1      -1.089   0.509  25.742  0.00  0.00    +0.101 C 
ATOM     17  C   UNL     1      -2.208  -0.291  25.115  0.00  0.00    +0.328 C 
ATOM     18  O   UNL     1      -2.681   0.198  24.648  0.00  0.00    -0.250 OA
ATOM     19  N   UNL     1      -2.383  -1.094  25.182  0.00  0.00    -0.159 NA
ATOM     28  C   UNL     1      -1.404   1.172  25.349  0.00  0.00    +0.110 C 
ATOM     29  N   UNL     1      -1.909   0.843  25.058  0.00  0.00    -0.299 N 
ATOM     30  C   UNL     1      -2.580   0.697  24.601  0.00  0.00    +0.261 A 
ATOM     31  O   UNL     1      -3.060   0.056  24.404  0.00  0.00    -0.267 OA
ATOM     32  C   UNL     1      -2.938   1.314  24.187  0.00  0.00    +0.061 A 
ATOM     33  C   UNL     1      -2.626   2.076  24.230  0.00  0.00    +0.006 A 
ENDROOT
BRANCH   9   6
ATOM      3  C   UNL     1      -1.018   4.509  24.818  0.00  0.00    +0.139 A 
ATOM      4  C   UNL     1      -1.626   4.283  25.327  0.00  0.00    +0.037 A 
ATOM      5  C   UNL     1      -1.939   3.521  25.283  0.00  0.00    +0.003 A 
ATOM      6  C   UNL     1      -1.643   2.984  24.731  0.00  0.00    +0.001 A 
ATOM      7  C   UNL     1      -1.034   3.211  24.222  0.00  0.00    +0.003 A 
ATOM      8  C   UNL     1      -0.722   3.973  24.265  0.00  0.00    +0.037 A 
BRANCH   3   2
ATOM      1  C   UNL     1      -1.211   5.924  24.877  0.00  0.00    +0.252 C 
ATOM      2  O   UNL     1      -0.706   5.271  24.861  0.00  0.00    -0.471 OA
ENDBRANCH   3   2
ENDBRANCH   9   6
BRANCH  19  20
ATOM     20  C   UNL     1      -3.033  -1.409  24.782  0.00  0.00    +0.109 A 
ATOM     21  C   UNL     1      -3.778  -1.065  24.869  0.00  0.00    +0.020 A 
ATOM     22  C   UNL     1      -4.426  -1.380  24.469  0.00  0.00    +0.002 A 
ATOM     23  C   UNL     1      -4.332  -2.038  23.981  0.00  0.00    +0.003 A 
ATOM     24  C   UNL     1      -3.586  -2.383  23.894  0.00  0.00    +0.038 A 
ATOM     25  C   UNL     1      -2.937  -2.068  24.294  0.00  0.00    +0.154 A 
BRANCH  25  26
ATOM     26  O   UNL     1      -2.193  -2.412  24.208  0.00  0.00    -0.470 OA
ATOM     27  C   UNL     1      -2.122  -3.169  23.889  0.00  0.00    +0.253 C 
ENDBRANCH  25  26
ENDBRANCH  19  20
TORSDOF 4
ENDMDL
MODEL 5
REMARK VINA RESULT:     -11.9      1.962      2.705
REMARK  Name = 
REMARK  4 active torsions:
REMARK  status: ('A' for Active; 'I' for Inactive)
REMARK    1  A    between atoms: O_2  and  C_3
REMARK    2  A    between atoms: C_6  and  C_9
REMARK    3  A    between atoms: N_19  and  C_20
REMARK    4  A    between atoms: C_25  and  O_26
REMARK                            x       y       z     vdW  Elec       q    Type
REMARK                         _______ _______ _______ _____ _____    ______ ____
ROOT
ATOM      9  C   UNL     1      -4.687   1.703  25.152  0.00  0.00    +0.012 A 
ATOM     10  C   UNL     1      -4.120   1.597  24.563  0.00  0.00    +0.041 A 
ATOM     11  C   UNL     1      -3.620   2.077  23.959  0.00  0.00    +0.058 C 
ATOM     12  C   UNL     1      -3.503   2.733  23.739  0.00  0.00    +0.011 C 
ATOM     13  C   UNL     1      -3.237   1.983  23.565  0.00  0.00    +0.043 C 
ATOM     14  C   UNL     1      -2.797   1.170  23.213  0.00  0.00    +0.097 C 
ATOM     15  N   UNL     1      -3.167   0.594  23.692  0.00  0.00    -0.262 N 
ATOM     16  C   UNL     1      -3.186   1.301  23.609  0.00  0.00    +0.101 C 
ATOM     17  C   UNL     1      -3.350  -0.151  23.996  0.00  0.00    +0.328 C 
ATOM     18  O   UNL     1      -3.907  -0.224  24.601  0.00  0.00    -0.250 OA
ATOM     19  N   UNL     1      -2.978  -0.823  23.695  0.00  0.00    -0.159 NA
ATOM     28  C   UNL     1      -3.755   1.473  24.192  0.00  0.00    +0.110 C 
ATOM     29  N   UNL     1      -3.848   0.839  24.383  0.00  0.00    -0.299 N 
ATOM     30  C   UNL     1      -4.144   0.187  24.793  0.00  0.00    +0.261 A 
ATOM     31  O   UNL     1      -4.039  -0.631  24.800  0.00  0.00    -0.267 OA
ATOM     32  C   UNL     1      -4.711   0.293  25.383  0.00  0.00    +0.061 A 
ATOM     33  C   UNL     1      -4.982   1.051  25.562  0.00  0.00    +0.006 A 
ENDROOT
BRANCH   9   6
ATOM      3  C   UNL     1      -5.501   3.978  25.691  0.00  0.00    +0.139 A 
ATOM      4  C   UNL     1      -4.786   3.711  26.003  0.00  0.00    +0.037 A 
ATOM      5  C   UNL     1      -4.514   2.953  25.823  0.00  0.00    +0.003 A 
ATOM      6  C   UNL     1      -4.958   2.461  25.332  0.00  0.00    +0.001 A 
ATOM      7  C   UNL     1      -5.674   2.728  25.020  0.00  0.00    +0.003 A 
ATOM      8  C   UNL     1      -5.946   3.486  25.200  0.00  0.00    +0.037 A 
BRANCH   3   2
ATOM      1  C   UNL     1      -6.248   5.141  25.333  0.00  0.00    +0.252 C 
ATOM      2  O   UNL     1      -5.773   4.735  25.871  0.00  0.00    -0.471 OA
ENDBRANCH   3   2
ENDBRANCH   9   6
BRANCH  19  20
ATOM     20  C   UNL     1      -3.161  -1.568  23.999  0.00  0.00    +0.109 A 
ATOM     21  C   UNL     1      -3.922  -1.875  23.907  0.00  0.00    +0.020 A 
ATOM     22  C   UNL     1      -4.105  -2.619  24.211  0.00  0.00    +0.002 A 
ATOM     23  C   UNL     1      -3.529  -3.057  24.607  0.00  0.00    +0.003 A 
ATOM     24  C   UNL     1      -2.768  -2.750  24.699  0.00  0.00    +0.038 A 
ATOM     25  C   UNL     1      -2.584  -2.005  24.395  0.00  0.00    +0.154 A 
BRANCH  25  26
ATOM     26  O   UNL     1      -1.825  -1.698  24.487  0.00  0.00    -0.470 OA
ATOM     27  C   UNL     1      -1.204  -2.191  24.716  0.00  0.00    +0.253 C 
ENDBRANCH  25  26
ENDBRANCH  19  20
TORSDOF 4
ENDMDL
MODEL 6
REMARK VINA RESULT:     -11.5      1.943      3.296
REMARK  Name = 
REMARK  4 active torsions:
REMARK  status: ('A' for Active; 'I' for Inactive)
REMARK    1  A    between atoms: O_2  and  C_3
REMARK    2  A    between atoms: C_6  and  C_9
REMARK    3  A    between atoms: N_19  and  C_20
REMARK    4  A    between atoms: C_25  and  O_26
REMARK                            x       y       z     vdW  Elec       q    Type
REMARK                         _______ _______ _______ _____ _____    ______ ____
ROOT
ATOM      9  C   UNL     1      -3.609   2.149  25.084  0.00  0.00    +0.012 A 
ATOM     10  C   UNL     1      -2.831   2.385  25.221  0.00  0.00    +0.041 A 
ATOM     11  C   UNL     1      -2.343   3.119  25.482  0.00  0.00    +0.058 C 
ATOM     12  C   UNL     1      -2.418   3.789  25.675  0.00  0.00    +0.011 C 
ATOM     13  C   UNL     1      -1.810   3.258  25.569  0.00  0.00    +0.043 C 
ATOM     14  C   UNL     1      -0.953   2.772  25.497  0.00  0.00    +0.097 C 
ATOM     15  N   UNL     1      -1.236   2.025  25.250  0.00  0.00    -0.262 N 
ATOM     16  C   UNL     1      -1.506   2.663  25.417  0.00  0.00    +0.101 C 
ATOM     17  C   UNL     1      -1.217   1.234  25.015  0.00  0.00    +0.328 C 
ATOM     18  O   UNL     1      -1.920   0.840  24.838  0.00  0.00    -0.250 OA
ATOM     19  N   UNL     1      -0.496   0.838  24.959  0.00  0.00    -0.159 NA
ATOM     28  C   UNL     1      -2.311   2.486  25.296  0.00  0.00    +0.110 C 
ATOM     29  N   UNL     1      -2.212   1.849  25.114  0.00  0.00    -0.299 N 
ATOM     30  C   UNL     1      -2.372   1.078  24.870  0.00  0.00    +0.261 A 
ATOM     31  O   UNL     1      -1.951   0.389  24.701  0.00  0.00    -0.267 OA
ATOM     32  C   UNL     1      -3.150   0.842  24.734  0.00  0.00    +0.061 A 
ATOM     33  C   UNL     1      -3.769   1.377  24.841  0.00  0.00    +0.006 A 
ENDROOT
BRANCH   9   6
ATOM      3  C   UNL     1      -5.465   3.755  25.406  0.00  0.00    +0.139 A 
ATOM      4  C   UNL     1      -5.276   3.218  26.002  0.00  0.00    +0.037 A 
ATOM      5  C   UNL     1      -4.658   2.683  25.895  0.00  0.00    +0.003 A 
ATOM      6  C   UNL     1      -4.227   2.684  25.191  0.00  0.00    +0.001 A 
ATOM      7  C   UNL     1      -4.416   3.222  24.595  0.00  0.00    +0.003 A 
ATOM      8  C   UNL     1      -5.034   3.757  24.702  0.00  0.00    +0.037 A 
BRANCH   3   2
ATOM      1  C   UNL     1      -5.932   5.101  25.505  0.00  0.00    +0.252 C 
ATOM      2  O   UNL     1      -6.082   4.290  25.513  0.00  0.00    -0.471 OA
ENDBRANCH   3   2
ENDBRANCH   9   6
BRANCH  19  20
ATOM     20  C   UNL     1      -0.477   0.047  24.724  0.00  0.00    +0.109 A 
ATOM     21  C   UNL     1      -0.852  -0.528  25.183  0.00  0.00    +0.020 A 
ATOM     22  C   UNL     1      -0.833  -1.319  24.948  0.00  0.00    +0.002 A 
ATOM     23  C   UNL     1      -0.440  -1.535  24.256  0.00  0.00    +0.003 A 
ATOM     24  C   UNL     1      -0.066  -0.960  23.798  0.00  0.00    +0.038 A 
ATOM     25  C   UNL     1      -0.084  -0.169  24.031  0.00  0.00    +0.154 A 
BRANCH  25  26
ATOM     26  O   UNL     1       0.290   0.406  23.574  0.00  0.00    -0.470 OA
ATOM     27  C   UNL     1       0.863   0.187  23.023  0.00  0.00    +0.253 C 
ENDBRANCH  25  26
ENDBRANCH  19  20
TORSDOF 4
ENDMDL
MODEL 7
REMARK VINA RESULT:     -11.5      1.379      5.121
REMARK  Name = 
REMARK  4 active torsions:
REMARK  status: ('A' for Active; 'I' for Inactive)
REMARK    1  A    between atoms: O_2  and  C_3
REMARK    2  A    between atoms: C_6  and  C_9
REMARK    3  A    between atoms: N_19  and  C_20
REMARK    4  A    between atoms: C_25  and  O_26
REMARK                            x       y       z     vdW  Elec       q    Type
REMARK                         _______ _______ _______ _____ _____    ______ ____
ROOT
ATOM      9  C   UNL     1      -3.705  -0.362  24.747  0.00  0.00    +0.012 A 
ATOM     10  C   UNL     1      -3.013   0.075  24.640  0.00  0.00    +0.041 A 
ATOM     11  C   UNL     1      -2.117  -0.038  24.468  0.00  0.00    +0.058 C 
ATOM     12  C   UNL     1      -1.637  -0.538  24.354  0.00  0.00    +0.011 C 
ATOM     13  C   UNL     1      -1.661   0.275  24.399  0.00  0.00    +0.043 C 
ATOM     14  C   UNL     1      -1.488   1.248  24.414  0.00  0.00    +0.097 C 
ATOM     15  N   UNL     1      -2.261   1.525  24.571  0.00  0.00    -0.262 N 
ATOM     16  C   UNL     1      -1.934   0.899  24.480  0.00  0.00    +0.101 C 
ATOM     17  C   UNL     1      -2.873   2.061  24.711  0.00  0.00    +0.328 C 
ATOM     18  O   UNL     1      -3.640   1.786  24.840  0.00  0.00    -0.250 OA
ATOM     19  N   UNL     1      -2.717   2.871  24.721  0.00  0.00    -0.159 NA
ATOM     28  C   UNL     1      -2.596   0.403  24.578  0.00  0.00    +0.110 C 
ATOM     29  N   UNL     1      -3.034   0.898  24.684  0.00  0.00    -0.299 N 
ATOM     30  C   UNL     1      -3.746   1.286  24.835  0.00  0.00    +0.261 A 
ATOM     31  O   UNL     1      -4.016   2.060  24.923  0.00  0.00    -0.267 OA
ATOM     32  C   UNL     1      -4.438   0.850  24.942  0.00  0.00    +0.061 A 
ATOM     33  C   UNL     1      -4.417   0.026  24.898  0.00  0.00    +0.006 A 
ENDROOT
BRANCH   9   6
ATOM      3  C   UNL     1      -3.642  -2.833  24.614  0.00  0.00    +0.139 A 
ATOM      4  C   UNL     1      -3.446  -2.452  25.319  0.00  0.00    +0.037 A 
ATOM      5  C   UNL     1      -3.467  -1.629  25.363  0.00  0.00    +0.003 A 
ATOM      6  C   UNL     1      -3.684  -1.185  24.703  0.00  0.00    +0.001 A 
ATOM      7  C   UNL     1      -3.880  -1.566  23.998  0.00  0.00    +0.003 A 
ATOM      8  C   UNL     1      -3.859  -2.389  23.953  0.00  0.00    +0.037 A 
BRANCH   3   2
ATOM      1  C   UNL     1      -3.601  -4.029  23.835  0.00  0.00    +0.252 C 
ATOM      2  O   UNL     1      -3.621  -3.655  24.570  0.00  0.00    -0.471 OA
ENDBRANCH   3   2
ENDBRANCH   9   6
BRANCH  19  20
ATOM     20  C   UNL     1      -3.329   3.407  24.861  0.00  0.00    +0.109 A 
ATOM     21  C   UNL     1      -3.957   3.465  24.328  0.00  0.00    +0.020 A 
ATOM     22  C   UNL     1      -4.568   4.000  24.468  0.00  0.00    +0.002 A 
ATOM     23  C   UNL     1      -4.553   4.478  25.140  0.00  0.00    +0.003 A 
ATOM     24  C   UNL     1      -3.925   4.420  25.673  0.00  0.00    +0.038 A 
ATOM     25  C   UNL     1      -3.313   3.885  25.534  0.00  0.00    +0.154 A 
BRANCH  25  26
ATOM     26  O   UNL     1      -2.686   3.827  26.066  0.00  0.00    -0.470 OA
ATOM     27  C   UNL     1      -2.564   4.419  26.627  0.00  0.00    +0.253 C 
ENDBRANCH  25  26
ENDBRANCH  19  20
TORSDOF 4
ENDMDL
MODEL 8
REMARK VINA RESULT:     -11.2      1.857      4.217
REMARK  Name = 
REMARK  4 active torsions:
REMARK  status: ('A' for Active; 'I' for Inactive)
REMARK    1  A    between atoms: O_2  and  C_3
REMARK    2  A    between atoms: C_6  and  C_9
REMARK    3  A    between atoms: N_19  and  C_20
REMARK    4  A    between atoms: C_25  and  O_26
REMARK                            x       y       z     vdW  Elec       q    Type
REMARK                         _______ _______ _______ _____ _____    ______ ____
ROOT
ATOM      9  C   UNL     1      -1.989   0.068  25.021  0.00  0.00    +0.012 A 
ATOM     10  C   UNL     1      -2.755  -0.155  24.809  0.00  0.00    +0.041 A 
ATOM     11  C   UNL     1      -3.236  -0.892  24.546  0.00  0.00    +0.058 C 
ATOM     12  C   UNL     1      -3.164  -1.578  24.414  0.00  0.00    +0.011 C 
ATOM     13  C   UNL     1      -3.760  -1.022  24.406  0.00  0.00    +0.043 C 
ATOM     14  C   UNL     1      -4.600  -0.507  24.337  0.00  0.00    +0.097 C 
ATOM     15  N   UNL     1      -4.320   0.248  24.560  0.00  0.00    -0.262 N 
ATOM     16  C   UNL     1      -4.056  -0.408  24.475  0.00  0.00    +0.101 C 
ATOM     17  C   UNL     1      -4.335   1.055  24.730  0.00  0.00    +0.328 C 
ATOM     18  O   UNL     1      -3.644   1.442  24.962  0.00  0.00    -0.250 OA
ATOM     19  N   UNL     1      -5.042   1.476  24.670  0.00  0.00    -0.159 NA
ATOM     28  C   UNL     1      -3.265  -0.246  24.679  0.00  0.00    +0.110 C 
ATOM     29  N   UNL     1      -3.360   0.405  24.799  0.00  0.00    -0.299 N 
ATOM     30  C   UNL     1      -3.201   1.189  25.003  0.00  0.00    +0.261 A 
ATOM     31  O   UNL     1      -3.612   1.901  25.068  0.00  0.00    -0.267 OA
ATOM     32  C   UNL     1      -2.436   1.412  25.215  0.00  0.00    +0.061 A 
ATOM     33  C   UNL     1      -1.830   0.852  25.224  0.00  0.00    +0.006 A 
ENDROOT
BRANCH   9   6
ATOM      3  C   UNL     1      -0.172  -1.613  25.048  0.00  0.00    +0.139 A 
ATOM      4  C   UNL     1      -0.319  -1.175  24.365  0.00  0.00    +0.037 A 
ATOM      5  C   UNL     1      -0.925  -0.615  24.356  0.00  0.00    +0.003 A 
ATOM      6  C   UNL     1      -1.384  -0.492  25.030  0.00  0.00    +0.001 A 
ATOM      7  C   UNL     1      -1.237  -0.930  25.713  0.00  0.00    +0.003 A 
ATOM      8  C   UNL     1      -0.631  -1.490  25.722  0.00  0.00    +0.037 A 
BRANCH   3   2
ATOM      1  C   UNL     1       0.341  -2.873  25.483  0.00  0.00    +0.252 C 
ATOM      2  O   UNL     1       0.433  -2.172  25.057  0.00  0.00    -0.471 OA
ENDBRANCH   3   2
ENDBRANCH   9   6
BRANCH  19  20
ATOM     20  C   UNL     1      -5.058   2.283  24.840  0.00  0.00    +0.109 A 
ATOM     21  C   UNL     1      -4.626   2.812  24.376  0.00  0.00    +0.020 A 
ATOM     22  C   UNL     1      -4.642   3.618  24.547  0.00  0.00    +0.002 A 
ATOM     23  C   UNL     1      -5.089   3.898  25.181  0.00  0.00    +0.003 A 
ATOM     24  C   UNL     1      -5.521   3.369  25.646  0.00  0.00    +0.038 A 
ATOM     25  C   UNL     1      -5.506   2.562  25.475  0.00  0.00    +0.154 A 
BRANCH  25  26
ATOM     26  O   UNL     1      -5.937   2.034  25.939  0.00  0.00    -0.470 OA
ATOM     27  C   UNL     1      -6.490   2.317  26.481  0.00  0.00    +0.253 C 
ENDBRANCH  25  26
ENDBRANCH  19  20
TORSDOF 4
ENDMDL
MODEL 9
REMARK VINA RESULT:     -11.1      2.425      3.707
REMARK  Name = 
REMARK  4 active torsions:
REMARK  status: ('A' for Active; 'I' for Inactive)
REMARK    1  A    between atoms: O_2  and  C_3
REMARK    2  A    between atoms: C_6  and  C_9
REMARK    3  A    between atoms: N_19  and  C_20
REMARK    4  A    between atoms: C_25  and  O_26
REMARK                            x       y       z     vdW  Elec       q    Type
REMARK                         _______ _______ _______ _____ _____    ______ ____
ROOT
ATOM      9  C   UNL     1      -1.778   0.794  24.295  0.00  0.00    +0.012 A 
ATOM     10  C   UNL     1      -2.197   1.309  23.806  0.00  0.00    +0.041 A 
ATOM     11  C   UNL     1      -2.123   1.746  23.001  0.00  0.00    +0.058 C 
ATOM     12  C   UNL     1      -1.685   1.832  22.459  0.00  0.00    +0.011 C 
ATOM     13  C   UNL     1      -2.423   2.094  22.685  0.00  0.00    +0.043 C 
ATOM     14  C   UNL     1      -3.312   2.516  22.779  0.00  0.00    +0.097 C 
ATOM     15  N   UNL     1      -3.538   2.199  23.519  0.00  0.00    -0.262 N 
ATOM     16  C   UNL     1      -2.980   2.161  23.078  0.00  0.00    +0.101 C 
ATOM     17  C   UNL     1      -4.005   2.056  24.184  0.00  0.00    +0.328 C 
ATOM     18  O   UNL     1      -3.731   1.555  24.781  0.00  0.00    -0.250 OA
ATOM     19  N   UNL     1      -4.745   2.413  24.253  0.00  0.00    -0.159 NA
ATOM     28  C   UNL     1      -2.509   1.642  23.527  0.00  0.00    +0.110 C 
ATOM     29  N   UNL     1      -2.944   1.577  24.031  0.00  0.00    -0.299 N 
ATOM     30  C   UNL     1      -3.273   1.330  24.746  0.00  0.00    +0.261 A 
ATOM     31  O   UNL     1      -3.967   1.449  25.175  0.00  0.00    -0.267 OA
ATOM     32  C   UNL     1      -2.854   0.815  25.236  0.00  0.00    +0.061 A 
ATOM     33  C   UNL     1      -2.107   0.547  25.011  0.00  0.00    +0.006 A 
ENDROOT
BRANCH   9   6
ATOM      3  C   UNL     1       0.463  -0.010  23.619  0.00  0.00    +0.139 A 
ATOM      4  C   UNL     1      -0.201  -0.480  23.486  0.00  0.00    +0.037 A 
ATOM      5  C   UNL     1      -0.948  -0.212  23.711  0.00  0.00    +0.003 A 
ATOM      6  C   UNL     1      -1.031   0.526  24.070  0.00  0.00    +0.001 A 
ATOM      7  C   UNL     1      -0.367   0.996  24.204  0.00  0.00    +0.003 A 
ATOM      8  C   UNL     1       0.380   0.728  23.978  0.00  0.00    +0.037 A 
BRANCH   3   2
ATOM      1  C   UNL     1       1.558   0.006  22.703  0.00  0.00    +0.252 C 
ATOM      2  O   UNL     1       1.209  -0.277  23.394  0.00  0.00    -0.471 OA
ENDBRANCH   3   2
ENDBRANCH   9   6
BRANCH  19  20
ATOM     20  C   UNL     1      -5.212   2.269  24.918  0.00  0.00    +0.109 A 
ATOM     21  C   UNL     1      -5.490   1.507  25.071  0.00  0.00    +0.020 A 
ATOM     22  C   UNL     1      -5.956   1.365  25.736  0.00  0.00    +0.002 A 
ATOM     23  C   UNL     1      -6.146   1.982  26.248  0.00  0.00    +0.003 A 
ATOM     24  C   UNL     1      -5.868   2.744  26.096  0.00  0.00    +0.038 A 
ATOM     25  C   UNL     1      -5.401   2.888  25.431  0.00  0.00    +0.154 A 
BRANCH  25  26
ATOM     26  O   UNL     1      -5.123   3.649  25.278  0.00  0.00    -0.470 OA
ATOM     27  C   UNL     1      -5.503   4.302  25.609  0.00  0.00    +0.253 C 
ENDBRANCH  25  26
ENDBRANCH  19  20
TORSDOF 4
ENDMDL
