MODEL 1
REMARK VINA RESULT:     -10.5      0.000      0.000
REMARK  Name = 
REMARK  6 active torsions:
REMARK  status: ('A' for Active; 'I' for Inactive)
REMARK    1  A    between atoms: C_5  and  S_8
REMARK    2  A    between atoms: S_8  and  N_11
REMARK    3  A    between atoms: N_11  and  C_12
REMARK    4  A    between atoms: C_12  and  C_13
REMARK    5  A    between atoms: C_16  and  N_17
REMARK    6  A    between atoms: N_17  and  C_18
REMARK                            x       y       z     vdW  Elec       q    Type
REMARK                         _______ _______ _______ _____ _____    ______ ____
ROOT
ATOM     12  C   UNL     1      -2.613   1.018  24.814  0.00  0.00    +0.148 C 
ENDROOT
BRANCH  12  13
ATOM     13  C   UNL     1      -2.504   1.819  24.979  0.00  0.00    +0.166 C 
ATOM     14  O   UNL     1      -3.029   2.428  24.795  0.00  0.00    -0.350 OA
ATOM     15  C   UNL     1      -2.701   3.137  25.059  0.00  0.00    +0.162 C 
ATOM     16  C   UNL     1      -1.972   2.967  25.407  0.00  0.00    +0.135 C 
ATOM     23  C   UNL     1      -1.850   2.152  25.357  0.00  0.00    +0.199 C 
ATOM     24  O   UNL     1      -1.191   1.743  25.636  0.00  0.00    -0.219 OA
BRANCH  16  17
ATOM     17  N   UNL     1      -1.455   3.515  25.744  0.00  0.00    -0.216 NA
BRANCH  17  18
ATOM     18  C   UNL     1      -1.322   4.239  25.373  0.00  0.00    +0.073 C 
ATOM     19  C   UNL     1      -0.695   4.417  24.868  0.00  0.00    +0.017 C 
ATOM     20  C   UNL     1      -0.778   5.202  24.625  0.00  0.00    +0.001 C 
ATOM     21  C   UNL     1      -1.457   5.507  24.981  0.00  0.00    +0.001 C 
ATOM     22  C   UNL     1      -1.793   4.913  25.443  0.00  0.00    +0.017 C 
ENDBRANCH  17  18
ENDBRANCH  16  17
ENDBRANCH  12  13
BRANCH  12  11
ATOM     11  N   UNL     1      -3.373   0.719  24.709  0.00  0.00    -0.075 NA
BRANCH  11   8
ATOM      8  S   UNL     1      -3.487  -0.092  24.609  0.00  0.00    +0.077 S 
ATOM      9  O   UNL     1      -3.878  -0.127  25.335  0.00  0.00    -0.152 OA
ATOM     10  O   UNL     1      -3.097  -0.057  23.883  0.00  0.00    -0.152 OA
BRANCH   8   5
ATOM      1  C   UNL     1      -3.942  -3.336  24.207  0.00  0.00    +0.031 C 
ATOM      2  C   UNL     1      -3.828  -2.525  24.307  0.00  0.00    -0.022 A 
ATOM      3  C   UNL     1      -4.244  -1.989  23.837  0.00  0.00    -0.003 A 
ATOM      4  C   UNL     1      -4.130  -1.178  23.938  0.00  0.00    +0.020 A 
ATOM      5  C   UNL     1      -3.601  -0.903  24.508  0.00  0.00    +0.124 A 
ATOM      6  C   UNL     1      -3.186  -1.440  24.978  0.00  0.00    +0.020 A 
ATOM      7  C   UNL     1      -3.299  -2.250  24.877  0.00  0.00    -0.003 A 
ENDBRANCH   8   5
ENDBRANCH  11   8
ENDBRANCH  12  11
TORSDOF 6
ENDMDL
MODEL 2
REMARK VINA RESULT:     -10.3      1.140      5.678
REMARK  Name = 
REMARK  6 active torsions:
REMARK  status: ('A' for Active; 'I' for Inactive)
REMARK    1  A    between atoms: C_5  and  S_8
REMARK    2  A    between atoms: S_8  and  N_11
REMARK    3  A    between atoms: N_11  and  C_12
REMARK    4  A    between atoms: C_12  and  C_13
REMARK    5  A    between atoms: C_16  and  N_17
REMARK    6  A    between atoms: N_17  and  C_18
REMARK                            x       y       z     vdW  Elec       q    Type
REMARK                         _______ _______ _______ _____ _____    ______ ____
ROOT
ATOM     12  C   UNL     1      -2.516   1.519  24.925  0.00  0.00    +0.148 C 
ENDROOT
BRANCH  12  13
ATOM     13  C   UNL     1      -2.661   0.709  24.978  0.00  0.00    +0.166 C 
ATOM     14  O   UNL     1      -2.092   0.112  24.964  0.00  0.00    -0.350 OA
ATOM     15  C   UNL     1      -2.481  -0.613  25.032  0.00  0.00    +0.162 C 
ATOM     16  C   UNL     1      -3.291  -0.464  25.087  0.00  0.00    +0.135 C 
ATOM     23  C   UNL     1      -3.402   0.354  25.054  0.00  0.00    +0.199 C 
ATOM     24  O   UNL     1      -4.127   0.746  25.091  0.00  0.00    -0.219 OA
BRANCH  16  17
ATOM     17  N   UNL     1      -3.885  -1.031  25.163  0.00  0.00    -0.216 NA
BRANCH  17  18
ATOM     18  C   UNL     1      -3.839  -1.735  24.736  0.00  0.00    +0.073 C 
ATOM     19  C   UNL     1      -3.462  -2.427  24.980  0.00  0.00    +0.017 C 
ATOM     20  C   UNL     1      -3.552  -2.991  24.386  0.00  0.00    +0.001 C 
ATOM     21  C   UNL     1      -3.986  -2.647  23.773  0.00  0.00    +0.001 C 
ATOM     22  C   UNL     1      -4.163  -1.872  23.990  0.00  0.00    +0.017 C 
ENDBRANCH  17  18
ENDBRANCH  16  17
ENDBRANCH  12  13
BRANCH  12  11
ATOM     11  N   UNL     1      -1.749   1.808  25.023  0.00  0.00    -0.075 NA
BRANCH  11   8
ATOM      8  S   UNL     1      -1.610   2.621  25.011  0.00  0.00    +0.077 S 
ATOM      9  O   UNL     1      -1.695   2.624  24.191  0.00  0.00    -0.152 OA
ATOM     10  O   UNL     1      -1.525   2.617  25.832  0.00  0.00    -0.152 OA
BRANCH   8   5
ATOM      1  C   UNL     1      -1.052   5.873  24.966  0.00  0.00    +0.031 C 
ATOM      2  C   UNL     1      -1.192   5.060  24.978  0.00  0.00    -0.022 A 
ATOM      3  C   UNL     1      -1.912   4.769  25.256  0.00  0.00    -0.003 A 
ATOM      4  C   UNL     1      -2.052   3.956  25.267  0.00  0.00    +0.020 A 
ATOM      5  C   UNL     1      -1.471   3.434  25.000  0.00  0.00    +0.124 A 
ATOM      6  C   UNL     1      -0.751   3.725  24.722  0.00  0.00    +0.020 A 
ATOM      7  C   UNL     1      -0.611   4.539  24.711  0.00  0.00    -0.003 A 
ENDBRANCH   8   5
ENDBRANCH  11   8
ENDBRANCH  12  11
TORSDOF 6
ENDMDL
