MODEL 1
REMARK VINA RESULT:      -8.6      0.000      0.000
REMARK  Name = 
REMARK  5 active torsions:
REMARK  status: ('A' for Active; 'I' for Inactive)
REMARK    1  A    between atoms: N_2  and  C_4
REMARK    2  A    between atoms: C_7  and  C_10
REMARK    3  A    between atoms: N_15  and  C_16
REMARK    4  A    between atoms: C_20  and  N_24
REMARK    5  A    between atoms: C_25  and  C_27
REMARK                            x       y       z     vdW  Elec       q    Type
REMARK                         _______ _______ _______ _____ _____    ______ ____
ROOT
ATOM     16  C   UNL     1      -0.423   1.342  24.536  0.00  0.00    +0.154 C 
ATOM     17  C   UNL     1       0.061   1.891  24.916  0.00  0.00    +0.166 C 
ATOM     18  O   UNL     1       0.826   1.802  24.623  0.00  0.00    -0.350 OA
ATOM     19  C   UNL     1       0.816   1.199  24.061  0.00  0.00    +0.166 C 
ATOM     20  C   UNL     1       1.282   0.771  23.532  0.00  0.00    +0.154 C 
ATOM     21  C   UNL     1       0.799   0.222  23.151  0.00  0.00    +0.166 C 
ATOM     22  O   UNL     1       0.033   0.311  23.445  0.00  0.00    -0.350 OA
ATOM     23  C   UNL     1       0.044   0.915  24.007  0.00  0.00    +0.166 C 
ENDROOT
BRANCH  16  15
ATOM     10  C   UNL     1      -3.041   2.447  24.846  0.00  0.00    +0.086 A 
ATOM     11  C   UNL     1      -2.732   3.206  24.748  0.00  0.00    +0.040 A 
ATOM     12  C   UNL     1      -1.923   3.309  24.622  0.00  0.00    +0.103 A 
ATOM     13  N   UNL     1      -1.422   2.654  24.593  0.00  0.00    -0.211 NA
ATOM     14  C   UNL     1      -1.732   1.894  24.691  0.00  0.00    +0.237 A 
ATOM     15  N   UNL     1      -1.232   1.239  24.662  0.00  0.00    -0.200 NA
ATOM     33  N   UNL     1      -2.540   1.792  24.817  0.00  0.00    -0.212 NA
BRANCH  10   7
ATOM      4  C   UNL     1      -5.467   2.139  25.224  0.00  0.00    +0.048 A 
ATOM      5  C   UNL     1      -5.019   1.527  24.899  0.00  0.00    +0.015 A 
ATOM      6  C   UNL     1      -4.210   1.630  24.773  0.00  0.00    +0.003 A 
ATOM      7  C   UNL     1      -3.849   2.345  24.971  0.00  0.00    +0.018 A 
ATOM      8  C   UNL     1      -4.297   2.957  25.296  0.00  0.00    +0.003 A 
ATOM      9  C   UNL     1      -5.106   2.854  25.422  0.00  0.00    +0.015 A 
BRANCH   4   2
ATOM      1  C   UNL     1      -6.779   1.907  24.709  0.00  0.00    +0.112 C 
ATOM      2  N   UNL     1      -6.276   2.037  25.350  0.00  0.00    -0.304 N 
ATOM      3  C   UNL     1      -6.581   2.063  26.116  0.00  0.00    +0.112 C 
ENDBRANCH   4   2
ENDBRANCH  10   7
ENDBRANCH  16  15
BRANCH  20  24
ATOM     24  N   UNL     1       2.091   0.874  23.406  0.00  0.00    -0.202 NA
ATOM     25  C   UNL     1       2.545   0.252  23.111  0.00  0.00    +0.241 C 
ATOM     26  O   UNL     1       2.191  -0.474  22.941  0.00  0.00    -0.273 OA
BRANCH  25  27
ATOM     27  C   UNL     1       3.355   0.355  22.984  0.00  0.00    +0.078 C 
ATOM     28  C   UNL     1       3.896  -0.150  23.347  0.00  0.00    +0.009 C 
ATOM     29  C   UNL     1       4.705  -0.048  23.222  0.00  0.00    +0.000 C 
ATOM     30  C   UNL     1       4.972   0.561  22.732  0.00  0.00    +0.000 C 
ATOM     31  C   UNL     1       4.430   1.066  22.370  0.00  0.00    +0.000 C 
ATOM     32  C   UNL     1       3.621   0.963  22.495  0.00  0.00    +0.009 C 
ENDBRANCH  25  27
ENDBRANCH  20  24
TORSDOF 5
ENDMDL
MODEL 2
REMARK VINA RESULT:      -8.1      1.281      7.487
REMARK  Name = 
REMARK  5 active torsions:
REMARK  status: ('A' for Active; 'I' for Inactive)
REMARK    1  A    between atoms: N_2  and  C_4
REMARK    2  A    between atoms: C_7  and  C_10
REMARK    3  A    between atoms: N_15  and  C_16
REMARK    4  A    between atoms: C_20  and  N_24
REMARK    5  A    between atoms: C_25  and  C_27
REMARK                            x       y       z     vdW  Elec       q    Type
REMARK                         _______ _______ _______ _____ _____    ______ ____
ROOT
ATOM     16  C   UNL     1      -0.444   0.850  24.197  0.00  0.00    +0.154 C 
ATOM     17  C   UNL     1      -0.919   0.212  23.980  0.00  0.00    +0.166 C 
ATOM     18  O   UNL     1      -1.706   0.453  24.031  0.00  0.00    -0.350 OA
ATOM     19  C   UNL     1      -1.718   1.240  24.278  0.00  0.00    +0.166 C 
ATOM     20  C   UNL     1      -2.210   1.875  24.462  0.00  0.00    +0.154 C 
ATOM     21  C   UNL     1      -1.735   2.513  24.678  0.00  0.00    +0.166 C 
ATOM     22  O   UNL     1      -0.948   2.272  24.628  0.00  0.00    -0.350 OA
ATOM     23  C   UNL     1      -0.937   1.485  24.380  0.00  0.00    +0.166 C 
ENDROOT
BRANCH  16  15
ATOM     10  C   UNL     1       2.075   0.176  23.025  0.00  0.00    +0.086 A 
ATOM     11  C   UNL     1       1.685  -0.166  22.384  0.00  0.00    +0.040 A 
ATOM     12  C   UNL     1       0.860  -0.169  22.356  0.00  0.00    +0.103 A 
ATOM     13  N   UNL     1       0.425   0.171  22.970  0.00  0.00    -0.211 NA
ATOM     14  C   UNL     1       0.816   0.513  23.611  0.00  0.00    +0.237 A 
ATOM     15  N   UNL     1       0.381   0.853  24.225  0.00  0.00    -0.200 NA
ATOM     33  N   UNL     1       1.640   0.516  23.639  0.00  0.00    -0.212 NA
BRANCH  10   7
ATOM      4  C   UNL     1       4.549   0.183  23.108  0.00  0.00    +0.048 A 
ATOM      5  C   UNL     1       4.143   0.838  22.812  0.00  0.00    +0.015 A 
ATOM      6  C   UNL     1       3.319   0.836  22.785  0.00  0.00    +0.003 A 
ATOM      7  C   UNL     1       2.899   0.178  23.053  0.00  0.00    +0.018 A 
ATOM      8  C   UNL     1       3.303  -0.477  23.348  0.00  0.00    +0.003 A 
ATOM      9  C   UNL     1       4.128  -0.475  23.376  0.00  0.00    +0.015 A 
BRANCH   4   2
ATOM      1  C   UNL     1       5.806  -0.154  22.521  0.00  0.00    +0.112 C 
ATOM      2  N   UNL     1       5.372   0.185  23.135  0.00  0.00    -0.304 N 
ATOM      3  C   UNL     1       5.764   0.527  23.777  0.00  0.00    +0.112 C 
ENDBRANCH   4   2
ENDBRANCH  10   7
ENDBRANCH  16  15
BRANCH  20  24
ATOM     24  N   UNL     1      -3.035   1.873  24.434  0.00  0.00    -0.202 NA
ATOM     25  C   UNL     1      -3.470   2.226  25.040  0.00  0.00    +0.241 C 
ATOM     26  O   UNL     1      -3.080   2.581  25.674  0.00  0.00    -0.273 OA
BRANCH  25  27
ATOM     27  C   UNL     1      -4.294   2.223  25.012  0.00  0.00    +0.078 C 
ATOM     28  C   UNL     1      -4.712   2.931  25.086  0.00  0.00    +0.009 C 
ATOM     29  C   UNL     1      -5.536   2.929  25.059  0.00  0.00    +0.000 C 
ATOM     30  C   UNL     1      -5.943   2.218  24.957  0.00  0.00    +0.000 C 
ATOM     31  C   UNL     1      -5.526   1.511  24.883  0.00  0.00    +0.000 C 
ATOM     32  C   UNL     1      -4.701   1.513  24.911  0.00  0.00    +0.009 C 
ENDBRANCH  25  27
ENDBRANCH  20  24
TORSDOF 5
ENDMDL
MODEL 3
REMARK VINA RESULT:      -7.0     15.481     16.368
REMARK  Name = 
REMARK  5 active torsions:
REMARK  status: ('A' for Active; 'I' for Inactive)
REMARK    1  A    between atoms: N_2  and  C_4
REMARK    2  A    between atoms: C_7  and  C_10
REMARK    3  A    between atoms: N_15  and  C_16
REMARK    4  A    between atoms: C_20  and  N_24
REMARK    5  A    between atoms: C_25  and  C_27
REMARK                            x       y       z     vdW  Elec       q    Type
REMARK                         _______ _______ _______ _____ _____    ______ ____
ROOT
ATOM     16  C   UNL     1      -6.544 -10.199  14.230  0.00  0.00    +0.154 C 
ATOM     17  C   UNL     1      -5.739 -10.263  14.397  0.00  0.00    +0.166 C 
ATOM     18  O   UNL     1      -5.323 -10.140  13.695  0.00  0.00    -0.350 OA
ATOM     19  C   UNL     1      -5.870 -10.001  13.095  0.00  0.00    +0.166 C 
ATOM     20  C   UNL     1      -5.953  -9.839  12.290  0.00  0.00    +0.154 C 
ATOM     21  C   UNL     1      -6.758  -9.775  12.123  0.00  0.00    +0.166 C 
ATOM     22  O   UNL     1      -7.173  -9.898  12.825  0.00  0.00    -0.350 OA
ATOM     23  C   UNL     1      -6.625 -10.037  13.426  0.00  0.00    +0.166 C 
ENDROOT
BRANCH  16  15
ATOM     10  C   UNL     1      -7.532  -9.992  16.904  0.00  0.00    +0.086 A 
ATOM     11  C   UNL     1      -6.795  -9.721  17.156  0.00  0.00    +0.040 A 
ATOM     12  C   UNL     1      -6.179  -9.637  16.613  0.00  0.00    +0.103 A 
ATOM     13  N   UNL     1      -6.300  -9.825  15.818  0.00  0.00    -0.211 NA
ATOM     14  C   UNL     1      -7.038 -10.096  15.567  0.00  0.00    +0.237 A 
ATOM     15  N   UNL     1      -7.160 -10.283  14.773  0.00  0.00    -0.200 NA
ATOM     33  N   UNL     1      -7.654 -10.179  16.110  0.00  0.00    -0.212 NA
BRANCH  10   7
ATOM      4  C   UNL     1      -9.379 -10.242  18.533  0.00  0.00    +0.048 A 
ATOM      5  C   UNL     1      -8.754 -10.781  18.531  0.00  0.00    +0.015 A 
ATOM      6  C   UNL     1      -8.139 -10.698  17.988  0.00  0.00    +0.003 A 
ATOM      7  C   UNL     1      -8.147 -10.075  17.447  0.00  0.00    +0.018 A 
ATOM      8  C   UNL     1      -8.772  -9.536  17.448  0.00  0.00    +0.003 A 
ATOM      9  C   UNL     1      -9.388  -9.620  17.991  0.00  0.00    +0.015 A 
BRANCH   4   2
ATOM      1  C   UNL     1      -9.886 -10.781  19.754  0.00  0.00    +0.112 C 
ATOM      2  N   UNL     1      -9.995 -10.326  19.075  0.00  0.00    -0.304 N 
ATOM      3  C   UNL     1     -10.718  -9.954  18.939  0.00  0.00    +0.112 C 
ENDBRANCH   4   2
ENDBRANCH  10   7
ENDBRANCH  16  15
BRANCH  20  24
ATOM     24  N   UNL     1      -5.337  -9.755  11.747  0.00  0.00    -0.202 NA
ATOM     25  C   UNL     1      -5.455  -9.329  11.051  0.00  0.00    +0.241 C 
ATOM     26  O   UNL     1      -6.189  -8.985  10.898  0.00  0.00    -0.273 OA
BRANCH  25  27
ATOM     27  C   UNL     1      -4.839  -9.245  10.509  0.00  0.00    +0.078 C 
ATOM     28  C   UNL     1      -4.872  -9.637   9.783  0.00  0.00    +0.009 C 
ATOM     29  C   UNL     1      -4.257  -9.554   9.240  0.00  0.00    +0.000 C 
ATOM     30  C   UNL     1      -3.608  -9.077   9.424  0.00  0.00    +0.000 C 
ATOM     31  C   UNL     1      -3.575  -8.686  10.148  0.00  0.00    +0.000 C 
ATOM     32  C   UNL     1      -4.190  -8.769  10.692  0.00  0.00    +0.009 C 
ENDBRANCH  25  27
ENDBRANCH  20  24
TORSDOF 5
ENDMDL
MODEL 4
REMARK VINA RESULT:      -6.8     15.566     17.531
REMARK  Name = 
REMARK  5 active torsions:
REMARK  status: ('A' for Active; 'I' for Inactive)
REMARK    1  A    between atoms: N_2  and  C_4
REMARK    2  A    between atoms: C_7  and  C_10
REMARK    3  A    between atoms: N_15  and  C_16
REMARK    4  A    between atoms: C_20  and  N_24
REMARK    5  A    between atoms: C_25  and  C_27
REMARK                            x       y       z     vdW  Elec       q    Type
REMARK                         _______ _______ _______ _____ _____    ______ ____
ROOT
ATOM     16  C   UNL     1      -7.119 -10.297  14.633  0.00  0.00    +0.154 C 
ATOM     17  C   UNL     1      -7.841 -10.639  14.429  0.00  0.00    +0.166 C 
ATOM     18  O   UNL     1      -8.313 -10.660  15.105  0.00  0.00    -0.350 OA
ATOM     19  C   UNL     1      -7.884 -10.330  15.727  0.00  0.00    +0.166 C 
ATOM     20  C   UNL     1      -7.909 -10.138  16.529  0.00  0.00    +0.154 C 
ATOM     21  C   UNL     1      -7.188  -9.795  16.733  0.00  0.00    +0.166 C 
ATOM     22  O   UNL     1      -6.715  -9.775  16.057  0.00  0.00    -0.350 OA
ATOM     23  C   UNL     1      -7.146 -10.105  15.435  0.00  0.00    +0.166 C 
ENDROOT
BRANCH  16  15
ATOM     10  C   UNL     1      -6.115  -9.536  12.067  0.00  0.00    +0.086 A 
ATOM     11  C   UNL     1      -6.887  -9.414  11.802  0.00  0.00    +0.040 A 
ATOM     12  C   UNL     1      -7.524  -9.543  12.311  0.00  0.00    +0.103 A 
ATOM     13  N   UNL     1      -7.389  -9.794  13.085  0.00  0.00    -0.211 NA
ATOM     14  C   UNL     1      -6.617  -9.916  13.350  0.00  0.00    +0.237 A 
ATOM     15  N   UNL     1      -6.482 -10.168  14.124  0.00  0.00    -0.200 NA
ATOM     33  N   UNL     1      -5.981  -9.788  12.842  0.00  0.00    -0.212 NA
BRANCH  10   7
ATOM      4  C   UNL     1      -4.206  -9.150  10.540  0.00  0.00    +0.048 A 
ATOM      5  C   UNL     1      -4.261  -9.857  10.962  0.00  0.00    +0.015 A 
ATOM      6  C   UNL     1      -4.897  -9.986  11.471  0.00  0.00    +0.003 A 
ATOM      7  C   UNL     1      -5.480  -9.408  11.559  0.00  0.00    +0.018 A 
ATOM      8  C   UNL     1      -5.425  -8.701  11.137  0.00  0.00    +0.003 A 
ATOM      9  C   UNL     1      -4.789  -8.572  10.628  0.00  0.00    +0.015 A 
BRANCH   4   2
ATOM      1  C   UNL     1      -2.798  -9.100  10.309  0.00  0.00    +0.112 C 
ATOM      2  N   UNL     1      -3.570  -9.021  10.031  0.00  0.00    -0.304 N 
ATOM      3  C   UNL     1      -3.706  -8.813   9.245  0.00  0.00    +0.112 C 
ENDBRANCH   4   2
ENDBRANCH  10   7
ENDBRANCH  16  15
BRANCH  20  24
ATOM     24  N   UNL     1      -8.546 -10.266  17.038  0.00  0.00    -0.202 NA
ATOM     25  C   UNL     1      -8.764  -9.685  17.581  0.00  0.00    +0.241 C 
ATOM     26  O   UNL     1      -8.347  -8.974  17.615  0.00  0.00    -0.273 OA
BRANCH  25  27
ATOM     27  C   UNL     1      -9.401  -9.814  18.090  0.00  0.00    +0.078 C 
ATOM     28  C   UNL     1     -10.082  -9.352  18.023  0.00  0.00    +0.009 C 
ATOM     29  C   UNL     1     -10.719  -9.480  18.532  0.00  0.00    +0.000 C 
ATOM     30  C   UNL     1     -10.674 -10.071  19.107  0.00  0.00    +0.000 C 
ATOM     31  C   UNL     1      -9.994 -10.531  19.173  0.00  0.00    +0.000 C 
ATOM     32  C   UNL     1      -9.357 -10.403  18.664  0.00  0.00    +0.009 C 
ENDBRANCH  25  27
ENDBRANCH  20  24
TORSDOF 5
ENDMDL
MODEL 5
REMARK VINA RESULT:      -6.4     15.764     16.767
REMARK  Name = 
REMARK  5 active torsions:
REMARK  status: ('A' for Active; 'I' for Inactive)
REMARK    1  A    between atoms: N_2  and  C_4
REMARK    2  A    between atoms: C_7  and  C_10
REMARK    3  A    between atoms: N_15  and  C_16
REMARK    4  A    between atoms: C_20  and  N_24
REMARK    5  A    between atoms: C_25  and  C_27
REMARK                            x       y       z     vdW  Elec       q    Type
REMARK                         _______ _______ _______ _____ _____    ______ ____
ROOT
ATOM     16  C   UNL     1      -5.533 -10.496  13.813  0.00  0.00    +0.154 C 
ATOM     17  C   UNL     1      -4.750 -10.661  13.612  0.00  0.00    +0.166 C 
ATOM     18  O   UNL     1      -4.675 -10.578  12.795  0.00  0.00    -0.350 OA
ATOM     19  C   UNL     1      -5.409 -10.362  12.491  0.00  0.00    +0.166 C 
ATOM     20  C   UNL     1      -5.818 -10.176  11.798  0.00  0.00    +0.154 C 
ATOM     21  C   UNL     1      -6.601 -10.012  11.999  0.00  0.00    +0.166 C 
ATOM     22  O   UNL     1      -6.677 -10.095  12.816  0.00  0.00    -0.350 OA
ATOM     23  C   UNL     1      -5.940 -10.312  13.120  0.00  0.00    +0.166 C 
ENDROOT
BRANCH  16  15
ATOM     10  C   UNL     1      -5.174 -10.528  16.648  0.00  0.00    +0.086 A 
ATOM     11  C   UNL     1      -4.356 -10.508  16.545  0.00  0.00    +0.040 A 
ATOM     12  C   UNL     1      -4.036 -10.491  15.784  0.00  0.00    +0.103 A 
ATOM     13  N   UNL     1      -4.535 -10.493  15.127  0.00  0.00    -0.211 NA
ATOM     14  C   UNL     1      -5.354 -10.512  15.231  0.00  0.00    +0.237 A 
ATOM     15  N   UNL     1      -5.853 -10.514  14.574  0.00  0.00    -0.200 NA
ATOM     33  N   UNL     1      -5.673 -10.530  15.991  0.00  0.00    -0.212 NA
BRANCH  10   7
ATOM      4  C   UNL     1      -6.132 -10.580  18.930  0.00  0.00    +0.048 A 
ATOM      5  C   UNL     1      -5.340 -10.781  18.809  0.00  0.00    +0.015 A 
ATOM      6  C   UNL     1      -5.021 -10.764  18.049  0.00  0.00    +0.003 A 
ATOM      7  C   UNL     1      -5.493 -10.545  17.408  0.00  0.00    +0.018 A 
ATOM      8  C   UNL     1      -6.284 -10.344  17.528  0.00  0.00    +0.003 A 
ATOM      9  C   UNL     1      -6.603 -10.361  18.289  0.00  0.00    +0.015 A 
BRANCH   4   2
ATOM      1  C   UNL     1      -5.972 -10.432  20.342  0.00  0.00    +0.112 C 
ATOM      2  N   UNL     1      -6.450 -10.597  19.690  0.00  0.00    -0.304 N 
ATOM      3  C   UNL     1      -7.247 -10.780  19.800  0.00  0.00    +0.112 C 
ENDBRANCH   4   2
ENDBRANCH  10   7
ENDBRANCH  16  15
BRANCH  20  24
ATOM     24  N   UNL     1      -5.499 -10.159  11.037  0.00  0.00    -0.202 NA
ATOM     25  C   UNL     1      -5.827  -9.665  10.464  0.00  0.00    +0.241 C 
ATOM     26  O   UNL     1      -6.474  -9.189  10.650  0.00  0.00    -0.273 OA
BRANCH  25  27
ATOM     27  C   UNL     1      -5.507  -9.648   9.703  0.00  0.00    +0.078 C 
ATOM     28  C   UNL     1      -4.692  -9.576   9.599  0.00  0.00    +0.009 C 
ATOM     29  C   UNL     1      -4.372  -9.559   8.839  0.00  0.00    +0.000 C 
ATOM     30  C   UNL     1      -4.869  -9.613   8.182  0.00  0.00    +0.000 C 
ATOM     31  C   UNL     1      -5.683  -9.685   8.286  0.00  0.00    +0.000 C 
ATOM     32  C   UNL     1      -6.004  -9.702   9.046  0.00  0.00    +0.009 C 
ENDBRANCH  25  27
ENDBRANCH  20  24
TORSDOF 5
ENDMDL
MODEL 6
REMARK VINA RESULT:      -6.2     16.250     17.388
REMARK  Name = 
REMARK  5 active torsions:
REMARK  status: ('A' for Active; 'I' for Inactive)
REMARK    1  A    between atoms: N_2  and  C_4
REMARK    2  A    between atoms: C_7  and  C_10
REMARK    3  A    between atoms: N_15  and  C_16
REMARK    4  A    between atoms: C_20  and  N_24
REMARK    5  A    between atoms: C_25  and  C_27
REMARK                            x       y       z     vdW  Elec       q    Type
REMARK                         _______ _______ _______ _____ _____    ______ ____
ROOT
ATOM     16  C   UNL     1      -6.892 -10.417  14.021  0.00  0.00    +0.154 C 
ATOM     17  C   UNL     1      -6.128 -10.707  14.136  0.00  0.00    +0.166 C 
ATOM     18  O   UNL     1      -6.004 -10.781  14.948  0.00  0.00    -0.350 OA
ATOM     19  C   UNL     1      -6.690 -10.537  15.335  0.00  0.00    +0.166 C 
ATOM     20  C   UNL     1      -7.038 -10.432  16.075  0.00  0.00    +0.154 C 
ATOM     21  C   UNL     1      -7.801 -10.141  15.960  0.00  0.00    +0.166 C 
ATOM     22  O   UNL     1      -7.925 -10.067  15.148  0.00  0.00    -0.350 OA
ATOM     23  C   UNL     1      -7.238 -10.312  14.761  0.00  0.00    +0.166 C 
ENDROOT
BRANCH  16  15
ATOM     10  C   UNL     1      -6.771  -9.268  11.406  0.00  0.00    +0.086 A 
ATOM     11  C   UNL     1      -6.002  -9.009  11.556  0.00  0.00    +0.040 A 
ATOM     12  C   UNL     1      -5.648  -9.166  12.284  0.00  0.00    +0.103 A 
ATOM     13  N   UNL     1      -6.062  -9.583  12.863  0.00  0.00    -0.211 NA
ATOM     14  C   UNL     1      -6.831  -9.843  12.713  0.00  0.00    +0.237 A 
ATOM     15  N   UNL     1      -7.246 -10.260  13.292  0.00  0.00    -0.200 NA
ATOM     33  N   UNL     1      -7.185  -9.685  11.985  0.00  0.00    -0.212 NA
BRANCH  10   7
ATOM      4  C   UNL     1      -7.832  -8.796   9.220  0.00  0.00    +0.048 A 
ATOM      5  C   UNL     1      -8.208  -8.571   9.920  0.00  0.00    +0.015 A 
ATOM      6  C   UNL     1      -7.854  -8.728  10.648  0.00  0.00    +0.003 A 
ATOM      7  C   UNL     1      -7.124  -9.111  10.678  0.00  0.00    +0.018 A 
ATOM      8  C   UNL     1      -6.748  -9.337   9.980  0.00  0.00    +0.003 A 
ATOM      9  C   UNL     1      -7.101  -9.179   9.251  0.00  0.00    +0.015 A 
BRANCH   4   2
ATOM      1  C   UNL     1      -8.078  -7.904   8.132  0.00  0.00    +0.112 C 
ATOM      2  N   UNL     1      -8.185  -8.639   8.492  0.00  0.00    -0.304 N 
ATOM      3  C   UNL     1      -8.646  -9.215   8.124  0.00  0.00    +0.112 C 
ENDBRANCH   4   2
ENDBRANCH  10   7
ENDBRANCH  16  15
BRANCH  20  24
ATOM     24  N   UNL     1      -6.684 -10.589  16.804  0.00  0.00    -0.202 NA
ATOM     25  C   UNL     1      -6.993 -10.258  17.493  0.00  0.00    +0.241 C 
ATOM     26  O   UNL     1      -7.657  -9.769  17.454  0.00  0.00    -0.273 OA
BRANCH  25  27
ATOM     27  C   UNL     1      -6.639 -10.415  18.222  0.00  0.00    +0.078 C 
ATOM     28  C   UNL     1      -7.107 -10.584  18.880  0.00  0.00    +0.009 C 
ATOM     29  C   UNL     1      -6.754 -10.742  19.609  0.00  0.00    +0.000 C 
ATOM     30  C   UNL     1      -5.931 -10.730  19.678  0.00  0.00    +0.000 C 
ATOM     31  C   UNL     1      -5.464 -10.561  19.020  0.00  0.00    +0.000 C 
ATOM     32  C   UNL     1      -5.817 -10.404  18.291  0.00  0.00    +0.009 C 
ENDBRANCH  25  27
ENDBRANCH  20  24
TORSDOF 5
ENDMDL
MODEL 7
REMARK VINA RESULT:      -6.0     14.893     15.703
REMARK  Name = 
REMARK  5 active torsions:
REMARK  status: ('A' for Active; 'I' for Inactive)
REMARK    1  A    between atoms: N_2  and  C_4
REMARK    2  A    between atoms: C_7  and  C_10
REMARK    3  A    between atoms: N_15  and  C_16
REMARK    4  A    between atoms: C_20  and  N_24
REMARK    5  A    between atoms: C_25  and  C_27
REMARK                            x       y       z     vdW  Elec       q    Type
REMARK                         _______ _______ _______ _____ _____    ______ ____
ROOT
ATOM     16  C   UNL     1      -5.007 -10.647  14.948  0.00  0.00    +0.154 C 
ATOM     17  C   UNL     1      -4.280 -10.526  15.318  0.00  0.00    +0.166 C 
ATOM     18  O   UNL     1      -3.711 -10.418  14.731  0.00  0.00    -0.350 OA
ATOM     19  C   UNL     1      -4.086 -10.473  13.999  0.00  0.00    +0.166 C 
ATOM     20  C   UNL     1      -3.967 -10.441  13.183  0.00  0.00    +0.154 C 
ATOM     21  C   UNL     1      -4.694 -10.562  12.813  0.00  0.00    +0.166 C 
ATOM     22  O   UNL     1      -5.263 -10.670  13.400  0.00  0.00    -0.350 OA
ATOM     23  C   UNL     1      -4.887 -10.615  14.133  0.00  0.00    +0.166 C 
ENDROOT
BRANCH  16  15
ATOM     10  C   UNL     1      -6.807 -10.101  17.100  0.00  0.00    +0.086 A 
ATOM     11  C   UNL     1      -6.266  -9.566  17.417  0.00  0.00    +0.040 A 
ATOM     12  C   UNL     1      -5.545  -9.434  17.038  0.00  0.00    +0.103 A 
ATOM     13  N   UNL     1      -5.365  -9.839  16.341  0.00  0.00    -0.211 NA
ATOM     14  C   UNL     1      -5.908 -10.374  16.024  0.00  0.00    +0.237 A 
ATOM     15  N   UNL     1      -5.728 -10.778  15.328  0.00  0.00    -0.200 NA
ATOM     33  N   UNL     1      -6.628 -10.505  16.404  0.00  0.00    -0.212 NA
BRANCH  10   7
ATOM      4  C   UNL     1      -8.970 -10.493  18.239  0.00  0.00    +0.048 A 
ATOM      5  C   UNL     1      -8.261 -10.621  18.642  0.00  0.00    +0.015 A 
ATOM      6  C   UNL     1      -7.541 -10.490  18.263  0.00  0.00    +0.003 A 
ATOM      7  C   UNL     1      -7.528 -10.232  17.480  0.00  0.00    +0.018 A 
ATOM      8  C   UNL     1      -8.235 -10.103  17.076  0.00  0.00    +0.003 A 
ATOM      9  C   UNL     1      -8.957 -10.234  17.455  0.00  0.00    +0.015 A 
BRANCH   4   2
ATOM      1  C   UNL     1      -9.707 -10.780  19.428  0.00  0.00    +0.112 C 
ATOM      2  N   UNL     1      -9.690 -10.624  18.618  0.00  0.00    -0.304 N 
ATOM      3  C   UNL     1     -10.394 -10.599  18.188  0.00  0.00    +0.112 C 
ENDBRANCH   4   2
ENDBRANCH  10   7
ENDBRANCH  16  15
BRANCH  20  24
ATOM     24  N   UNL     1      -3.246 -10.310  12.803  0.00  0.00    -0.202 NA
ATOM     25  C   UNL     1      -3.227  -9.921  12.076  0.00  0.00    +0.241 C 
ATOM     26  O   UNL     1      -3.929  -9.662  11.728  0.00  0.00    -0.273 OA
BRANCH  25  27
ATOM     27  C   UNL     1      -2.506  -9.789  11.697  0.00  0.00    +0.078 C 
ATOM     28  C   UNL     1      -1.799  -9.950  12.089  0.00  0.00    +0.009 C 
ATOM     29  C   UNL     1      -1.077  -9.819  11.710  0.00  0.00    +0.000 C 
ATOM     30  C   UNL     1      -1.065  -9.527  10.938  0.00  0.00    +0.000 C 
ATOM     31  C   UNL     1      -1.773  -9.367  10.546  0.00  0.00    +0.000 C 
ATOM     32  C   UNL     1      -2.494  -9.498  10.925  0.00  0.00    +0.009 C 
ENDBRANCH  25  27
ENDBRANCH  20  24
TORSDOF 5
ENDMDL
MODEL 8
REMARK VINA RESULT:      -5.5     16.346     17.471
REMARK  Name = 
REMARK  5 active torsions:
REMARK  status: ('A' for Active; 'I' for Inactive)
REMARK    1  A    between atoms: N_2  and  C_4
REMARK    2  A    between atoms: C_7  and  C_10
REMARK    3  A    between atoms: N_15  and  C_16
REMARK    4  A    between atoms: C_20  and  N_24
REMARK    5  A    between atoms: C_25  and  C_27
REMARK                            x       y       z     vdW  Elec       q    Type
REMARK                         _______ _______ _______ _____ _____    ______ ____
ROOT
ATOM     16  C   UNL     1      -7.795 -10.191  13.484  0.00  0.00    +0.154 C 
ATOM     17  C   UNL     1      -8.611 -10.234  13.375  0.00  0.00    +0.166 C 
ATOM     18  O   UNL     1      -8.776 -10.011  12.599  0.00  0.00    -0.350 OA
ATOM     19  C   UNL     1      -8.063  -9.831  12.227  0.00  0.00    +0.166 C 
ATOM     20  C   UNL     1      -7.723  -9.582  11.518  0.00  0.00    +0.154 C 
ATOM     21  C   UNL     1      -6.907  -9.539  11.627  0.00  0.00    +0.166 C 
ATOM     22  O   UNL     1      -6.741  -9.761  12.403  0.00  0.00    -0.350 OA
ATOM     23  C   UNL     1      -7.456  -9.942  12.775  0.00  0.00    +0.166 C 
ENDROOT
BRANCH  16  15
ATOM     10  C   UNL     1      -7.540  -9.975  16.323  0.00  0.00    +0.086 A 
ATOM     11  C   UNL     1      -8.225  -9.517  16.350  0.00  0.00    +0.040 A 
ATOM     12  C   UNL     1      -8.632  -9.341  15.653  0.00  0.00    +0.103 A 
ATOM     13  N   UNL     1      -8.353  -9.624  14.930  0.00  0.00    -0.211 NA
ATOM     14  C   UNL     1      -7.667 -10.083  14.904  0.00  0.00    +0.237 A 
ATOM     15  N   UNL     1      -7.388 -10.366  14.181  0.00  0.00    -0.200 NA
ATOM     33  N   UNL     1      -7.261 -10.258  15.600  0.00  0.00    -0.212 NA
BRANCH  10   7
ATOM      4  C   UNL     1      -6.322 -10.501  18.413  0.00  0.00    +0.048 A 
ATOM      5  C   UNL     1      -5.916 -10.471  17.694  0.00  0.00    +0.015 A 
ATOM      6  C   UNL     1      -6.322 -10.296  16.998  0.00  0.00    +0.003 A 
ATOM      7  C   UNL     1      -7.134 -10.150  17.019  0.00  0.00    +0.018 A 
ATOM      8  C   UNL     1      -7.540 -10.180  17.736  0.00  0.00    +0.003 A 
ATOM      9  C   UNL     1      -7.134 -10.355  18.433  0.00  0.00    +0.015 A 
BRANCH   4   2
ATOM      1  C   UNL     1      -6.329 -10.746  19.820  0.00  0.00    +0.112 C 
ATOM      2  N   UNL     1      -5.916 -10.676  19.109  0.00  0.00    -0.304 N 
ATOM      3  C   UNL     1      -5.098 -10.781  19.095  0.00  0.00    +0.112 C 
ENDBRANCH   4   2
ENDBRANCH  10   7
ENDBRANCH  16  15
BRANCH  20  24
ATOM     24  N   UNL     1      -8.129  -9.406  10.821  0.00  0.00    -0.202 NA
ATOM     25  C   UNL     1      -7.753  -8.987  10.219  0.00  0.00    +0.241 C 
ATOM     26  O   UNL     1      -6.971  -8.742  10.312  0.00  0.00    -0.273 OA
BRANCH  25  27
ATOM     27  C   UNL     1      -8.160  -8.811   9.522  0.00  0.00    +0.078 C 
ATOM     28  C   UNL     1      -8.443  -9.422   9.045  0.00  0.00    +0.009 C 
ATOM     29  C   UNL     1      -8.849  -9.247   8.349  0.00  0.00    +0.000 C 
ATOM     30  C   UNL     1      -8.972  -8.460   8.130  0.00  0.00    +0.000 C 
ATOM     31  C   UNL     1      -8.689  -7.851   8.607  0.00  0.00    +0.000 C 
ATOM     32  C   UNL     1      -8.283  -8.025   9.304  0.00  0.00    +0.009 C 
ENDBRANCH  25  27
ENDBRANCH  20  24
TORSDOF 5
ENDMDL
