MODEL 1
REMARK VINA RESULT:     -11.2      0.000      0.000
REMARK  Name = 
REMARK  7 active torsions:
REMARK  status: ('A' for Active; 'I' for Inactive)
REMARK    1  A    between atoms: C_2  and  C_4
REMARK    2  A    between atoms: C_7  and  N_8
REMARK    3  A    between atoms: N_11  and  C_12
REMARK    4  A    between atoms: C_14  and  C_20
REMARK    5  A    between atoms: N_22  and  C_23
REMARK    6  A    between atoms: C_23  and  C_24
REMARK    7  A    between atoms: C_24  and  C_25
REMARK                            x       y       z     vdW  Elec       q    Type
REMARK                         _______ _______ _______ _____ _____    ______ ____
ROOT
ATOM     12  C   UNL     1      -5.077   1.919  25.049  0.00  0.00    +0.152 C 
ATOM     13  C   UNL     1      -4.460   2.380  24.753  0.00  0.00    -0.002 C 
ATOM     14  C   UNL     1      -4.342   3.145  25.040  0.00  0.00    +0.033 C 
ATOM     15  C   UNL     1      -4.841   3.448  25.623  0.00  0.00    +0.066 C 
ATOM     16  C   UNL     1      -5.459   2.987  25.919  0.00  0.00    +0.189 C 
ATOM     17  O   UNL     1      -5.957   3.290  26.501  0.00  0.00    -0.220 OA
ATOM     18  C   UNL     1      -5.577   2.223  25.632  0.00  0.00    +0.206 C 
ATOM     19  O   UNL     1      -6.194   1.762  25.927  0.00  0.00    -0.218 OA
ENDROOT
BRANCH  12  11
ATOM      8  N   UNL     1      -4.702  -0.163  24.512  0.00  0.00    -0.161 NA
ATOM      9  C   UNL     1      -4.584   0.601  24.799  0.00  0.00    +0.344 C 
ATOM     10  O   UNL     1      -3.855   0.813  25.122  0.00  0.00    -0.249 OA
ATOM     11  N   UNL     1      -5.195   1.155  24.762  0.00  0.00    -0.181 NA
BRANCH   8   7
ATOM      4  C   UNL     1      -2.869  -1.822  24.621  0.00  0.00    +0.035 A 
ATOM      5  C   UNL     1      -3.048  -1.452  23.906  0.00  0.00    +0.004 A 
ATOM      6  C   UNL     1      -3.659  -0.899  23.869  0.00  0.00    +0.017 A 
ATOM      7  C   UNL     1      -4.092  -0.716  24.548  0.00  0.00    +0.075 A 
ATOM     28  C   UNL     1      -3.912  -1.086  25.264  0.00  0.00    +0.017 A 
ATOM     29  C   UNL     1      -3.302  -1.639  25.300  0.00  0.00    +0.004 A 
BRANCH   4   2
ATOM      1  C   UNL     1      -1.482  -2.126  24.779  0.00  0.00    +0.077 C 
ATOM      2  C   UNL     1      -2.258  -2.376  24.658  0.00  0.00    +0.173 C 
ATOM      3  O   UNL     1      -2.425  -3.179  24.575  0.00  0.00    -0.291 OA
ENDBRANCH   4   2
ENDBRANCH   8   7
ENDBRANCH  12  11
BRANCH  14  20
ATOM     20  C   UNL     1      -3.725   3.605  24.745  0.00  0.00    +0.261 C 
ATOM     21  O   UNL     1      -3.778   3.928  23.987  0.00  0.00    -0.269 OA
ATOM     22  N   UNL     1      -3.055   3.743  25.206  0.00  0.00    -0.201 NA
BRANCH  22  23
ATOM     23  C   UNL     1      -2.437   4.204  24.911  0.00  0.00    +0.125 C 
BRANCH  23  24
ATOM     24  C   UNL     1      -1.784   4.371  25.385  0.00  0.00    +0.112 C 
BRANCH  24  25
ATOM     25  C   UNL     1      -1.137   4.773  25.069  0.00  0.00    +0.263 C 
ATOM     26  N   UNL     1      -0.481   4.351  24.798  0.00  0.00    -0.088 NA
ATOM     27  O   UNL     1      -1.145   5.597  25.023  0.00  0.00    -0.272 OA
ENDBRANCH  24  25
ENDBRANCH  23  24
ENDBRANCH  22  23
ENDBRANCH  14  20
TORSDOF 7
ENDMDL
MODEL 2
REMARK VINA RESULT:     -10.7      1.869      3.426
REMARK  Name = 
REMARK  7 active torsions:
REMARK  status: ('A' for Active; 'I' for Inactive)
REMARK    1  A    between atoms: C_2  and  C_4
REMARK    2  A    between atoms: C_7  and  N_8
REMARK    3  A    between atoms: N_11  and  C_12
REMARK    4  A    between atoms: C_14  and  C_20
REMARK    5  A    between atoms: N_22  and  C_23
REMARK    6  A    between atoms: C_23  and  C_24
REMARK    7  A    between atoms: C_24  and  C_25
REMARK                            x       y       z     vdW  Elec       q    Type
REMARK                         _______ _______ _______ _____ _____    ______ ____
ROOT
ATOM     12  C   UNL     1      -1.058   1.956  25.313  0.00  0.00    +0.152 C 
ATOM     13  C   UNL     1      -1.740   2.352  25.556  0.00  0.00    -0.002 C 
ATOM     14  C   UNL     1      -1.870   3.132  25.321  0.00  0.00    +0.033 C 
ATOM     15  C   UNL     1      -1.318   3.516  24.844  0.00  0.00    +0.066 C 
ATOM     16  C   UNL     1      -0.636   3.121  24.600  0.00  0.00    +0.189 C 
ATOM     17  O   UNL     1      -0.085   3.505  24.123  0.00  0.00    -0.220 OA
ATOM     18  C   UNL     1      -0.506   2.341  24.835  0.00  0.00    +0.206 C 
ATOM     19  O   UNL     1       0.176   1.945  24.592  0.00  0.00    -0.218 OA
ENDROOT
BRANCH  12  11
ATOM      8  N   UNL     1      -1.331  -0.195  25.563  0.00  0.00    -0.161 NA
ATOM      9  C   UNL     1      -1.461   0.585  25.328  0.00  0.00    +0.344 C 
ATOM     10  O   UNL     1      -2.123   0.775  24.875  0.00  0.00    -0.249 OA
ATOM     11  N   UNL     1      -0.928   1.176  25.547  0.00  0.00    -0.181 NA
BRANCH   8   7
ATOM      4  C   UNL     1      -2.928  -1.968  24.905  0.00  0.00    +0.035 A 
ATOM      5  C   UNL     1      -2.225  -1.871  24.486  0.00  0.00    +0.004 A 
ATOM      6  C   UNL     1      -1.692  -1.280  24.705  0.00  0.00    +0.017 A 
ATOM      7  C   UNL     1      -1.863  -0.786  25.344  0.00  0.00    +0.075 A 
ATOM     28  C   UNL     1      -2.567  -0.883  25.763  0.00  0.00    +0.017 A 
ATOM     29  C   UNL     1      -3.100  -1.473  25.544  0.00  0.00    +0.004 A 
BRANCH   4   2
ATOM      1  C   UNL     1      -3.968  -2.441  24.047  0.00  0.00    +0.077 C 
ATOM      2  C   UNL     1      -3.461  -2.558  24.687  0.00  0.00    +0.173 C 
ATOM      3  O   UNL     1      -3.487  -3.267  25.109  0.00  0.00    -0.291 OA
ENDBRANCH   4   2
ENDBRANCH   8   7
ENDBRANCH  12  11
BRANCH  14  20
ATOM     20  C   UNL     1      -2.551   3.527  25.564  0.00  0.00    +0.261 C 
ATOM     21  O   UNL     1      -2.496   4.156  26.096  0.00  0.00    -0.269 OA
ATOM     22  N   UNL     1      -3.289   3.294  25.277  0.00  0.00    -0.201 NA
BRANCH  22  23
ATOM     23  C   UNL     1      -3.971   3.689  25.520  0.00  0.00    +0.125 C 
BRANCH  23  24
ATOM     24  C   UNL     1      -4.703   3.485  25.200  0.00  0.00    +0.112 C 
BRANCH  24  25
ATOM     25  C   UNL     1      -5.387   3.561  25.653  0.00  0.00    +0.263 C 
ATOM     26  N   UNL     1      -5.686   2.911  26.063  0.00  0.00    -0.088 NA
ATOM     27  O   UNL     1      -5.774   4.290  25.697  0.00  0.00    -0.272 OA
ENDBRANCH  24  25
ENDBRANCH  23  24
ENDBRANCH  22  23
ENDBRANCH  14  20
TORSDOF 7
ENDMDL
MODEL 3
REMARK VINA RESULT:     -10.3      1.403      1.840
REMARK  Name = 
REMARK  7 active torsions:
REMARK  status: ('A' for Active; 'I' for Inactive)
REMARK    1  A    between atoms: C_2  and  C_4
REMARK    2  A    between atoms: C_7  and  N_8
REMARK    3  A    between atoms: N_11  and  C_12
REMARK    4  A    between atoms: C_14  and  C_20
REMARK    5  A    between atoms: N_22  and  C_23
REMARK    6  A    between atoms: C_23  and  C_24
REMARK    7  A    between atoms: C_24  and  C_25
REMARK                            x       y       z     vdW  Elec       q    Type
REMARK                         _______ _______ _______ _____ _____    ______ ____
ROOT
ATOM     12  C   UNL     1      -4.130   2.391  24.949  0.00  0.00    +0.152 C 
ATOM     13  C   UNL     1      -3.430   2.551  25.354  0.00  0.00    -0.002 C 
ATOM     14  C   UNL     1      -3.018   3.250  25.207  0.00  0.00    +0.033 C 
ATOM     15  C   UNL     1      -3.307   3.791  24.655  0.00  0.00    +0.066 C 
ATOM     16  C   UNL     1      -4.007   3.632  24.249  0.00  0.00    +0.189 C 
ATOM     17  O   UNL     1      -4.296   4.172  23.698  0.00  0.00    -0.220 OA
ATOM     18  C   UNL     1      -4.419   2.933  24.396  0.00  0.00    +0.206 C 
ATOM     19  O   UNL     1      -5.120   2.773  23.991  0.00  0.00    -0.218 OA
ENDROOT
BRANCH  12  11
ATOM      8  N   UNL     1      -4.594   0.264  25.100  0.00  0.00    -0.161 NA
ATOM      9  C   UNL     1      -4.182   0.964  24.953  0.00  0.00    +0.344 C 
ATOM     10  O   UNL     1      -3.410   0.935  24.664  0.00  0.00    -0.249 OA
ATOM     11  N   UNL     1      -4.542   1.693  25.095  0.00  0.00    -0.181 NA
BRANCH   8   7
ATOM      4  C   UNL     1      -3.512  -1.921  24.673  0.00  0.00    +0.035 A 
ATOM      5  C   UNL     1      -3.448  -1.567  25.415  0.00  0.00    +0.004 A 
ATOM      6  C   UNL     1      -3.809  -0.839  25.558  0.00  0.00    +0.017 A 
ATOM      7  C   UNL     1      -4.234  -0.464  24.957  0.00  0.00    +0.075 A 
ATOM     28  C   UNL     1      -4.297  -0.818  24.215  0.00  0.00    +0.017 A 
ATOM     29  C   UNL     1      -3.937  -1.546  24.072  0.00  0.00    +0.004 A 
BRANCH   4   2
ATOM      1  C   UNL     1      -2.349  -2.684  24.346  0.00  0.00    +0.077 C 
ATOM      2  C   UNL     1      -3.152  -2.649  24.530  0.00  0.00    +0.173 C 
ATOM      3  O   UNL     1      -3.596  -3.344  24.571  0.00  0.00    -0.291 OA
ENDBRANCH   4   2
ENDBRANCH   8   7
ENDBRANCH  12  11
BRANCH  14  20
ATOM     20  C   UNL     1      -2.318   3.409  25.612  0.00  0.00    +0.261 C 
ATOM     21  O   UNL     1      -2.330   3.882  26.289  0.00  0.00    -0.269 OA
ATOM     22  N   UNL     1      -1.604   3.095  25.342  0.00  0.00    -0.201 NA
BRANCH  22  23
ATOM     23  C   UNL     1      -0.902   3.254  25.747  0.00  0.00    +0.125 C 
BRANCH  23  24
ATOM     24  C   UNL     1      -0.175   3.122  25.382  0.00  0.00    +0.112 C 
BRANCH  24  25
ATOM     25  C   UNL     1       0.340   2.554  25.682  0.00  0.00    +0.263 C 
ATOM     26  N   UNL     1       0.581   1.923  25.208  0.00  0.00    -0.088 NA
ATOM     27  O   UNL     1       0.617   2.616  26.458  0.00  0.00    -0.272 OA
ENDBRANCH  24  25
ENDBRANCH  23  24
ENDBRANCH  22  23
ENDBRANCH  14  20
TORSDOF 7
ENDMDL
MODEL 4
REMARK VINA RESULT:      -9.6      2.073      4.940
REMARK  Name = 
REMARK  7 active torsions:
REMARK  status: ('A' for Active; 'I' for Inactive)
REMARK    1  A    between atoms: C_2  and  C_4
REMARK    2  A    between atoms: C_7  and  N_8
REMARK    3  A    between atoms: N_11  and  C_12
REMARK    4  A    between atoms: C_14  and  C_20
REMARK    5  A    between atoms: N_22  and  C_23
REMARK    6  A    between atoms: C_23  and  C_24
REMARK    7  A    between atoms: C_24  and  C_25
REMARK                            x       y       z     vdW  Elec       q    Type
REMARK                         _______ _______ _______ _____ _____    ______ ____
ROOT
ATOM     12  C   UNL     1      -3.312  -1.064  24.374  0.00  0.00    +0.152 C 
ATOM     13  C   UNL     1      -2.535  -0.788  24.376  0.00  0.00    -0.002 C 
ATOM     14  C   UNL     1      -1.921  -1.284  24.615  0.00  0.00    +0.033 C 
ATOM     15  C   UNL     1      -2.084  -2.057  24.852  0.00  0.00    +0.066 C 
ATOM     16  C   UNL     1      -2.861  -2.334  24.851  0.00  0.00    +0.189 C 
ATOM     17  O   UNL     1      -3.024  -3.107  25.088  0.00  0.00    -0.220 OA
ATOM     18  C   UNL     1      -3.475  -1.838  24.612  0.00  0.00    +0.206 C 
ATOM     19  O   UNL     1      -4.252  -2.114  24.611  0.00  0.00    -0.218 OA
ENDROOT
BRANCH  12  11
ATOM      8  N   UNL     1      -4.636   0.667  24.253  0.00  0.00    -0.161 NA
ATOM      9  C   UNL     1      -4.022   0.170  24.492  0.00  0.00    +0.344 C 
ATOM     10  O   UNL     1      -3.503   0.412  25.086  0.00  0.00    -0.249 OA
ATOM     11  N   UNL     1      -3.926  -0.569  24.136  0.00  0.00    -0.181 NA
BRANCH   8   7
ATOM      4  C   UNL     1      -4.923   2.881  25.319  0.00  0.00    +0.035 A 
ATOM      5  C   UNL     1      -4.428   2.800  24.665  0.00  0.00    +0.004 A 
ATOM      6  C   UNL     1      -4.332   2.062  24.308  0.00  0.00    +0.017 A 
ATOM      7  C   UNL     1      -4.732   1.404  24.608  0.00  0.00    +0.075 A 
ATOM     28  C   UNL     1      -5.227   1.486  25.264  0.00  0.00    +0.017 A 
ATOM     29  C   UNL     1      -5.322   2.224  25.619  0.00  0.00    +0.004 A 
BRANCH   4   2
ATOM      1  C   UNL     1      -4.367   4.015  25.989  0.00  0.00    +0.077 C 
ATOM      2  C   UNL     1      -5.019   3.619  25.676  0.00  0.00    +0.173 C 
ATOM      3  O   UNL     1      -5.768   3.962  25.718  0.00  0.00    -0.291 OA
ENDBRANCH   4   2
ENDBRANCH   8   7
ENDBRANCH  12  11
BRANCH  14  20
ATOM     20  C   UNL     1      -1.144  -1.008  24.616  0.00  0.00    +0.261 C 
ATOM     21  O   UNL     1      -0.713  -0.992  25.320  0.00  0.00    -0.269 OA
ATOM     22  N   UNL     1      -0.797  -0.746  23.914  0.00  0.00    -0.201 NA
BRANCH  22  23
ATOM     23  C   UNL     1      -0.020  -0.469  23.915  0.00  0.00    +0.125 C 
BRANCH  23  24
ATOM     24  C   UNL     1       0.329  -0.218  23.212  0.00  0.00    +0.112 C 
BRANCH  24  25
ATOM     25  C   UNL     1       1.044   0.192  23.230  0.00  0.00    +0.263 C 
ATOM     26  N   UNL     1       1.723  -0.145  22.903  0.00  0.00    -0.088 NA
ATOM     27  O   UNL     1       1.082   0.942  23.576  0.00  0.00    -0.272 OA
ENDBRANCH  24  25
ENDBRANCH  23  24
ENDBRANCH  22  23
ENDBRANCH  14  20
TORSDOF 7
ENDMDL
MODEL 5
REMARK VINA RESULT:      -9.4      2.208      5.527
REMARK  Name = 
REMARK  7 active torsions:
REMARK  status: ('A' for Active; 'I' for Inactive)
REMARK    1  A    between atoms: C_2  and  C_4
REMARK    2  A    between atoms: C_7  and  N_8
REMARK    3  A    between atoms: N_11  and  C_12
REMARK    4  A    between atoms: C_14  and  C_20
REMARK    5  A    between atoms: N_22  and  C_23
REMARK    6  A    between atoms: C_23  and  C_24
REMARK    7  A    between atoms: C_24  and  C_25
REMARK                            x       y       z     vdW  Elec       q    Type
REMARK                         _______ _______ _______ _____ _____    ______ ____
ROOT
ATOM     12  C   UNL     1      -1.068   2.015  23.981  0.00  0.00    +0.152 C 
ATOM     13  C   UNL     1      -1.115   1.195  23.915  0.00  0.00    -0.002 C 
ATOM     14  C   UNL     1      -0.482   0.724  24.158  0.00  0.00    +0.033 C 
ATOM     15  C   UNL     1       0.197   1.075  24.467  0.00  0.00    +0.066 C 
ATOM     16  C   UNL     1       0.244   1.896  24.535  0.00  0.00    +0.189 C 
ATOM     17  O   UNL     1       0.923   2.246  24.844  0.00  0.00    -0.220 OA
ATOM     18  C   UNL     1      -0.388   2.366  24.292  0.00  0.00    +0.206 C 
ATOM     19  O   UNL     1      -0.342   3.187  24.359  0.00  0.00    -0.218 OA
ENDROOT
BRANCH  12  11
ATOM      8  N   UNL     1      -3.030   2.970  23.938  0.00  0.00    -0.161 NA
ATOM      9  C   UNL     1      -2.398   2.500  24.181  0.00  0.00    +0.344 C 
ATOM     10  O   UNL     1      -2.461   2.044  24.865  0.00  0.00    -0.249 OA
ATOM     11  N   UNL     1      -1.700   2.485  23.739  0.00  0.00    -0.181 NA
BRANCH   8   7
ATOM      4  C   UNL     1      -5.120   3.014  25.264  0.00  0.00    +0.035 A 
ATOM      5  C   UNL     1      -4.520   3.558  25.422  0.00  0.00    +0.004 A 
ATOM      6  C   UNL     1      -3.823   3.544  24.980  0.00  0.00    +0.017 A 
ATOM      7  C   UNL     1      -3.726   2.985  24.380  0.00  0.00    +0.075 A 
ATOM     28  C   UNL     1      -4.327   2.441  24.222  0.00  0.00    +0.017 A 
ATOM     29  C   UNL     1      -5.023   2.455  24.664  0.00  0.00    +0.004 A 
BRANCH   4   2
ATOM      1  C   UNL     1      -6.116   2.330  26.027  0.00  0.00    +0.077 C 
ATOM      2  C   UNL     1      -5.816   3.028  25.706  0.00  0.00    +0.173 C 
ATOM      3  O   UNL     1      -6.214   3.741  25.826  0.00  0.00    -0.291 OA
ENDBRANCH   4   2
ENDBRANCH   8   7
ENDBRANCH  12  11
BRANCH  14  20
ATOM     20  C   UNL     1      -0.529  -0.096  24.090  0.00  0.00    +0.261 C 
ATOM     21  O   UNL     1       0.012  -0.503  23.617  0.00  0.00    -0.269 OA
ATOM     22  N   UNL     1      -1.115  -0.511  24.496  0.00  0.00    -0.201 NA
BRANCH  22  23
ATOM     23  C   UNL     1      -1.163  -1.332  24.429  0.00  0.00    +0.125 C 
BRANCH  23  24
ATOM     24  C   UNL     1      -1.670  -1.758  24.920  0.00  0.00    +0.112 C 
BRANCH  24  25
ATOM     25  C   UNL     1      -2.104  -2.390  24.616  0.00  0.00    +0.263 C 
ATOM     26  N   UNL     1      -2.906  -2.465  24.794  0.00  0.00    -0.088 NA
ATOM     27  O   UNL     1      -1.734  -2.950  24.134  0.00  0.00    -0.272 OA
ENDBRANCH  24  25
ENDBRANCH  23  24
ENDBRANCH  22  23
ENDBRANCH  14  20
TORSDOF 7
ENDMDL
