MODEL 1
REMARK VINA RESULT:     -11.9      0.000      0.000
REMARK  Name = 
REMARK  7 active torsions:
REMARK  status: ('A' for Active; 'I' for Inactive)
REMARK    1  A    between atoms: O_2  and  C_3
REMARK    2  A    between atoms: C_3  and  C_4
REMARK    3  A    between atoms: C_9  and  C_11
REMARK    4  A    between atoms: C_11  and  C_12
REMARK    5  A    between atoms: C_14  and  C_15
REMARK    6  A    between atoms: C_15  and  N_16
REMARK    7  A    between atoms: C_17  and  C_19
REMARK                            x       y       z     vdW  Elec       q    Type
REMARK                         _______ _______ _______ _____ _____    ______ ____
ROOT
ATOM     12  C   UNL     1      -4.753   1.400  24.904  0.00  0.00    +0.157 C 
ATOM     13  O   UNL     1      -4.140   1.896  25.147  0.00  0.00    -0.351 OA
ATOM     14  C   UNL     1      -4.472   2.612  25.388  0.00  0.00    +0.170 C 
ATOM     26  C   UNL     1      -5.289   2.558  25.293  0.00  0.00    +0.213 C 
ATOM     27  O   UNL     1      -5.838   3.150  25.467  0.00  0.00    -0.218 OA
ATOM     28  C   UNL     1      -5.463   1.809  24.994  0.00  0.00    +0.212 C 
ATOM     29  O   UNL     1      -6.215   1.520  24.816  0.00  0.00    -0.218 OA
ENDROOT
BRANCH  12  11
ATOM     11  C   UNL     1      -4.669   0.630  24.620  0.00  0.00    +0.117 C 
BRANCH  11   9
ATOM      4  C   UNL     1      -3.271  -1.079  24.662  0.00  0.00    +0.105 C 
ATOM      5  C   UNL     1      -3.430  -1.802  24.299  0.00  0.00    +0.024 C 
ATOM      6  C   UNL     1      -4.172  -1.752  23.943  0.00  0.00    +0.023 C 
ATOM      7  C   UNL     1      -4.472  -0.996  24.085  0.00  0.00    +0.093 C 
ATOM      8  N   UNL     1      -3.915  -0.580  24.530  0.00  0.00    -0.279 N 
ATOM      9  C   UNL     1      -3.989   0.197  24.795  0.00  0.00    +0.228 C 
ATOM     10  O   UNL     1      -3.383   0.542  25.237  0.00  0.00    -0.275 OA
BRANCH   4   3
ATOM      3  C   UNL     1      -2.588  -0.887  25.083  0.00  0.00    +0.162 C 
BRANCH   3   2
ATOM      1  C   UNL     1      -1.240  -1.188  25.450  0.00  0.00    +0.174 C 
ATOM      2  O   UNL     1      -1.953  -1.413  25.101  0.00  0.00    -0.349 OA
ENDBRANCH   3   2
ENDBRANCH   4   3
ENDBRANCH  11   9
ENDBRANCH  12  11
BRANCH  14  15
ATOM     15  C   UNL     1      -4.059   3.266  25.674  0.00  0.00    +0.148 C 
BRANCH  15  16
ATOM     16  N   UNL     1      -3.298   3.427  25.398  0.00  0.00    -0.199 NA
ATOM     17  C   UNL     1      -2.814   3.954  25.807  0.00  0.00    +0.265 C 
ATOM     18  O   UNL     1      -3.090   4.322  26.492  0.00  0.00    -0.268 OA
BRANCH  17  19
ATOM     19  C   UNL     1      -2.053   4.114  25.530  0.00  0.00    +0.057 A 
ATOM     20  C   UNL     1      -1.485   3.516  25.515  0.00  0.00    +0.005 A 
ATOM     21  C   UNL     1      -0.725   3.676  25.239  0.00  0.00    +0.002 A 
ATOM     22  C   UNL     1      -0.531   4.434  24.978  0.00  0.00    +0.030 A 
ATOM     23  C   UNL     1      -1.099   5.033  24.993  0.00  0.00    +0.140 A 
ATOM     24  F   UNL     1      -0.906   5.791  24.732  0.00  0.00    -0.204 F 
ATOM     25  C   UNL     1      -1.860   4.872  25.269  0.00  0.00    +0.034 A 
ENDBRANCH  17  19
ENDBRANCH  15  16
ENDBRANCH  14  15
TORSDOF 7
ENDMDL
MODEL 2
REMARK VINA RESULT:     -11.5      2.057      4.918
REMARK  Name = 
REMARK  7 active torsions:
REMARK  status: ('A' for Active; 'I' for Inactive)
REMARK    1  A    between atoms: O_2  and  C_3
REMARK    2  A    between atoms: C_3  and  C_4
REMARK    3  A    between atoms: C_9  and  C_11
REMARK    4  A    between atoms: C_11  and  C_12
REMARK    5  A    between atoms: C_14  and  C_15
REMARK    6  A    between atoms: C_15  and  N_16
REMARK    7  A    between atoms: C_17  and  C_19
REMARK                            x       y       z     vdW  Elec       q    Type
REMARK                         _______ _______ _______ _____ _____    ______ ____
ROOT
ATOM     12  C   UNL     1      -4.038   2.911  25.155  0.00  0.00    +0.157 C 
ATOM     13  O   UNL     1      -3.861   2.193  24.786  0.00  0.00    -0.351 OA
ATOM     14  C   UNL     1      -4.560   1.762  24.719  0.00  0.00    +0.170 C 
ATOM     26  C   UNL     1      -5.169   2.211  25.045  0.00  0.00    +0.213 C 
ATOM     27  O   UNL     1      -5.963   1.990  25.094  0.00  0.00    -0.218 OA
ATOM     28  C   UNL     1      -4.847   2.921  25.315  0.00  0.00    +0.212 C 
ATOM     29  O   UNL     1      -5.261   3.535  25.680  0.00  0.00    -0.218 OA
ENDROOT
BRANCH  12  11
ATOM     11  C   UNL     1      -3.501   3.510  25.332  0.00  0.00    +0.117 C 
BRANCH  11   9
ATOM      4  C   UNL     1      -1.313   3.788  25.459  0.00  0.00    +0.105 C 
ATOM      5  C   UNL     1      -0.934   4.492  25.258  0.00  0.00    +0.024 C 
ATOM      6  C   UNL     1      -1.510   5.032  25.016  0.00  0.00    +0.023 C 
ATOM      7  C   UNL     1      -2.245   4.661  25.068  0.00  0.00    +0.093 C 
ATOM      8  N   UNL     1      -2.123   3.892  25.342  0.00  0.00    -0.279 N 
ATOM      9  C   UNL     1      -2.708   3.326  25.475  0.00  0.00    +0.228 C 
ATOM     10  O   UNL     1      -2.503   2.576  25.751  0.00  0.00    -0.275 OA
BRANCH   4   3
ATOM      3  C   UNL     1      -0.946   3.100  25.730  0.00  0.00    +0.162 C 
BRANCH   3   2
ATOM      1  C   UNL     1       0.239   2.390  26.091  0.00  0.00    +0.174 C 
ATOM      2  O   UNL     1      -0.126   3.071  25.801  0.00  0.00    -0.349 OA
ENDBRANCH   3   2
ENDBRANCH   4   3
ENDBRANCH  11   9
ENDBRANCH  12  11
BRANCH  14  15
ATOM     15  C   UNL     1      -4.637   1.012  24.384  0.00  0.00    +0.148 C 
BRANCH  15  16
ATOM     16  N   UNL     1      -4.341   0.351  24.779  0.00  0.00    -0.199 NA
ATOM     17  C   UNL     1      -4.161  -0.335  24.358  0.00  0.00    +0.265 C 
ATOM     18  O   UNL     1      -4.276  -0.361  23.542  0.00  0.00    -0.268 OA
BRANCH  17  19
ATOM     19  C   UNL     1      -3.865  -0.996  24.754  0.00  0.00    +0.057 A 
ATOM     20  C   UNL     1      -3.540  -0.914  25.508  0.00  0.00    +0.005 A 
ATOM     21  C   UNL     1      -3.245  -1.575  25.904  0.00  0.00    +0.002 A 
ATOM     22  C   UNL     1      -3.273  -2.317  25.546  0.00  0.00    +0.030 A 
ATOM     23  C   UNL     1      -3.598  -2.399  24.791  0.00  0.00    +0.140 A 
ATOM     24  F   UNL     1      -3.627  -3.142  24.433  0.00  0.00    -0.204 F 
ATOM     25  C   UNL     1      -3.894  -1.738  24.396  0.00  0.00    +0.034 A 
ENDBRANCH  17  19
ENDBRANCH  15  16
ENDBRANCH  14  15
TORSDOF 7
ENDMDL
MODEL 3
REMARK VINA RESULT:     -11.2      2.133      5.770
REMARK  Name = 
REMARK  7 active torsions:
REMARK  status: ('A' for Active; 'I' for Inactive)
REMARK    1  A    between atoms: O_2  and  C_3
REMARK    2  A    between atoms: C_3  and  C_4
REMARK    3  A    between atoms: C_9  and  C_11
REMARK    4  A    between atoms: C_11  and  C_12
REMARK    5  A    between atoms: C_14  and  C_15
REMARK    6  A    between atoms: C_15  and  N_16
REMARK    7  A    between atoms: C_17  and  C_19
REMARK                            x       y       z     vdW  Elec       q    Type
REMARK                         _______ _______ _______ _____ _____    ______ ____
ROOT
ATOM     12  C   UNL     1      -0.575   1.507  24.833  0.00  0.00    +0.157 C 
ATOM     13  O   UNL     1      -1.021   0.871  25.111  0.00  0.00    -0.351 OA
ATOM     14  C   UNL     1      -0.737   0.185  24.752  0.00  0.00    +0.170 C 
ATOM     26  C   UNL     1      -0.116   0.396  24.253  0.00  0.00    +0.213 C 
ATOM     27  O   UNL     1       0.327  -0.119  23.785  0.00  0.00    -0.218 OA
ATOM     28  C   UNL     1      -0.016   1.214  24.303  0.00  0.00    +0.212 C 
ATOM     29  O   UNL     1       0.546   1.659  23.894  0.00  0.00    -0.218 OA
ENDROOT
BRANCH  12  11
ATOM     11  C   UNL     1      -0.671   2.297  25.048  0.00  0.00    +0.117 C 
BRANCH  11   9
ATOM      4  C   UNL     1      -2.259   3.812  25.302  0.00  0.00    +0.105 C 
ATOM      5  C   UNL     1      -2.111   4.623  25.321  0.00  0.00    +0.024 C 
ATOM      6  C   UNL     1      -1.298   4.737  25.232  0.00  0.00    +0.023 C 
ATOM      7  C   UNL     1      -0.944   3.996  25.157  0.00  0.00    +0.093 C 
ATOM      8  N   UNL     1      -1.537   3.424  25.200  0.00  0.00    -0.279 N 
ATOM      9  C   UNL     1      -1.429   2.608  25.151  0.00  0.00    +0.228 C 
ATOM     10  O   UNL     1      -2.078   2.101  25.204  0.00  0.00    -0.275 OA
BRANCH   4   3
ATOM      3  C   UNL     1      -2.997   3.452  25.372  0.00  0.00    +0.162 C 
BRANCH   3   2
ATOM      1  C   UNL     1      -4.408   3.552  25.577  0.00  0.00    +0.174 C 
ATOM      2  O   UNL     1      -3.671   3.913  25.487  0.00  0.00    -0.349 OA
ENDBRANCH   3   2
ENDBRANCH   4   3
ENDBRANCH  11   9
ENDBRANCH  12  11
BRANCH  14  15
ATOM     15  C   UNL     1      -1.025  -0.580  24.872  0.00  0.00    +0.148 C 
BRANCH  15  16
ATOM     16  N   UNL     1      -1.778  -0.784  24.605  0.00  0.00    -0.199 NA
ATOM     17  C   UNL     1      -2.101  -1.516  24.803  0.00  0.00    +0.265 C 
ATOM     18  O   UNL     1      -1.672  -2.045  25.269  0.00  0.00    -0.268 OA
BRANCH  17  19
ATOM     19  C   UNL     1      -2.854  -1.720  24.535  0.00  0.00    +0.057 A 
ATOM     20  C   UNL     1      -3.028  -2.506  24.354  0.00  0.00    +0.005 A 
ATOM     21  C   UNL     1      -3.781  -2.711  24.086  0.00  0.00    +0.002 A 
ATOM     22  C   UNL     1      -4.360  -2.130  23.999  0.00  0.00    +0.030 A 
ATOM     23  C   UNL     1      -4.186  -1.344  24.181  0.00  0.00    +0.140 A 
ATOM     24  F   UNL     1      -4.765  -0.763  24.094  0.00  0.00    -0.204 F 
ATOM     25  C   UNL     1      -3.433  -1.139  24.449  0.00  0.00    +0.034 A 
ENDBRANCH  17  19
ENDBRANCH  15  16
ENDBRANCH  14  15
TORSDOF 7
ENDMDL
MODEL 4
REMARK VINA RESULT:     -10.6      1.882      3.486
REMARK  Name = 
REMARK  7 active torsions:
REMARK  status: ('A' for Active; 'I' for Inactive)
REMARK    1  A    between atoms: O_2  and  C_3
REMARK    2  A    between atoms: C_3  and  C_4
REMARK    3  A    between atoms: C_9  and  C_11
REMARK    4  A    between atoms: C_11  and  C_12
REMARK    5  A    between atoms: C_14  and  C_15
REMARK    6  A    between atoms: C_15  and  N_16
REMARK    7  A    between atoms: C_17  and  C_19
REMARK                            x       y       z     vdW  Elec       q    Type
REMARK                         _______ _______ _______ _____ _____    ______ ____
ROOT
ATOM     12  C   UNL     1      -0.710  -0.009  24.317  0.00  0.00    +0.157 C 
ATOM     13  O   UNL     1      -0.754   0.659  24.800  0.00  0.00    -0.351 OA
ATOM     14  C   UNL     1      -0.108   1.141  24.629  0.00  0.00    +0.170 C 
ATOM     26  C   UNL     1       0.336   0.772  24.040  0.00  0.00    +0.213 C 
ATOM     27  O   UNL     1       1.031   1.063  23.703  0.00  0.00    -0.218 OA
ATOM     28  C   UNL     1      -0.036   0.061  23.848  0.00  0.00    +0.212 C 
ATOM     29  O   UNL     1       0.222  -0.484  23.284  0.00  0.00    -0.218 OA
ENDROOT
BRANCH  12  11
ATOM     11  C   UNL     1      -1.246  -0.636  24.306  0.00  0.00    +0.117 C 
BRANCH  11   9
ATOM      4  C   UNL     1      -3.384  -1.033  24.691  0.00  0.00    +0.105 C 
ATOM      5  C   UNL     1      -3.674  -1.773  24.912  0.00  0.00    +0.024 C 
ATOM      6  C   UNL     1      -3.036  -2.295  24.955  0.00  0.00    +0.023 C 
ATOM      7  C   UNL     1      -2.351  -1.877  24.760  0.00  0.00    +0.093 C 
ATOM      8  N   UNL     1      -2.566  -1.097  24.597  0.00  0.00    -0.279 N 
ATOM      9  C   UNL     1      -2.055  -0.489  24.378  0.00  0.00    +0.228 C 
ATOM     10  O   UNL     1      -2.351   0.267  24.232  0.00  0.00    -0.275 OA
BRANCH   4   3
ATOM      3  C   UNL     1      -3.833  -0.349  24.582  0.00  0.00    +0.162 C 
BRANCH   3   2
ATOM      1  C   UNL     1      -5.012   0.405  24.863  0.00  0.00    +0.174 C 
ATOM      2  O   UNL     1      -4.602  -0.311  24.875  0.00  0.00    -0.349 OA
ENDBRANCH   3   2
ENDBRANCH   4   3
ENDBRANCH  11   9
ENDBRANCH  12  11
BRANCH  14  15
ATOM     15  C   UNL     1       0.065   1.866  24.984  0.00  0.00    +0.148 C 
BRANCH  15  16
ATOM     16  N   UNL     1      -0.475   2.488  24.936  0.00  0.00    -0.199 NA
ATOM     17  C   UNL     1      -0.437   3.110  25.475  0.00  0.00    +0.265 C 
ATOM     18  O   UNL     1       0.142   3.111  26.064  0.00  0.00    -0.268 OA
BRANCH  17  19
ATOM     19  C   UNL     1      -0.976   3.732  25.427  0.00  0.00    +0.057 A 
ATOM     20  C   UNL     1      -0.776   4.421  25.020  0.00  0.00    +0.005 A 
ATOM     21  C   UNL     1      -1.316   5.043  24.972  0.00  0.00    +0.002 A 
ATOM     22  C   UNL     1      -2.056   4.976  25.330  0.00  0.00    +0.030 A 
ATOM     23  C   UNL     1      -2.256   4.286  25.736  0.00  0.00    +0.140 A 
ATOM     24  F   UNL     1      -2.997   4.220  26.094  0.00  0.00    -0.204 F 
ATOM     25  C   UNL     1      -1.717   3.665  25.785  0.00  0.00    +0.034 A 
ENDBRANCH  17  19
ENDBRANCH  15  16
ENDBRANCH  14  15
TORSDOF 7
ENDMDL
MODEL 5
REMARK VINA RESULT:     -10.5      2.106      3.757
REMARK  Name = 
REMARK  7 active torsions:
REMARK  status: ('A' for Active; 'I' for Inactive)
REMARK    1  A    between atoms: O_2  and  C_3
REMARK    2  A    between atoms: C_3  and  C_4
REMARK    3  A    between atoms: C_9  and  C_11
REMARK    4  A    between atoms: C_11  and  C_12
REMARK    5  A    between atoms: C_14  and  C_15
REMARK    6  A    between atoms: C_15  and  N_16
REMARK    7  A    between atoms: C_17  and  C_19
REMARK                            x       y       z     vdW  Elec       q    Type
REMARK                         _______ _______ _______ _____ _____    ______ ____
ROOT
ATOM     12  C   UNL     1      -0.995   1.290  24.456  0.00  0.00    +0.157 C 
ATOM     13  O   UNL     1      -1.761   1.594  24.501  0.00  0.00    -0.351 OA
ATOM     14  C   UNL     1      -1.716   2.413  24.411  0.00  0.00    +0.170 C 
ATOM     26  C   UNL     1      -0.923   2.615  24.312  0.00  0.00    +0.213 C 
ATOM     27  O   UNL     1      -0.627   3.378  24.204  0.00  0.00    -0.218 OA
ATOM     28  C   UNL     1      -0.477   1.921  24.340  0.00  0.00    +0.212 C 
ATOM     29  O   UNL     1       0.343   1.868  24.264  0.00  0.00    -0.218 OA
ENDROOT
BRANCH  12  11
ATOM     11  C   UNL     1      -0.784   0.495  24.518  0.00  0.00    +0.117 C 
BRANCH  11   9
ATOM      4  C   UNL     1      -1.734  -1.489  24.717  0.00  0.00    +0.105 C 
ATOM      5  C   UNL     1      -1.358  -2.138  25.061  0.00  0.00    +0.024 C 
ATOM      6  C   UNL     1      -0.604  -1.900  25.297  0.00  0.00    +0.023 C 
ATOM      7  C   UNL     1      -0.514  -1.104  25.099  0.00  0.00    +0.093 C 
ATOM      8  N   UNL     1      -1.212  -0.850  24.740  0.00  0.00    -0.279 N 
ATOM      9  C   UNL     1      -1.362  -0.091  24.456  0.00  0.00    +0.228 C 
ATOM     10  O   UNL     1      -2.090   0.084  24.108  0.00  0.00    -0.275 OA
BRANCH   4   3
ATOM      3  C   UNL     1      -2.497  -1.480  24.404  0.00  0.00    +0.162 C 
BRANCH   3   2
ATOM      1  C   UNL     1      -3.746  -2.135  24.177  0.00  0.00    +0.174 C 
ATOM      2  O   UNL     1      -2.963  -2.160  24.434  0.00  0.00    -0.349 OA
ENDBRANCH   3   2
ENDBRANCH   4   3
ENDBRANCH  11   9
ENDBRANCH  12  11
BRANCH  14  15
ATOM     15  C   UNL     1      -2.353   2.937  24.420  0.00  0.00    +0.148 C 
BRANCH  15  16
ATOM     16  N   UNL     1      -3.073   2.706  24.751  0.00  0.00    -0.199 NA
ATOM     17  C   UNL     1      -3.748   3.164  24.630  0.00  0.00    +0.265 C 
ATOM     18  O   UNL     1      -3.704   3.854  24.178  0.00  0.00    -0.268 OA
BRANCH  17  19
ATOM     19  C   UNL     1      -4.467   2.934  24.960  0.00  0.00    +0.057 A 
ATOM     20  C   UNL     1      -4.729   3.280  25.662  0.00  0.00    +0.005 A 
ATOM     21  C   UNL     1      -5.449   3.049  25.993  0.00  0.00    +0.002 A 
ATOM     22  C   UNL     1      -5.907   2.472  25.622  0.00  0.00    +0.030 A 
ATOM     23  C   UNL     1      -5.645   2.126  24.920  0.00  0.00    +0.140 A 
ATOM     24  F   UNL     1      -6.104   1.549  24.550  0.00  0.00    -0.204 F 
ATOM     25  C   UNL     1      -4.926   2.357  24.590  0.00  0.00    +0.034 A 
ENDBRANCH  17  19
ENDBRANCH  15  16
ENDBRANCH  14  15
TORSDOF 7
ENDMDL
MODEL 6
REMARK VINA RESULT:      -9.5     16.456     19.034
REMARK  Name = 
REMARK  7 active torsions:
REMARK  status: ('A' for Active; 'I' for Inactive)
REMARK    1  A    between atoms: O_2  and  C_3
REMARK    2  A    between atoms: C_3  and  C_4
REMARK    3  A    between atoms: C_9  and  C_11
REMARK    4  A    between atoms: C_11  and  C_12
REMARK    5  A    between atoms: C_14  and  C_15
REMARK    6  A    between atoms: C_15  and  N_16
REMARK    7  A    between atoms: C_17  and  C_19
REMARK                            x       y       z     vdW  Elec       q    Type
REMARK                         _______ _______ _______ _____ _____    ______ ____
ROOT
ATOM     12  C   UNL     1      13.941   7.503  18.251  0.00  0.00    +0.157 C 
ATOM     13  O   UNL     1      13.355   7.682  18.805  0.00  0.00    -0.351 OA
ATOM     14  C   UNL     1      12.684   7.931  18.394  0.00  0.00    +0.170 C 
ATOM     26  C   UNL     1      12.855   7.906  17.588  0.00  0.00    +0.213 C 
ATOM     27  O   UNL     1      12.339   8.109  16.977  0.00  0.00    -0.218 OA
ATOM     28  C   UNL     1      13.631   7.641  17.500  0.00  0.00    +0.212 C 
ATOM     29  O   UNL     1      14.028   7.534  16.784  0.00  0.00    -0.218 OA
ENDROOT
BRANCH  12  11
ATOM     11  C   UNL     1      14.702   7.234  18.420  0.00  0.00    +0.117 C 
BRANCH  11   9
ATOM      4  C   UNL     1      16.243   7.437  19.989  0.00  0.00    +0.105 C 
ATOM      5  C   UNL     1      16.800   6.852  20.154  0.00  0.00    +0.024 C 
ATOM      6  C   UNL     1      16.665   6.219  19.642  0.00  0.00    +0.023 C 
ATOM      7  C   UNL     1      16.024   6.413  19.160  0.00  0.00    +0.093 C 
ATOM      8  N   UNL     1      15.763   7.166  19.374  0.00  0.00    -0.279 N 
ATOM      9  C   UNL     1      15.134   7.576  19.034  0.00  0.00    +0.228 C 
ATOM     10  O   UNL     1      14.936   8.329  19.307  0.00  0.00    -0.275 OA
BRANCH   4   3
ATOM      3  C   UNL     1      16.177   8.165  20.371  0.00  0.00    +0.162 C 
BRANCH   3   2
ATOM      1  C   UNL     1      16.644   9.094  21.351  0.00  0.00    +0.174 C 
ATOM      2  O   UNL     1      16.678   8.348  21.000  0.00  0.00    -0.349 OA
ENDBRANCH   3   2
ENDBRANCH   4   3
ENDBRANCH  11   9
ENDBRANCH  12  11
BRANCH  14  15
ATOM     15  C   UNL     1      11.968   8.164  18.732  0.00  0.00    +0.148 C 
BRANCH  15  16
ATOM     16  N   UNL     1      11.870   8.136  19.551  0.00  0.00    -0.199 NA
ATOM     17  C   UNL     1      11.151   8.359  19.887  0.00  0.00    +0.265 C 
ATOM     18  O   UNL     1      10.530   8.610  19.405  0.00  0.00    -0.268 OA
BRANCH  17  19
ATOM     19  C   UNL     1      11.052   8.331  20.705  0.00  0.00    +0.057 A 
ATOM     20  C   UNL     1      11.220   8.996  21.164  0.00  0.00    +0.005 A 
ATOM     21  C   UNL     1      11.122   8.968  21.983  0.00  0.00    +0.002 A 
ATOM     22  C   UNL     1      10.855   8.275  22.343  0.00  0.00    +0.030 A 
ATOM     23  C   UNL     1      10.687   7.610  21.884  0.00  0.00    +0.140 A 
ATOM     24  F   UNL     1      10.420   6.918  22.244  0.00  0.00    -0.204 F 
ATOM     25  C   UNL     1      10.785   7.638  21.066  0.00  0.00    +0.034 A 
ENDBRANCH  17  19
ENDBRANCH  15  16
ENDBRANCH  14  15
TORSDOF 7
ENDMDL
MODEL 7
REMARK VINA RESULT:      -8.0     17.162     18.972
REMARK  Name = 
REMARK  7 active torsions:
REMARK  status: ('A' for Active; 'I' for Inactive)
REMARK    1  A    between atoms: O_2  and  C_3
REMARK    2  A    between atoms: C_3  and  C_4
REMARK    3  A    between atoms: C_9  and  C_11
REMARK    4  A    between atoms: C_11  and  C_12
REMARK    5  A    between atoms: C_14  and  C_15
REMARK    6  A    between atoms: C_15  and  N_16
REMARK    7  A    between atoms: C_17  and  C_19
REMARK                            x       y       z     vdW  Elec       q    Type
REMARK                         _______ _______ _______ _____ _____    ______ ____
ROOT
ATOM     12  C   UNL     1      11.716   8.277  19.451  0.00  0.00    +0.157 C 
ATOM     13  O   UNL     1      12.423   7.864  19.554  0.00  0.00    -0.351 OA
ATOM     14  C   UNL     1      12.516   7.714  20.360  0.00  0.00    +0.170 C 
ATOM     26  C   UNL     1      11.866   8.034  20.754  0.00  0.00    +0.213 C 
ATOM     27  O   UNL     1      11.734   8.010  21.569  0.00  0.00    -0.218 OA
ATOM     28  C   UNL     1      11.372   8.382  20.193  0.00  0.00    +0.212 C 
ATOM     29  O   UNL     1      10.659   8.767  20.347  0.00  0.00    -0.218 OA
ENDROOT
BRANCH  12  11
ATOM     11  C   UNL     1      11.408   8.539  18.732  0.00  0.00    +0.117 C 
BRANCH  11   9
ATOM      4  C   UNL     1      12.051   8.920  16.654  0.00  0.00    +0.105 C 
ATOM      5  C   UNL     1      11.531   8.924  16.013  0.00  0.00    +0.024 C 
ATOM      6  C   UNL     1      10.773   8.766  16.298  0.00  0.00    +0.023 C 
ATOM      7  C   UNL     1      10.824   8.664  17.116  0.00  0.00    +0.093 C 
ATOM      8  N   UNL     1      11.614   8.759  17.335  0.00  0.00    -0.279 N 
ATOM      9  C   UNL     1      11.914   8.704  18.101  0.00  0.00    +0.228 C 
ATOM     10  O   UNL     1      12.720   8.813  18.238  0.00  0.00    -0.275 OA
BRANCH   4   3
ATOM      3  C   UNL     1      12.864   9.054  16.619  0.00  0.00    +0.162 C 
BRANCH   3   2
ATOM      1  C   UNL     1      14.069   9.077  15.853  0.00  0.00    +0.174 C 
ATOM      2  O   UNL     1      13.245   9.092  15.889  0.00  0.00    -0.349 OA
ENDBRANCH   3   2
ENDBRANCH   4   3
ENDBRANCH  11   9
ENDBRANCH  12  11
BRANCH  14  15
ATOM     15  C   UNL     1      13.148   7.314  20.709  0.00  0.00    +0.148 C 
BRANCH  15  16
ATOM     16  N   UNL     1      13.882   7.297  20.335  0.00  0.00    -0.199 NA
ATOM     17  C   UNL     1      14.522   6.925  20.699  0.00  0.00    +0.265 C 
ATOM     18  O   UNL     1      14.427   6.571  21.439  0.00  0.00    -0.268 OA
BRANCH  17  19
ATOM     19  C   UNL     1      15.257   6.908  20.325  0.00  0.00    +0.057 A 
ATOM     20  C   UNL     1      15.871   7.387  20.598  0.00  0.00    +0.005 A 
ATOM     21  C   UNL     1      16.605   7.369  20.224  0.00  0.00    +0.002 A 
ATOM     22  C   UNL     1      16.727   6.873  19.576  0.00  0.00    +0.030 A 
ATOM     23  C   UNL     1      16.113   6.394  19.303  0.00  0.00    +0.140 A 
ATOM     24  F   UNL     1      16.235   5.897  18.655  0.00  0.00    -0.204 F 
ATOM     25  C   UNL     1      15.378   6.411  19.677  0.00  0.00    +0.034 A 
ENDBRANCH  17  19
ENDBRANCH  15  16
ENDBRANCH  14  15
TORSDOF 7
ENDMDL
