MODEL 1
REMARK VINA RESULT:     -10.1      0.000      0.000
REMARK  Name = 
REMARK  4 active torsions:
REMARK  status: ('A' for Active; 'I' for Inactive)
REMARK    1  A    between atoms: O_2  and  C_3
REMARK    2  A    between atoms: C_6  and  C_9
REMARK    3  A    between atoms: C_16  and  O_18
REMARK    4  A    between atoms: O_18  and  C_19
REMARK                            x       y       z     vdW  Elec       q    Type
REMARK                         _______ _______ _______ _____ _____    ______ ____
ROOT
ATOM      9  C   UNL     1      -4.011   0.392  24.668  0.00  0.00    +0.249 C 
ATOM     10  O   UNL     1      -4.718   0.743  24.909  0.00  0.00    -0.270 OA
ATOM     11  N   UNL     1      -3.385   0.862  24.407  0.00  0.00    -0.270 N 
ATOM     12  C   UNL     1      -2.704   0.457  24.178  0.00  0.00    +0.126 C 
ATOM     13  C   UNL     1      -1.993   0.764  23.896  0.00  0.00    +0.164 C 
ATOM     14  O   UNL     1      -1.786   1.554  23.773  0.00  0.00    -0.348 OA
ATOM     15  C   UNL     1      -2.241   2.230  23.902  0.00  0.00    +0.187 C 
ATOM     16  C   UNL     1      -3.014   2.284  24.186  0.00  0.00    +0.217 C 
ATOM     17  C   UNL     1      -3.522   1.675  24.410  0.00  0.00    +0.140 C 
ENDROOT
BRANCH   9   6
ATOM      3  C   UNL     1      -3.769  -2.071  24.723  0.00  0.00    +0.139 A 
ATOM      4  C   UNL     1      -4.070  -1.700  24.051  0.00  0.00    +0.037 A 
ATOM      5  C   UNL     1      -4.151  -0.881  24.032  0.00  0.00    +0.008 A 
ATOM      6  C   UNL     1      -3.930  -0.429  24.686  0.00  0.00    +0.054 A 
ATOM      7  C   UNL     1      -3.628  -0.799  25.360  0.00  0.00    +0.008 A 
ATOM      8  C   UNL     1      -3.548  -1.619  25.378  0.00  0.00    +0.037 A 
BRANCH   3   2
ATOM      1  C   UNL     1      -2.994  -3.245  24.467  0.00  0.00    +0.252 C 
ATOM      2  O   UNL     1      -3.688  -2.892  24.742  0.00  0.00    -0.471 OA
ENDBRANCH   3   2
ENDBRANCH   9   6
BRANCH  16  18
ATOM     18  O   UNL     1      -3.318   3.049  24.253  0.00  0.00    -0.459 OA
BRANCH  18  19
ATOM     19  C   UNL     1      -3.056   3.543  24.859  0.00  0.00    +0.245 A 
ATOM     20  C   UNL     1      -2.399   4.029  24.740  0.00  0.00    +0.156 A 
ATOM     21  N   UNL     1      -2.137   4.524  25.346  0.00  0.00    -0.236 NA
ATOM     22  C   UNL     1      -2.532   4.533  26.071  0.00  0.00    +0.120 A 
ATOM     23  C   UNL     1      -3.188   4.048  26.189  0.00  0.00    +0.123 A 
ATOM     24  N   UNL     1      -3.450   3.553  25.583  0.00  0.00    -0.207 NA
ENDBRANCH  18  19
ENDBRANCH  16  18
TORSDOF 4
ENDMDL
MODEL 2
REMARK VINA RESULT:      -9.3      1.307      4.865
REMARK  Name = 
REMARK  4 active torsions:
REMARK  status: ('A' for Active; 'I' for Inactive)
REMARK    1  A    between atoms: O_2  and  C_3
REMARK    2  A    between atoms: C_6  and  C_9
REMARK    3  A    between atoms: C_16  and  O_18
REMARK    4  A    between atoms: O_18  and  C_19
REMARK                            x       y       z     vdW  Elec       q    Type
REMARK                         _______ _______ _______ _____ _____    ______ ____
ROOT
ATOM      9  C   UNL     1      -3.393   2.469  25.195  0.00  0.00    +0.249 C 
ATOM     10  O   UNL     1      -3.993   2.354  25.751  0.00  0.00    -0.270 OA
ATOM     11  N   UNL     1      -3.255   1.898  24.616  0.00  0.00    -0.270 N 
ATOM     12  C   UNL     1      -2.643   2.066  24.087  0.00  0.00    +0.126 C 
ATOM     13  C   UNL     1      -2.372   1.613  23.454  0.00  0.00    +0.164 C 
ATOM     14  O   UNL     1      -2.643   0.879  23.193  0.00  0.00    -0.348 OA
ATOM     15  C   UNL     1      -3.254   0.418  23.501  0.00  0.00    +0.187 C 
ATOM     16  C   UNL     1      -3.744   0.576  24.146  0.00  0.00    +0.217 C 
ATOM     17  C   UNL     1      -3.744   1.235  24.641  0.00  0.00    +0.140 C 
ENDROOT
BRANCH   9   6
ATOM      3  C   UNL     1      -2.015   4.524  25.265  0.00  0.00    +0.139 A 
ATOM      4  C   UNL     1      -1.769   3.847  25.668  0.00  0.00    +0.037 A 
ATOM      5  C   UNL     1      -2.228   3.163  25.644  0.00  0.00    +0.008 A 
ATOM      6  C   UNL     1      -2.934   3.154  25.218  0.00  0.00    +0.054 A 
ATOM      7  C   UNL     1      -3.181   3.831  24.815  0.00  0.00    +0.008 A 
ATOM      8  C   UNL     1      -2.722   4.515  24.838  0.00  0.00    +0.037 A 
BRANCH   3   2
ATOM      1  C   UNL     1      -0.840   5.240  24.877  0.00  0.00    +0.252 C 
ATOM      2  O   UNL     1      -1.556   5.208  25.288  0.00  0.00    -0.471 OA
ENDBRANCH   3   2
ENDBRANCH   9   6
BRANCH  16  18
ATOM     18  O   UNL     1      -4.309  -0.001  24.316  0.00  0.00    -0.459 OA
BRANCH  18  19
ATOM     19  C   UNL     1      -4.070  -0.765  24.514  0.00  0.00    +0.245 A 
ATOM     20  C   UNL     1      -4.150  -1.377  23.966  0.00  0.00    +0.156 A 
ATOM     21  N   UNL     1      -3.911  -2.142  24.165  0.00  0.00    -0.236 NA
ATOM     22  C   UNL     1      -3.591  -2.294  24.910  0.00  0.00    +0.120 A 
ATOM     23  C   UNL     1      -3.511  -1.682  25.458  0.00  0.00    +0.123 A 
ATOM     24  N   UNL     1      -3.750  -0.918  25.259  0.00  0.00    -0.207 NA
ENDBRANCH  18  19
ENDBRANCH  16  18
TORSDOF 4
ENDMDL
