MODEL 1
REMARK VINA RESULT:      -7.7      0.000      0.000
REMARK  Name = 
REMARK  6 active torsions:
REMARK  status: ('A' for Active; 'I' for Inactive)
REMARK    1  A    between atoms: C_2  and  N_4
REMARK    2  A    between atoms: N_7  and  C_8
REMARK    3  A    between atoms: C_8  and  C_9
REMARK    4  A    between atoms: C_12  and  N_13
REMARK    5  A    between atoms: N_13  and  C_14
REMARK    6  A    between atoms: C_14  and  C_15
REMARK                            x       y       z     vdW  Elec       q    Type
REMARK                         _______ _______ _______ _____ _____    ______ ____
ROOT
ATOM      9  C   UNL     1      -3.703   1.928  24.545  0.00  0.00    +0.169 C 
ATOM     10  O   UNL     1      -4.247   1.769  25.145  0.00  0.00    -0.350 OA
ATOM     11  C   UNL     1      -4.465   0.976  25.087  0.00  0.00    +0.162 C 
ATOM     12  C   UNL     1      -4.056   0.644  24.452  0.00  0.00    +0.136 C 
ATOM     21  C   UNL     1      -3.585   1.232  24.118  0.00  0.00    +0.199 C 
ATOM     22  O   UNL     1      -3.083   1.142  23.469  0.00  0.00    -0.219 OA
ENDROOT
BRANCH   9   8
ATOM      8  C   UNL     1      -3.341   2.654  24.400  0.00  0.00    +0.149 C 
BRANCH   8   7
ATOM      4  N   UNL     1      -1.976   4.042  25.389  0.00  0.00    -0.189 NA
ATOM      5  C   UNL     1      -2.447   3.692  24.809  0.00  0.00    +0.339 C 
ATOM      6  O   UNL     1      -2.495   4.029  24.058  0.00  0.00    -0.249 OA
ATOM      7  N   UNL     1      -2.869   3.005  24.980  0.00  0.00    -0.185 NA
BRANCH   4   2
ATOM      1  C   UNL     1      -1.918   5.465  25.288  0.00  0.00    +0.023 C 
ATOM      2  C   UNL     1      -1.554   4.729  25.218  0.00  0.00    +0.097 C 
ATOM      3  C   UNL     1      -0.766   4.680  24.978  0.00  0.00    +0.023 C 
ENDBRANCH   4   2
ENDBRANCH   8   7
ENDBRANCH   9   8
BRANCH  12  13
ATOM     13  N   UNL     1      -4.108  -0.139  24.196  0.00  0.00    -0.206 NA
BRANCH  13  14
ATOM     14  C   UNL     1      -4.015  -0.755  24.737  0.00  0.00    +0.152 C 
BRANCH  14  15
ATOM     15  C   UNL     1      -3.989  -1.537  24.471  0.00  0.00    +0.138 A 
ATOM     16  N   UNL     1      -4.317  -1.821  23.769  0.00  0.00    -0.228 NA
ATOM     17  C   UNL     1      -4.161  -2.631  23.725  0.00  0.00    +0.119 A 
ATOM     18  C   UNL     1      -3.737  -2.845  24.399  0.00  0.00    +0.098 A 
ATOM     19  N   UNL     1      -3.631  -2.169  24.861  0.00  0.00    -0.311 N 
ATOM     20  C   UNL     1      -3.236  -2.133  25.584  0.00  0.00    +0.132 C 
ENDBRANCH  14  15
ENDBRANCH  13  14
ENDBRANCH  12  13
TORSDOF 6
ENDMDL
MODEL 2
REMARK VINA RESULT:      -7.4      1.760      5.724
REMARK  Name = 
REMARK  6 active torsions:
REMARK  status: ('A' for Active; 'I' for Inactive)
REMARK    1  A    between atoms: C_2  and  N_4
REMARK    2  A    between atoms: N_7  and  C_8
REMARK    3  A    between atoms: C_8  and  C_9
REMARK    4  A    between atoms: C_12  and  N_13
REMARK    5  A    between atoms: N_13  and  C_14
REMARK    6  A    between atoms: C_14  and  C_15
REMARK                            x       y       z     vdW  Elec       q    Type
REMARK                         _______ _______ _______ _____ _____    ______ ____
ROOT
ATOM      9  C   UNL     1      -1.462   0.408  24.949  0.00  0.00    +0.169 C 
ATOM     10  O   UNL     1      -1.171   0.512  25.715  0.00  0.00    -0.350 OA
ATOM     11  C   UNL     1      -0.968   1.307  25.803  0.00  0.00    +0.162 C 
ATOM     12  C   UNL     1      -1.133   1.694  25.093  0.00  0.00    +0.136 C 
ATOM     21  C   UNL     1      -1.438   1.138  24.566  0.00  0.00    +0.199 C 
ATOM     22  O   UNL     1      -1.679   1.285  23.791  0.00  0.00    -0.219 OA
ENDROOT
BRANCH   9   8
ATOM      8  C   UNL     1      -1.728  -0.302  24.626  0.00  0.00    +0.149 C 
BRANCH   8   7
ATOM      4  N   UNL     1      -3.361  -1.728  24.892  0.00  0.00    -0.189 NA
ATOM      5  C   UNL     1      -2.677  -1.371  24.599  0.00  0.00    +0.339 C 
ATOM      6  O   UNL     1      -2.257  -1.728  23.985  0.00  0.00    -0.249 OA
ATOM      7  N   UNL     1      -2.412  -0.659  24.919  0.00  0.00    -0.185 NA
BRANCH   4   2
ATOM      1  C   UNL     1      -4.159  -2.437  23.944  0.00  0.00    +0.023 C 
ATOM      2  C   UNL     1      -3.625  -2.440  24.572  0.00  0.00    +0.097 C 
ATOM      3  C   UNL     1      -3.354  -3.156  24.880  0.00  0.00    +0.023 C 
ENDBRANCH   4   2
ENDBRANCH   8   7
ENDBRANCH   9   8
BRANCH  12  13
ATOM     13  N   UNL     1      -1.015   2.496  24.937  0.00  0.00    -0.206 NA
BRANCH  13  14
ATOM     14  C   UNL     1      -1.348   3.065  25.433  0.00  0.00    +0.152 C 
BRANCH  14  15
ATOM     15  C   UNL     1      -1.265   3.866  25.255  0.00  0.00    +0.138 A 
ATOM     16  N   UNL     1      -0.623   4.214  24.870  0.00  0.00    -0.228 NA
ATOM     17  C   UNL     1      -0.771   5.023  24.808  0.00  0.00    +0.119 A 
ATOM     18  C   UNL     1      -1.503   5.175  25.155  0.00  0.00    +0.098 A 
ATOM     19  N   UNL     1      -1.809   4.461  25.431  0.00  0.00    -0.311 N 
ATOM     20  C   UNL     1      -2.532   4.359  25.815  0.00  0.00    +0.132 C 
ENDBRANCH  14  15
ENDBRANCH  13  14
ENDBRANCH  12  13
TORSDOF 6
ENDMDL
MODEL 3
REMARK VINA RESULT:      -6.9      1.250      1.445
REMARK  Name = 
REMARK  6 active torsions:
REMARK  status: ('A' for Active; 'I' for Inactive)
REMARK    1  A    between atoms: C_2  and  N_4
REMARK    2  A    between atoms: N_7  and  C_8
REMARK    3  A    between atoms: C_8  and  C_9
REMARK    4  A    between atoms: C_12  and  N_13
REMARK    5  A    between atoms: N_13  and  C_14
REMARK    6  A    between atoms: C_14  and  C_15
REMARK                            x       y       z     vdW  Elec       q    Type
REMARK                         _______ _______ _______ _____ _____    ______ ____
ROOT
ATOM      9  C   UNL     1      -2.273   1.527  25.020  0.00  0.00    +0.169 C 
ATOM     10  O   UNL     1      -3.042   1.548  24.722  0.00  0.00    -0.350 OA
ATOM     11  C   UNL     1      -3.315   0.772  24.667  0.00  0.00    +0.162 C 
ATOM     12  C   UNL     1      -2.716   0.270  24.932  0.00  0.00    +0.136 C 
ATOM     21  C   UNL     1      -2.072   0.737  25.149  0.00  0.00    +0.199 C 
ATOM     22  O   UNL     1      -1.352   0.464  25.445  0.00  0.00    -0.219 OA
ENDROOT
BRANCH   9   8
ATOM      8  C   UNL     1      -1.791   2.180  25.163  0.00  0.00    +0.149 C 
BRANCH   8   7
ATOM      4  N   UNL     1      -1.715   4.301  24.652  0.00  0.00    -0.189 NA
ATOM      5  C   UNL     1      -1.563   3.585  25.032  0.00  0.00    +0.339 C 
ATOM      6  O   UNL     1      -1.030   3.557  25.661  0.00  0.00    -0.249 OA
ATOM      7  N   UNL     1      -1.943   2.897  24.783  0.00  0.00    -0.185 NA
BRANCH   4   2
ATOM      1  C   UNL     1      -1.755   5.568  25.310  0.00  0.00    +0.023 C 
ATOM      2  C   UNL     1      -1.334   4.989  24.901  0.00  0.00    +0.097 C 
ATOM      3  C   UNL     1      -0.532   5.098  24.741  0.00  0.00    +0.023 C 
ENDBRANCH   4   2
ENDBRANCH   8   7
ENDBRANCH   9   8
BRANCH  12  13
ATOM     13  N   UNL     1      -2.753  -0.553  24.971  0.00  0.00    -0.206 NA
BRANCH  13  14
ATOM     14  C   UNL     1      -3.374  -0.955  24.606  0.00  0.00    +0.152 C 
BRANCH  14  15
ATOM     15  C   UNL     1      -3.400  -1.780  24.626  0.00  0.00    +0.138 A 
ATOM     16  N   UNL     1      -2.935  -2.269  25.101  0.00  0.00    -0.228 NA
ATOM     17  C   UNL     1      -3.143  -3.051  24.941  0.00  0.00    +0.119 A 
ATOM     18  C   UNL     1      -3.735  -3.045  24.368  0.00  0.00    +0.098 A 
ATOM     19  N   UNL     1      -3.895  -2.260  24.172  0.00  0.00    -0.311 N 
ATOM     20  C   UNL     1      -4.451  -2.001  23.620  0.00  0.00    +0.132 C 
ENDBRANCH  14  15
ENDBRANCH  13  14
ENDBRANCH  12  13
TORSDOF 6
ENDMDL
MODEL 4
REMARK VINA RESULT:      -6.6      3.226      4.463
REMARK  Name = 
REMARK  6 active torsions:
REMARK  status: ('A' for Active; 'I' for Inactive)
REMARK    1  A    between atoms: C_2  and  N_4
REMARK    2  A    between atoms: N_7  and  C_8
REMARK    3  A    between atoms: C_8  and  C_9
REMARK    4  A    between atoms: C_12  and  N_13
REMARK    5  A    between atoms: N_13  and  C_14
REMARK    6  A    between atoms: C_14  and  C_15
REMARK                            x       y       z     vdW  Elec       q    Type
REMARK                         _______ _______ _______ _____ _____    ______ ____
ROOT
ATOM      9  C   UNL     1      -1.300   0.893  24.390  0.00  0.00    +0.169 C 
ATOM     10  O   UNL     1      -1.206   1.671  24.649  0.00  0.00    -0.350 OA
ATOM     11  C   UNL     1      -1.947   1.957  24.871  0.00  0.00    +0.162 C 
ATOM     12  C   UNL     1      -2.500   1.356  24.750  0.00  0.00    +0.136 C 
ATOM     21  C   UNL     1      -2.100   0.699  24.453  0.00  0.00    +0.199 C 
ATOM     22  O   UNL     1      -2.439  -0.026  24.253  0.00  0.00    -0.219 OA
ENDROOT
BRANCH   9   8
ATOM      8  C   UNL     1      -0.701   0.397  24.118  0.00  0.00    +0.149 C 
BRANCH   8   7
ATOM      4  N   UNL     1       1.131   0.521  22.936  0.00  0.00    -0.189 NA
ATOM      5  C   UNL     1       0.498   0.208  23.363  0.00  0.00    +0.339 C 
ATOM      6  O   UNL     1       0.430  -0.609  23.460  0.00  0.00    -0.249 OA
ATOM      7  N   UNL     1      -0.067   0.710  23.691  0.00  0.00    -0.185 NA
BRANCH   4   2
ATOM      1  C   UNL     1       2.437  -0.055  22.960  0.00  0.00    +0.023 C 
ATOM      2  C   UNL     1       1.696   0.019  22.607  0.00  0.00    +0.097 C 
ATOM      3  C   UNL     1       1.520  -0.410  21.925  0.00  0.00    +0.023 C 
ENDBRANCH   4   2
ENDBRANCH   8   7
ENDBRANCH   9   8
BRANCH  12  13
ATOM     13  N   UNL     1      -3.310   1.404  24.899  0.00  0.00    -0.206 NA
BRANCH  13  14
ATOM     14  C   UNL     1      -3.670   2.141  24.983  0.00  0.00    +0.152 C 
BRANCH  14  15
ATOM     15  C   UNL     1      -4.481   2.190  25.128  0.00  0.00    +0.138 A 
ATOM     16  N   UNL     1      -5.014   1.560  25.122  0.00  0.00    -0.228 NA
ATOM     17  C   UNL     1      -5.764   1.859  25.294  0.00  0.00    +0.119 A 
ATOM     18  C   UNL     1      -5.694   2.673  25.406  0.00  0.00    +0.098 A 
ATOM     19  N   UNL     1      -4.901   2.878  25.303  0.00  0.00    -0.311 N 
ATOM     20  C   UNL     1      -4.586   3.638  25.365  0.00  0.00    +0.132 C 
ENDBRANCH  14  15
ENDBRANCH  13  14
ENDBRANCH  12  13
TORSDOF 6
ENDMDL
MODEL 5
REMARK VINA RESULT:      -6.2     17.726     19.447
REMARK  Name = 
REMARK  6 active torsions:
REMARK  status: ('A' for Active; 'I' for Inactive)
REMARK    1  A    between atoms: C_2  and  N_4
REMARK    2  A    between atoms: N_7  and  C_8
REMARK    3  A    between atoms: C_8  and  C_9
REMARK    4  A    between atoms: C_12  and  N_13
REMARK    5  A    between atoms: N_13  and  C_14
REMARK    6  A    between atoms: C_14  and  C_15
REMARK                            x       y       z     vdW  Elec       q    Type
REMARK                         _______ _______ _______ _____ _____    ______ ____
ROOT
ATOM      9  C   UNL     1      12.972   7.631  19.217  0.00  0.00    +0.169 C 
ATOM     10  O   UNL     1      12.857   6.843  19.435  0.00  0.00    -0.350 OA
ATOM     11  C   UNL     1      13.523   6.595  19.854  0.00  0.00    +0.162 C 
ATOM     12  C   UNL     1      14.049   7.229  19.895  0.00  0.00    +0.136 C 
ATOM     21  C   UNL     1      13.709   7.869  19.501  0.00  0.00    +0.199 C 
ATOM     22  O   UNL     1      14.045   8.616  19.408  0.00  0.00    -0.219 OA
ENDROOT
BRANCH   9   8
ATOM      8  C   UNL     1      12.442   8.097  18.790  0.00  0.00    +0.149 C 
BRANCH   8   7
ATOM      4  N   UNL     1      11.432   8.098  16.855  0.00  0.00    -0.189 NA
ATOM      5  C   UNL     1      11.673   8.331  17.609  0.00  0.00    +0.339 C 
ATOM      6  O   UNL     1      11.385   9.032  17.935  0.00  0.00    -0.249 OA
ATOM      7  N   UNL     1      12.202   7.864  18.036  0.00  0.00    -0.185 NA
BRANCH   4   2
ATOM      1  C   UNL     1      11.185   9.091  15.858  0.00  0.00    +0.023 C 
ATOM      2  C   UNL     1      10.904   8.565  16.427  0.00  0.00    +0.097 C 
ATOM      3  C   UNL     1      10.093   8.506  16.570  0.00  0.00    +0.023 C 
ENDBRANCH   4   2
ENDBRANCH   8   7
ENDBRANCH   9   8
BRANCH  12  13
ATOM     13  N   UNL     1      14.788   7.225  20.264  0.00  0.00    -0.206 NA
BRANCH  13  14
ATOM     14  C   UNL     1      15.358   6.673  20.037  0.00  0.00    +0.152 C 
BRANCH  14  15
ATOM     15  C   UNL     1      16.099   6.674  20.400  0.00  0.00    +0.138 A 
ATOM     16  N   UNL     1      16.266   6.941  21.162  0.00  0.00    -0.228 NA
ATOM     17  C   UNL     1      17.074   6.839  21.298  0.00  0.00    +0.119 A 
ATOM     18  C   UNL     1      17.405   6.508  20.619  0.00  0.00    +0.098 A 
ATOM     19  N   UNL     1      16.803   6.406  20.064  0.00  0.00    -0.311 N 
ATOM     20  C   UNL     1      16.891   6.091  19.306  0.00  0.00    +0.132 C 
ENDBRANCH  14  15
ENDBRANCH  13  14
ENDBRANCH  12  13
TORSDOF 6
ENDMDL
MODEL 6
REMARK VINA RESULT:      -6.1      3.486      4.480
REMARK  Name = 
REMARK  6 active torsions:
REMARK  status: ('A' for Active; 'I' for Inactive)
REMARK    1  A    between atoms: C_2  and  N_4
REMARK    2  A    between atoms: N_7  and  C_8
REMARK    3  A    between atoms: C_8  and  C_9
REMARK    4  A    between atoms: C_12  and  N_13
REMARK    5  A    between atoms: N_13  and  C_14
REMARK    6  A    between atoms: C_14  and  C_15
REMARK                            x       y       z     vdW  Elec       q    Type
REMARK                         _______ _______ _______ _____ _____    ______ ____
ROOT
ATOM      9  C   UNL     1      -2.022   1.223  24.138  0.00  0.00    +0.169 C 
ATOM     10  O   UNL     1      -1.938   0.437  24.376  0.00  0.00    -0.350 OA
ATOM     11  C   UNL     1      -1.149   0.221  24.268  0.00  0.00    +0.162 C 
ATOM     12  C   UNL     1      -0.745   0.872  23.963  0.00  0.00    +0.136 C 
ATOM     21  C   UNL     1      -1.284   1.491  23.883  0.00  0.00    +0.199 C 
ATOM     22  O   UNL     1      -1.116   2.247  23.598  0.00  0.00    -0.219 OA
ENDROOT
BRANCH   9   8
ATOM      8  C   UNL     1      -2.719   1.662  24.152  0.00  0.00    +0.149 C 
BRANCH   8   7
ATOM      4  N   UNL     1      -4.579   1.764  25.291  0.00  0.00    -0.189 NA
ATOM      5  C   UNL     1      -4.011   1.910  24.710  0.00  0.00    +0.339 C 
ATOM      6  O   UNL     1      -4.169   2.449  24.106  0.00  0.00    -0.249 OA
ATOM      7  N   UNL     1      -3.287   1.516  24.733  0.00  0.00    -0.185 NA
BRANCH   4   2
ATOM      1  C   UNL     1      -5.952   1.806  24.901  0.00  0.00    +0.023 C 
ATOM      2  C   UNL     1      -5.303   2.158  25.268  0.00  0.00    +0.097 C 
ATOM      3  C   UNL     1      -5.378   2.903  25.613  0.00  0.00    +0.023 C 
ENDBRANCH   4   2
ENDBRANCH   8   7
ENDBRANCH   9   8
BRANCH  12  13
ATOM     13  N   UNL     1       0.058   0.901  23.772  0.00  0.00    -0.206 NA
BRANCH  13  14
ATOM     14  C   UNL     1       0.390   0.308  23.305  0.00  0.00    +0.152 C 
BRANCH  14  15
ATOM     15  C   UNL     1       1.189   0.344  23.100  0.00  0.00    +0.138 A 
ATOM     16  N   UNL     1       1.766   0.798  23.476  0.00  0.00    -0.228 NA
ATOM     17  C   UNL     1       2.485   0.666  23.092  0.00  0.00    +0.119 A 
ATOM     18  C   UNL     1       2.351   0.131  22.479  0.00  0.00    +0.098 A 
ATOM     19  N   UNL     1       1.550  -0.069  22.484  0.00  0.00    -0.311 N 
ATOM     20  C   UNL     1       1.177  -0.589  21.963  0.00  0.00    +0.132 C 
ENDBRANCH  14  15
ENDBRANCH  13  14
ENDBRANCH  12  13
TORSDOF 6
ENDMDL
MODEL 7
REMARK VINA RESULT:      -6.0     16.034     18.822
REMARK  Name = 
REMARK  6 active torsions:
REMARK  status: ('A' for Active; 'I' for Inactive)
REMARK    1  A    between atoms: C_2  and  N_4
REMARK    2  A    between atoms: N_7  and  C_8
REMARK    3  A    between atoms: C_8  and  C_9
REMARK    4  A    between atoms: C_12  and  N_13
REMARK    5  A    between atoms: N_13  and  C_14
REMARK    6  A    between atoms: C_14  and  C_15
REMARK                            x       y       z     vdW  Elec       q    Type
REMARK                         _______ _______ _______ _____ _____    ______ ____
ROOT
ATOM      9  C   UNL     1      13.789   7.373  19.491  0.00  0.00    +0.169 C 
ATOM     10  O   UNL     1      13.210   6.839  19.241  0.00  0.00    -0.350 OA
ATOM     11  C   UNL     1      12.488   7.082  19.556  0.00  0.00    +0.162 C 
ATOM     12  C   UNL     1      12.618   7.765  20.000  0.00  0.00    +0.136 C 
ATOM     21  C   UNL     1      13.422   7.944  19.960  0.00  0.00    +0.199 C 
ATOM     22  O   UNL     1      13.796   8.583  20.325  0.00  0.00    -0.219 OA
ENDROOT
BRANCH   9   8
ATOM      8  C   UNL     1      14.591   7.339  19.305  0.00  0.00    +0.149 C 
BRANCH   8   7
ATOM      4  N   UNL     1      16.145   5.830  19.038  0.00  0.00    -0.189 NA
ATOM      5  C   UNL     1      15.779   6.559  19.160  0.00  0.00    +0.339 C 
ATOM      6  O   UNL     1      16.237   7.238  19.262  0.00  0.00    -0.249 OA
ATOM      7  N   UNL     1      14.957   6.610  19.182  0.00  0.00    -0.185 NA
BRANCH   4   2
ATOM      1  C   UNL     1      17.358   5.701  18.294  0.00  0.00    +0.023 C 
ATOM      2  C   UNL     1      16.968   5.779  19.016  0.00  0.00    +0.097 C 
ATOM      3  C   UNL     1      17.401   5.806  19.718  0.00  0.00    +0.023 C 
ENDBRANCH   4   2
ENDBRANCH   8   7
ENDBRANCH   9   8
BRANCH  12  13
ATOM     13  N   UNL     1      12.046   8.194  20.413  0.00  0.00    -0.206 NA
BRANCH  13  14
ATOM     14  C   UNL     1      11.455   7.796  20.829  0.00  0.00    +0.152 C 
BRANCH  14  15
ATOM     15  C   UNL     1      11.073   8.168  21.459  0.00  0.00    +0.138 A 
ATOM     16  N   UNL     1      11.159   8.958  21.680  0.00  0.00    -0.228 NA
ATOM     17  C   UNL     1      10.677   9.094  22.336  0.00  0.00    +0.119 A 
ATOM     18  C   UNL     1      10.294   8.387  22.520  0.00  0.00    +0.098 A 
ATOM     19  N   UNL     1      10.539   7.814  21.979  0.00  0.00    -0.311 N 
ATOM     20  C   UNL     1      10.291   7.027  21.960  0.00  0.00    +0.132 C 
ENDBRANCH  14  15
ENDBRANCH  13  14
ENDBRANCH  12  13
TORSDOF 6
ENDMDL
