MODEL 1
REMARK VINA RESULT:     -11.7      0.000      0.000
REMARK  Name = 
REMARK  8 active torsions:
REMARK  status: ('A' for Active; 'I' for Inactive)
REMARK    1  A    between atoms: O_2  and  C_3
REMARK    2  A    between atoms: C_4  and  O_5
REMARK    3  A    between atoms: C_8  and  C_9
REMARK    4  A    between atoms: C_9  and  N_10
REMARK    5  A    between atoms: C_11  and  C_13
REMARK    6  A    between atoms: C_13  and  C_15
REMARK    7  A    between atoms: C_22  and  N_23
REMARK    8  A    between atoms: C_24  and  C_26
REMARK                            x       y       z     vdW  Elec       q    Type
REMARK                         _______ _______ _______ _____ _____    ______ ____
ROOT
ATOM     15  C   UNL     1      -4.110   3.069  24.390  0.00  0.00    +0.039 C 
ATOM     16  C   UNL     1      -4.696   3.187  24.959  0.00  0.00    +0.003 C 
ATOM     17  C   UNL     1      -5.087   2.540  25.288  0.00  0.00    +0.000 C 
ATOM     18  C   UNL     1      -4.893   1.775  25.050  0.00  0.00    +0.002 C 
ATOM     19  C   UNL     1      -5.478   1.894  25.618  0.00  0.00    +0.000 C 
ATOM     20  C   UNL     1      -5.284   1.128  25.379  0.00  0.00    +0.002 C 
ATOM     21  C   UNL     1      -5.090   0.363  25.140  0.00  0.00    +0.022 C 
ATOM     22  C   UNL     1      -4.504   0.245  24.571  0.00  0.00    +0.096 C 
ATOM     32  C   UNL     1      -4.113   0.891  24.241  0.00  0.00    +0.022 C 
ATOM     33  C   UNL     1      -3.527   0.773  23.673  0.00  0.00    +0.002 C 
ATOM     34  C   UNL     1      -4.307   1.657  24.480  0.00  0.00    +0.032 C 
ATOM     35  C   UNL     1      -3.916   2.304  24.151  0.00  0.00    +0.152 C 
ATOM     36  O   UNL     1      -3.330   2.186  23.582  0.00  0.00    -0.223 OA
ENDROOT
BRANCH  22  23
ATOM     23  N   UNL     1      -4.310  -0.521  24.332  0.00  0.00    -0.202 NA
ATOM     24  C   UNL     1      -4.059  -1.076  24.888  0.00  0.00    +0.282 C 
ATOM     25  O   UNL     1      -4.001  -0.865  25.684  0.00  0.00    -0.267 OA
BRANCH  24  26
ATOM     26  C   UNL     1      -3.865  -1.841  24.649  0.00  0.00    +0.136 A 
ATOM     27  N   UNL     1      -4.270  -2.194  24.024  0.00  0.00    -0.239 NA
ATOM     28  C   UNL     1      -4.076  -2.960  23.785  0.00  0.00    +0.099 A 
ATOM     29  C   UNL     1      -3.476  -3.373  24.173  0.00  0.00    +0.021 A 
ATOM     30  C   UNL     1      -3.069  -3.019  24.798  0.00  0.00    +0.003 A 
ATOM     31  C   UNL     1      -3.264  -2.254  25.036  0.00  0.00    +0.024 A 
ENDBRANCH  24  26
ENDBRANCH  22  23
BRANCH  15  13
ATOM     13  C   UNL     1      -3.719   3.716  24.060  0.00  0.00    +0.081 C 
ATOM     14  C   UNL     1      -3.929   3.987  23.310  0.00  0.00    +0.010 C 
BRANCH  13  11
ATOM     10  N   UNL     1      -2.384   3.728  24.572  0.00  0.00    -0.201 NA
ATOM     11  C   UNL     1      -3.117   4.094  24.481  0.00  0.00    +0.241 C 
ATOM     12  O   UNL     1      -3.250   4.840  24.810  0.00  0.00    -0.273 OA
BRANCH  10   9
ATOM      9  C   UNL     1      -1.783   4.105  24.991  0.00  0.00    +0.142 C 
BRANCH   9   8
ATOM      3  C   UNL     1      -0.014   2.772  26.095  0.00  0.00    +0.172 A 
ATOM      4  C   UNL     1      -0.021   2.848  25.274  0.00  0.00    +0.172 A 
ATOM      7  C   UNL     1      -0.611   3.292  24.906  0.00  0.00    +0.037 A 
ATOM      8  C   UNL     1      -1.194   3.661  25.359  0.00  0.00    +0.003 A 
ATOM     37  C   UNL     1      -1.187   3.585  26.181  0.00  0.00    +0.001 A 
ATOM     38  C   UNL     1      -0.597   3.140  26.549  0.00  0.00    +0.040 A 
BRANCH   3   2
ATOM      1  C   UNL     1       0.661   2.355  27.283  0.00  0.00    +0.253 C 
ATOM      2  O   UNL     1       0.575   2.327  26.464  0.00  0.00    -0.468 OA
ENDBRANCH   3   2
BRANCH   4   5
ATOM      5  O   UNL     1       0.561   2.479  24.821  0.00  0.00    -0.468 OA
ATOM      6  C   UNL     1       0.348   2.023  24.166  0.00  0.00    +0.253 C 
ENDBRANCH   4   5
ENDBRANCH   9   8
ENDBRANCH  10   9
ENDBRANCH  13  11
ENDBRANCH  15  13
TORSDOF 8
ENDMDL
MODEL 2
REMARK VINA RESULT:     -11.3      1.601      3.791
REMARK  Name = 
REMARK  8 active torsions:
REMARK  status: ('A' for Active; 'I' for Inactive)
REMARK    1  A    between atoms: O_2  and  C_3
REMARK    2  A    between atoms: C_4  and  O_5
REMARK    3  A    between atoms: C_8  and  C_9
REMARK    4  A    between atoms: C_9  and  N_10
REMARK    5  A    between atoms: C_11  and  C_13
REMARK    6  A    between atoms: C_13  and  C_15
REMARK    7  A    between atoms: C_22  and  N_23
REMARK    8  A    between atoms: C_24  and  C_26
REMARK                            x       y       z     vdW  Elec       q    Type
REMARK                         _______ _______ _______ _____ _____    ______ ____
ROOT
ATOM     15  C   UNL     1      -0.154   2.046  25.296  0.00  0.00    +0.039 C 
ATOM     16  C   UNL     1       0.342   2.065  24.636  0.00  0.00    +0.003 C 
ATOM     17  C   UNL     1       0.363   1.425  24.117  0.00  0.00    +0.000 C 
ATOM     18  C   UNL     1      -0.111   0.765  24.258  0.00  0.00    +0.002 C 
ATOM     19  C   UNL     1       0.383   0.784  23.599  0.00  0.00    +0.000 C 
ATOM     20  C   UNL     1      -0.090   0.123  23.739  0.00  0.00    +0.002 C 
ATOM     21  C   UNL     1      -0.563  -0.537  23.880  0.00  0.00    +0.022 C 
ATOM     22  C   UNL     1      -1.059  -0.557  24.541  0.00  0.00    +0.096 C 
ATOM     32  C   UNL     1      -1.079   0.084  25.059  0.00  0.00    +0.022 C 
ATOM     33  C   UNL     1      -1.574   0.064  25.719  0.00  0.00    +0.002 C 
ATOM     34  C   UNL     1      -0.606   0.745  24.919  0.00  0.00    +0.032 C 
ATOM     35  C   UNL     1      -0.627   1.385  25.437  0.00  0.00    +0.152 C 
ATOM     36  O   UNL     1      -1.121   1.366  26.097  0.00  0.00    -0.223 OA
ENDROOT
BRANCH  22  23
ATOM     23  N   UNL     1      -1.532  -1.218  24.681  0.00  0.00    -0.202 NA
ATOM     24  C   UNL     1      -2.178  -1.374  24.193  0.00  0.00    +0.282 C 
ATOM     25  O   UNL     1      -2.352  -0.869  23.564  0.00  0.00    -0.267 OA
BRANCH  24  26
ATOM     26  C   UNL     1      -2.652  -2.035  24.334  0.00  0.00    +0.136 A 
ATOM     27  N   UNL     1      -2.308  -2.748  24.564  0.00  0.00    -0.239 NA
ATOM     28  C   UNL     1      -2.781  -3.409  24.704  0.00  0.00    +0.099 A 
ATOM     29  C   UNL     1      -3.599  -3.356  24.614  0.00  0.00    +0.021 A 
ATOM     30  C   UNL     1      -3.944  -2.642  24.384  0.00  0.00    +0.003 A 
ATOM     31  C   UNL     1      -3.470  -1.982  24.244  0.00  0.00    +0.024 A 
ENDBRANCH  24  26
ENDBRANCH  22  23
BRANCH  15  13
ATOM     13  C   UNL     1      -0.174   2.687  25.815  0.00  0.00    +0.081 C 
ATOM     14  C   UNL     1       0.254   2.661  26.520  0.00  0.00    +0.010 C 
BRANCH  13  11
ATOM     10  N   UNL     1      -1.434   3.360  25.776  0.00  0.00    -0.201 NA
ATOM     11  C   UNL     1      -0.623   3.355  25.630  0.00  0.00    +0.241 C 
ATOM     12  O   UNL     1      -0.259   4.018  25.299  0.00  0.00    -0.273 OA
BRANCH  10   9
ATOM      9  C   UNL     1      -1.882   4.027  25.591  0.00  0.00    +0.142 C 
BRANCH   9   8
ATOM      3  C   UNL     1      -4.325   3.825  25.250  0.00  0.00    +0.172 A 
ATOM      4  C   UNL     1      -3.810   3.710  24.617  0.00  0.00    +0.172 A 
ATOM      7  C   UNL     1      -2.995   3.778  24.731  0.00  0.00    +0.037 A 
ATOM      8  C   UNL     1      -2.697   3.960  25.477  0.00  0.00    +0.003 A 
ATOM     37  C   UNL     1      -3.212   4.074  26.111  0.00  0.00    +0.001 A 
ATOM     38  C   UNL     1      -4.026   4.007  25.998  0.00  0.00    +0.040 A 
BRANCH   3   2
ATOM      1  C   UNL     1      -5.629   3.562  25.771  0.00  0.00    +0.253 C 
ATOM      2  O   UNL     1      -5.140   3.757  25.137  0.00  0.00    -0.468 OA
ENDBRANCH   3   2
BRANCH   4   5
ATOM      5  O   UNL     1      -4.108   3.528  23.870  0.00  0.00    -0.468 OA
ATOM      6  C   UNL     1      -3.674   3.048  23.357  0.00  0.00    +0.253 C 
ENDBRANCH   4   5
ENDBRANCH   9   8
ENDBRANCH  10   9
ENDBRANCH  13  11
ENDBRANCH  15  13
TORSDOF 8
ENDMDL
MODEL 3
REMARK VINA RESULT:     -10.8      1.776      4.912
REMARK  Name = 
REMARK  8 active torsions:
REMARK  status: ('A' for Active; 'I' for Inactive)
REMARK    1  A    between atoms: O_2  and  C_3
REMARK    2  A    between atoms: C_4  and  O_5
REMARK    3  A    between atoms: C_8  and  C_9
REMARK    4  A    between atoms: C_9  and  N_10
REMARK    5  A    between atoms: C_11  and  C_13
REMARK    6  A    between atoms: C_13  and  C_15
REMARK    7  A    between atoms: C_22  and  N_23
REMARK    8  A    between atoms: C_24  and  C_26
REMARK                            x       y       z     vdW  Elec       q    Type
REMARK                         _______ _______ _______ _____ _____    ______ ____
ROOT
ATOM     15  C   UNL     1      -2.884   2.740  24.656  0.00  0.00    +0.039 C 
ATOM     16  C   UNL     1      -2.687   3.078  25.383  0.00  0.00    +0.003 C 
ATOM     17  C   UNL     1      -1.900   3.106  25.625  0.00  0.00    +0.000 C 
ATOM     18  C   UNL     1      -1.309   2.796  25.141  0.00  0.00    +0.002 C 
ATOM     19  C   UNL     1      -1.112   3.133  25.866  0.00  0.00    +0.000 C 
ATOM     20  C   UNL     1      -0.520   2.823  25.383  0.00  0.00    +0.002 C 
ATOM     21  C   UNL     1       0.071   2.513  24.899  0.00  0.00    +0.022 C 
ATOM     22  C   UNL     1      -0.126   2.174  24.172  0.00  0.00    +0.096 C 
ATOM     32  C   UNL     1      -0.914   2.147  23.930  0.00  0.00    +0.022 C 
ATOM     33  C   UNL     1      -1.111   1.808  23.204  0.00  0.00    +0.002 C 
ATOM     34  C   UNL     1      -1.506   2.457  24.414  0.00  0.00    +0.032 C 
ATOM     35  C   UNL     1      -2.293   2.429  24.172  0.00  0.00    +0.152 C 
ATOM     36  O   UNL     1      -2.490   2.091  23.446  0.00  0.00    -0.223 OA
ENDROOT
BRANCH  22  23
ATOM     23  N   UNL     1       0.466   1.864  23.688  0.00  0.00    -0.202 NA
ATOM     24  C   UNL     1       0.903   1.211  23.937  0.00  0.00    +0.282 C 
ATOM     25  O   UNL     1       0.748   0.866  24.671  0.00  0.00    -0.267 OA
BRANCH  24  26
ATOM     26  C   UNL     1       1.495   0.900  23.453  0.00  0.00    +0.136 A 
ATOM     27  N   UNL     1       2.241   1.250  23.437  0.00  0.00    -0.239 NA
ATOM     28  C   UNL     1       2.833   0.940  22.953  0.00  0.00    +0.099 A 
ATOM     29  C   UNL     1       2.678   0.279  22.485  0.00  0.00    +0.021 A 
ATOM     30  C   UNL     1       1.930  -0.072  22.501  0.00  0.00    +0.003 A 
ATOM     31  C   UNL     1       1.339   0.239  22.985  0.00  0.00    +0.024 A 
ENDBRANCH  24  26
ENDBRANCH  22  23
BRANCH  15  13
ATOM     13  C   UNL     1      -3.673   2.712  24.414  0.00  0.00    +0.081 C 
ATOM     14  C   UNL     1      -3.956   3.263  23.869  0.00  0.00    +0.010 C 
BRANCH  13  11
ATOM     10  N   UNL     1      -4.087   1.347  24.494  0.00  0.00    -0.201 NA
ATOM     11  C   UNL     1      -4.179   2.135  24.718  0.00  0.00    +0.241 C 
ATOM     12  O   UNL     1      -4.777   2.347  25.246  0.00  0.00    -0.273 OA
BRANCH  10   9
ATOM      9  C   UNL     1      -4.593   0.771  24.797  0.00  0.00    +0.142 C 
BRANCH   9   8
ATOM      3  C   UNL     1      -3.944  -1.617  24.714  0.00  0.00    +0.172 A 
ATOM      4  C   UNL     1      -3.719  -1.150  25.356  0.00  0.00    +0.172 A 
ATOM      7  C   UNL     1      -3.935  -0.354  25.384  0.00  0.00    +0.037 A 
ATOM      8  C   UNL     1      -4.376  -0.025  24.770  0.00  0.00    +0.003 A 
ATOM     37  C   UNL     1      -4.602  -0.491  24.128  0.00  0.00    +0.001 A 
ATOM     38  C   UNL     1      -4.386  -1.287  24.099  0.00  0.00    +0.040 A 
BRANCH   3   2
ATOM      1  C   UNL     1      -3.914  -2.866  24.023  0.00  0.00    +0.253 C 
ATOM      2  O   UNL     1      -3.728  -2.412  24.685  0.00  0.00    -0.468 OA
ENDBRANCH   3   2
BRANCH   4   5
ATOM      5  O   UNL     1      -3.278  -1.480  25.970  0.00  0.00    -0.468 OA
ATOM      6  C   UNL     1      -2.639  -1.064  26.288  0.00  0.00    +0.253 C 
ENDBRANCH   4   5
ENDBRANCH   9   8
ENDBRANCH  10   9
ENDBRANCH  13  11
ENDBRANCH  15  13
TORSDOF 8
ENDMDL
MODEL 4
REMARK VINA RESULT:     -10.4      2.222      5.239
REMARK  Name = 
REMARK  8 active torsions:
REMARK  status: ('A' for Active; 'I' for Inactive)
REMARK    1  A    between atoms: O_2  and  C_3
REMARK    2  A    between atoms: C_4  and  O_5
REMARK    3  A    between atoms: C_8  and  C_9
REMARK    4  A    between atoms: C_9  and  N_10
REMARK    5  A    between atoms: C_11  and  C_13
REMARK    6  A    between atoms: C_13  and  C_15
REMARK    7  A    between atoms: C_22  and  N_23
REMARK    8  A    between atoms: C_24  and  C_26
REMARK                            x       y       z     vdW  Elec       q    Type
REMARK                         _______ _______ _______ _____ _____    ______ ____
ROOT
ATOM     15  C   UNL     1      -2.918  -1.158  25.223  0.00  0.00    +0.039 C 
ATOM     16  C   UNL     1      -2.968  -1.929  24.932  0.00  0.00    +0.003 C 
ATOM     17  C   UNL     1      -2.333  -2.257  24.521  0.00  0.00    +0.000 C 
ATOM     18  C   UNL     1      -1.647  -1.815  24.402  0.00  0.00    +0.002 C 
ATOM     19  C   UNL     1      -1.697  -2.584  24.111  0.00  0.00    +0.000 C 
ATOM     20  C   UNL     1      -1.011  -2.142  23.991  0.00  0.00    +0.002 C 
ATOM     21  C   UNL     1      -0.325  -1.701  23.871  0.00  0.00    +0.022 C 
ATOM     22  C   UNL     1      -0.275  -0.929  24.163  0.00  0.00    +0.096 C 
ATOM     32  C   UNL     1      -0.910  -0.602  24.573  0.00  0.00    +0.022 C 
ATOM     33  C   UNL     1      -0.860   0.168  24.864  0.00  0.00    +0.002 C 
ATOM     34  C   UNL     1      -1.597  -1.044  24.693  0.00  0.00    +0.032 C 
ATOM     35  C   UNL     1      -2.232  -0.716  25.104  0.00  0.00    +0.152 C 
ATOM     36  O   UNL     1      -2.182   0.054  25.395  0.00  0.00    -0.223 OA
ENDROOT
BRANCH  22  23
ATOM     23  N   UNL     1       0.412  -0.488  24.043  0.00  0.00    -0.202 NA
ATOM     24  C   UNL     1       0.698  -0.369  23.279  0.00  0.00    +0.282 C 
ATOM     25  O   UNL     1       0.297  -0.692  22.633  0.00  0.00    -0.267 OA
BRANCH  24  26
ATOM     26  C   UNL     1       1.385   0.073  23.159  0.00  0.00    +0.136 A 
ATOM     27  N   UNL     1       1.437   0.843  23.451  0.00  0.00    -0.239 NA
ATOM     28  C   UNL     1       2.123   1.284  23.330  0.00  0.00    +0.099 A 
ATOM     29  C   UNL     1       2.758   0.956  22.918  0.00  0.00    +0.021 A 
ATOM     30  C   UNL     1       2.706   0.185  22.626  0.00  0.00    +0.003 A 
ATOM     31  C   UNL     1       2.019  -0.255  22.747  0.00  0.00    +0.024 A 
ENDBRANCH  24  26
ENDBRANCH  22  23
BRANCH  15  13
ATOM     13  C   UNL     1      -3.554  -0.830  25.634  0.00  0.00    +0.081 C 
ATOM     14  C   UNL     1      -3.592  -0.896  26.456  0.00  0.00    +0.010 C 
BRANCH  13  11
ATOM     10  N   UNL     1      -4.315   0.354  25.389  0.00  0.00    -0.201 NA
ATOM     11  C   UNL     1      -4.153  -0.437  25.224  0.00  0.00    +0.241 C 
ATOM     12  O   UNL     1      -4.590  -0.837  24.649  0.00  0.00    -0.273 OA
BRANCH  10   9
ATOM      9  C   UNL     1      -4.913   0.747  24.980  0.00  0.00    +0.142 C 
BRANCH   9   8
ATOM      3  C   UNL     1      -5.165   3.199  25.202  0.00  0.00    +0.172 A 
ATOM      4  C   UNL     1      -4.639   2.887  24.647  0.00  0.00    +0.172 A 
ATOM      7  C   UNL     1      -4.556   2.069  24.574  0.00  0.00    +0.037 A 
ATOM      8  C   UNL     1      -4.997   1.564  25.053  0.00  0.00    +0.003 A 
ATOM     37  C   UNL     1      -5.522   1.877  25.608  0.00  0.00    +0.001 A 
ATOM     38  C   UNL     1      -5.606   2.694  25.682  0.00  0.00    +0.040 A 
BRANCH   3   2
ATOM      1  C   UNL     1      -5.898   4.329  25.676  0.00  0.00    +0.253 C 
ATOM      2  O   UNL     1      -5.249   4.016  25.276  0.00  0.00    -0.468 OA
ENDBRANCH   3   2
BRANCH   4   5
ATOM      5  O   UNL     1      -4.199   3.392  24.168  0.00  0.00    -0.468 OA
ATOM      6  C   UNL     1      -3.620   3.084  23.666  0.00  0.00    +0.253 C 
ENDBRANCH   4   5
ENDBRANCH   9   8
ENDBRANCH  10   9
ENDBRANCH  13  11
ENDBRANCH  15  13
TORSDOF 8
ENDMDL
MODEL 5
REMARK VINA RESULT:     -10.1      3.031      5.158
REMARK  Name = 
REMARK  8 active torsions:
REMARK  status: ('A' for Active; 'I' for Inactive)
REMARK    1  A    between atoms: O_2  and  C_3
REMARK    2  A    between atoms: C_4  and  O_5
REMARK    3  A    between atoms: C_8  and  C_9
REMARK    4  A    between atoms: C_9  and  N_10
REMARK    5  A    between atoms: C_11  and  C_13
REMARK    6  A    between atoms: C_13  and  C_15
REMARK    7  A    between atoms: C_22  and  N_23
REMARK    8  A    between atoms: C_24  and  C_26
REMARK                            x       y       z     vdW  Elec       q    Type
REMARK                         _______ _______ _______ _____ _____    ______ ____
ROOT
ATOM     15  C   UNL     1      -0.053   0.691  23.961  0.00  0.00    +0.039 C 
ATOM     16  C   UNL     1       0.353   1.409  24.008  0.00  0.00    +0.003 C 
ATOM     17  C   UNL     1      -0.043   2.091  24.249  0.00  0.00    +0.000 C 
ATOM     18  C   UNL     1      -0.843   2.057  24.443  0.00  0.00    +0.002 C 
ATOM     19  C   UNL     1      -0.438   2.773  24.489  0.00  0.00    +0.000 C 
ATOM     20  C   UNL     1      -1.239   2.739  24.684  0.00  0.00    +0.002 C 
ATOM     21  C   UNL     1      -2.040   2.705  24.878  0.00  0.00    +0.022 C 
ATOM     22  C   UNL     1      -2.446   1.987  24.831  0.00  0.00    +0.096 C 
ATOM     32  C   UNL     1      -2.050   1.305  24.590  0.00  0.00    +0.022 C 
ATOM     33  C   UNL     1      -2.455   0.588  24.544  0.00  0.00    +0.002 C 
ATOM     34  C   UNL     1      -1.249   1.339  24.396  0.00  0.00    +0.032 C 
ATOM     35  C   UNL     1      -0.853   0.657  24.155  0.00  0.00    +0.152 C 
ATOM     36  O   UNL     1      -1.258  -0.060  24.108  0.00  0.00    -0.223 OA
ENDROOT
BRANCH  22  23
ATOM     23  N   UNL     1      -3.247   1.953  25.025  0.00  0.00    -0.202 NA
ATOM     24  C   UNL     1      -3.746   2.580  24.832  0.00  0.00    +0.282 C 
ATOM     25  O   UNL     1      -3.443   3.244  24.444  0.00  0.00    -0.267 OA
BRANCH  24  26
ATOM     26  C   UNL     1      -4.547   2.546  25.027  0.00  0.00    +0.136 A 
ATOM     27  N   UNL     1      -5.038   1.997  24.658  0.00  0.00    -0.239 NA
ATOM     28  C   UNL     1      -5.840   1.963  24.852  0.00  0.00    +0.099 A 
ATOM     29  C   UNL     1      -6.149   2.480  25.416  0.00  0.00    +0.021 A 
ATOM     30  C   UNL     1      -5.657   3.030  25.786  0.00  0.00    +0.003 A 
ATOM     31  C   UNL     1      -4.856   3.063  25.591  0.00  0.00    +0.024 A 
ENDBRANCH  24  26
ENDBRANCH  22  23
BRANCH  15  13
ATOM     13  C   UNL     1       0.344   0.009  23.720  0.00  0.00    +0.081 C 
ATOM     14  C   UNL     1       0.190  -0.710  24.094  0.00  0.00    +0.010 C 
BRANCH  13  11
ATOM     10  N   UNL     1       1.701   0.042  23.273  0.00  0.00    -0.201 NA
ATOM     11  C   UNL     1       0.894   0.045  23.106  0.00  0.00    +0.241 C 
ATOM     12  O   UNL     1       0.635   0.084  22.322  0.00  0.00    -0.273 OA
BRANCH  10   9
ATOM      9  C   UNL     1       2.250   0.078  22.660  0.00  0.00    +0.142 C 
BRANCH   9   8
ATOM      3  C   UNL     1       4.670   0.208  23.165  0.00  0.00    +0.172 A 
ATOM      4  C   UNL     1       4.260  -0.498  23.288  0.00  0.00    +0.172 A 
ATOM      7  C   UNL     1       3.453  -0.541  23.119  0.00  0.00    +0.037 A 
ATOM      8  C   UNL     1       3.057   0.121  22.828  0.00  0.00    +0.003 A 
ATOM     37  C   UNL     1       3.466   0.827  22.706  0.00  0.00    +0.001 A 
ATOM     38  C   UNL     1       4.273   0.871  22.874  0.00  0.00    +0.040 A 
BRANCH   3   2
ATOM      1  C   UNL     1       5.764   0.853  23.818  0.00  0.00    +0.253 C 
ATOM      2  O   UNL     1       5.476   0.252  23.334  0.00  0.00    -0.468 OA
ENDBRANCH   3   2
BRANCH   4   5
ATOM      5  O   UNL     1       4.657  -1.159  23.579  0.00  0.00    -0.468 OA
ATOM      6  C   UNL     1       4.230  -1.786  23.906  0.00  0.00    +0.253 C 
ENDBRANCH   4   5
ENDBRANCH   9   8
ENDBRANCH  10   9
ENDBRANCH  13  11
ENDBRANCH  15  13
TORSDOF 8
ENDMDL
MODEL 6
REMARK VINA RESULT:     -10.1      2.119      4.636
REMARK  Name = 
REMARK  8 active torsions:
REMARK  status: ('A' for Active; 'I' for Inactive)
REMARK    1  A    between atoms: O_2  and  C_3
REMARK    2  A    between atoms: C_4  and  O_5
REMARK    3  A    between atoms: C_8  and  C_9
REMARK    4  A    between atoms: C_9  and  N_10
REMARK    5  A    between atoms: C_11  and  C_13
REMARK    6  A    between atoms: C_13  and  C_15
REMARK    7  A    between atoms: C_22  and  N_23
REMARK    8  A    between atoms: C_24  and  C_26
REMARK                            x       y       z     vdW  Elec       q    Type
REMARK                         _______ _______ _______ _____ _____    ______ ____
ROOT
ATOM     15  C   UNL     1      -1.926  -1.263  24.690  0.00  0.00    +0.039 C 
ATOM     16  C   UNL     1      -2.456  -1.819  24.386  0.00  0.00    +0.003 C 
ATOM     17  C   UNL     1      -3.259  -1.639  24.338  0.00  0.00    +0.000 C 
ATOM     18  C   UNL     1      -3.534  -0.905  24.594  0.00  0.00    +0.002 C 
ATOM     19  C   UNL     1      -4.062  -1.459  24.290  0.00  0.00    +0.000 C 
ATOM     20  C   UNL     1      -4.337  -0.724  24.547  0.00  0.00    +0.002 C 
ATOM     21  C   UNL     1      -4.612   0.010  24.803  0.00  0.00    +0.022 C 
ATOM     22  C   UNL     1      -4.081   0.565  25.107  0.00  0.00    +0.096 C 
ATOM     32  C   UNL     1      -3.278   0.385  25.155  0.00  0.00    +0.022 C 
ATOM     33  C   UNL     1      -2.749   0.940  25.459  0.00  0.00    +0.002 C 
ATOM     34  C   UNL     1      -3.003  -0.349  24.899  0.00  0.00    +0.032 C 
ATOM     35  C   UNL     1      -2.200  -0.529  24.946  0.00  0.00    +0.152 C 
ATOM     36  O   UNL     1      -1.671   0.026  25.251  0.00  0.00    -0.223 OA
ENDROOT
BRANCH  22  23
ATOM     23  N   UNL     1      -4.356   1.300  25.364  0.00  0.00    -0.202 NA
ATOM     24  C   UNL     1      -4.812   1.769  24.861  0.00  0.00    +0.282 C 
ATOM     25  O   UNL     1      -4.994   1.503  24.101  0.00  0.00    -0.267 OA
BRANCH  24  26
ATOM     26  C   UNL     1      -5.087   2.503  25.118  0.00  0.00    +0.136 A 
ATOM     27  N   UNL     1      -4.641   3.182  24.979  0.00  0.00    -0.239 NA
ATOM     28  C   UNL     1      -4.916   3.917  25.235  0.00  0.00    +0.099 A 
ATOM     29  C   UNL     1      -5.638   3.972  25.630  0.00  0.00    +0.021 A 
ATOM     30  C   UNL     1      -6.085   3.292  25.770  0.00  0.00    +0.003 A 
ATOM     31  C   UNL     1      -5.809   2.558  25.513  0.00  0.00    +0.024 A 
ENDBRANCH  24  26
ENDBRANCH  22  23
BRANCH  15  13
ATOM     13  C   UNL     1      -1.122  -1.444  24.738  0.00  0.00    +0.081 C 
ATOM     14  C   UNL     1      -0.787  -1.640  25.465  0.00  0.00    +0.010 C 
BRANCH  13  11
ATOM     10  N   UNL     1      -0.113  -0.817  23.944  0.00  0.00    -0.201 NA
ATOM     11  C   UNL     1      -0.654  -1.428  24.059  0.00  0.00    +0.241 C 
ATOM     12  O   UNL     1      -0.727  -2.026  23.494  0.00  0.00    -0.273 OA
BRANCH  10   9
ATOM      9  C   UNL     1       0.355  -0.801  23.266  0.00  0.00    +0.142 C 
BRANCH   9   8
ATOM      3  C   UNL     1       2.250   0.782  23.100  0.00  0.00    +0.172 A 
ATOM      4  C   UNL     1       1.550   1.014  23.469  0.00  0.00    +0.172 A 
ATOM      7  C   UNL     1       0.918   0.486  23.524  0.00  0.00    +0.037 A 
ATOM      8  C   UNL     1       0.986  -0.273  23.211  0.00  0.00    +0.003 A 
ATOM     37  C   UNL     1       1.687  -0.506  22.842  0.00  0.00    +0.001 A 
ATOM     38  C   UNL     1       2.319   0.021  22.787  0.00  0.00    +0.040 A 
BRANCH   3   2
ATOM      1  C   UNL     1       3.604   1.056  22.739  0.00  0.00    +0.253 C 
ATOM      2  O   UNL     1       2.882   1.309  23.045  0.00  0.00    -0.468 OA
ENDBRANCH   3   2
BRANCH   4   5
ATOM      5  O   UNL     1       1.481   1.774  23.782  0.00  0.00    -0.468 OA
ATOM      6  C   UNL     1       0.758   2.031  24.087  0.00  0.00    +0.253 C 
ENDBRANCH   4   5
ENDBRANCH   9   8
ENDBRANCH  10   9
ENDBRANCH  13  11
ENDBRANCH  15  13
TORSDOF 8
ENDMDL
MODEL 7
REMARK VINA RESULT:      -9.9      1.712      5.356
REMARK  Name = 
REMARK  8 active torsions:
REMARK  status: ('A' for Active; 'I' for Inactive)
REMARK    1  A    between atoms: O_2  and  C_3
REMARK    2  A    between atoms: C_4  and  O_5
REMARK    3  A    between atoms: C_8  and  C_9
REMARK    4  A    between atoms: C_9  and  N_10
REMARK    5  A    between atoms: C_11  and  C_13
REMARK    6  A    between atoms: C_13  and  C_15
REMARK    7  A    between atoms: C_22  and  N_23
REMARK    8  A    between atoms: C_24  and  C_26
REMARK                            x       y       z     vdW  Elec       q    Type
REMARK                         _______ _______ _______ _____ _____    ______ ____
ROOT
ATOM     15  C   UNL     1      -0.458   1.319  24.351  0.00  0.00    +0.039 C 
ATOM     16  C   UNL     1       0.051   1.685  24.888  0.00  0.00    +0.003 C 
ATOM     17  C   UNL     1      -0.217   2.318  25.344  0.00  0.00    +0.000 C 
ATOM     18  C   UNL     1      -0.992   2.585  25.264  0.00  0.00    +0.002 C 
ATOM     19  C   UNL     1      -0.484   2.950  25.800  0.00  0.00    +0.000 C 
ATOM     20  C   UNL     1      -1.261   3.218  25.720  0.00  0.00    +0.002 C 
ATOM     21  C   UNL     1      -2.037   3.485  25.640  0.00  0.00    +0.022 C 
ATOM     22  C   UNL     1      -2.546   3.118  25.103  0.00  0.00    +0.096 C 
ATOM     32  C   UNL     1      -2.278   2.485  24.647  0.00  0.00    +0.022 C 
ATOM     33  C   UNL     1      -2.787   2.119  24.111  0.00  0.00    +0.002 C 
ATOM     34  C   UNL     1      -1.502   2.218  24.727  0.00  0.00    +0.032 C 
ATOM     35  C   UNL     1      -1.234   1.585  24.271  0.00  0.00    +0.152 C 
ATOM     36  O   UNL     1      -1.743   1.219  23.735  0.00  0.00    -0.223 OA
ENDROOT
BRANCH  22  23
ATOM     23  N   UNL     1      -3.323   3.385  25.024  0.00  0.00    -0.202 NA
ATOM     24  C   UNL     1      -3.804   3.462  25.689  0.00  0.00    +0.282 C 
ATOM     25  O   UNL     1      -3.508   3.270  26.436  0.00  0.00    -0.267 OA
BRANCH  24  26
ATOM     26  C   UNL     1      -4.580   3.729  25.609  0.00  0.00    +0.136 A 
ATOM     27  N   UNL     1      -4.728   4.518  25.422  0.00  0.00    -0.239 NA
ATOM     28  C   UNL     1      -5.505   4.786  25.343  0.00  0.00    +0.099 A 
ATOM     29  C   UNL     1      -6.133   4.263  25.450  0.00  0.00    +0.021 A 
ATOM     30  C   UNL     1      -5.986   3.472  25.638  0.00  0.00    +0.003 A 
ATOM     31  C   UNL     1      -5.209   3.206  25.717  0.00  0.00    +0.024 A 
ENDBRANCH  24  26
ENDBRANCH  22  23
BRANCH  15  13
ATOM     13  C   UNL     1      -0.190   0.685  23.895  0.00  0.00    +0.081 C 
ATOM     14  C   UNL     1       0.068   0.815  23.122  0.00  0.00    +0.010 C 
BRANCH  13  11
ATOM     10  N   UNL     1      -0.871  -0.526  24.229  0.00  0.00    -0.201 NA
ATOM     11  C   UNL     1      -0.180  -0.077  24.211  0.00  0.00    +0.241 C 
ATOM     12  O   UNL     1       0.524  -0.390  24.509  0.00  0.00    -0.273 OA
BRANCH  10   9
ATOM      9  C   UNL     1      -0.860  -1.287  24.544  0.00  0.00    +0.142 C 
BRANCH   9   8
ATOM      3  C   UNL     1      -2.958  -2.589  24.715  0.00  0.00    +0.172 A 
ATOM      4  C   UNL     1      -2.842  -1.929  25.196  0.00  0.00    +0.172 A 
ATOM      7  C   UNL     1      -2.143  -1.495  25.138  0.00  0.00    +0.037 A 
ATOM      8  C   UNL     1      -1.559  -1.721  24.602  0.00  0.00    +0.003 A 
ATOM     37  C   UNL     1      -1.675  -2.382  24.121  0.00  0.00    +0.001 A 
ATOM     38  C   UNL     1      -2.374  -2.816  24.177  0.00  0.00    +0.040 A 
BRANCH   3   2
ATOM      1  C   UNL     1      -3.988  -3.361  24.096  0.00  0.00    +0.253 C 
ATOM      2  O   UNL     1      -3.657  -3.024  24.771  0.00  0.00    -0.468 OA
ENDBRANCH   3   2
BRANCH   4   5
ATOM      5  O   UNL     1      -3.426  -1.703  25.733  0.00  0.00    -0.468 OA
ATOM      6  C   UNL     1      -3.380  -0.968  26.107  0.00  0.00    +0.253 C 
ENDBRANCH   4   5
ENDBRANCH   9   8
ENDBRANCH  10   9
ENDBRANCH  13  11
ENDBRANCH  15  13
TORSDOF 8
ENDMDL
MODEL 8
REMARK VINA RESULT:      -9.5      2.128      4.811
REMARK  Name = 
REMARK  8 active torsions:
REMARK  status: ('A' for Active; 'I' for Inactive)
REMARK    1  A    between atoms: O_2  and  C_3
REMARK    2  A    between atoms: C_4  and  O_5
REMARK    3  A    between atoms: C_8  and  C_9
REMARK    4  A    between atoms: C_9  and  N_10
REMARK    5  A    between atoms: C_11  and  C_13
REMARK    6  A    between atoms: C_13  and  C_15
REMARK    7  A    between atoms: C_22  and  N_23
REMARK    8  A    between atoms: C_24  and  C_26
REMARK                            x       y       z     vdW  Elec       q    Type
REMARK                         _______ _______ _______ _____ _____    ______ ____
ROOT
ATOM     15  C   UNL     1      -1.595   3.832  25.296  0.00  0.00    +0.039 C 
ATOM     16  C   UNL     1      -1.588   3.518  26.060  0.00  0.00    +0.003 C 
ATOM     17  C   UNL     1      -1.095   2.883  26.240  0.00  0.00    +0.000 C 
ATOM     18  C   UNL     1      -0.609   2.560  25.657  0.00  0.00    +0.002 C 
ATOM     19  C   UNL     1      -0.602   2.247  26.419  0.00  0.00    +0.000 C 
ATOM     20  C   UNL     1      -0.115   1.924  25.836  0.00  0.00    +0.002 C 
ATOM     21  C   UNL     1       0.371   1.601  25.253  0.00  0.00    +0.022 C 
ATOM     22  C   UNL     1       0.363   1.915  24.489  0.00  0.00    +0.096 C 
ATOM     32  C   UNL     1      -0.130   2.551  24.310  0.00  0.00    +0.022 C 
ATOM     33  C   UNL     1      -0.137   2.864  23.547  0.00  0.00    +0.002 C 
ATOM     34  C   UNL     1      -0.616   2.874  24.893  0.00  0.00    +0.032 C 
ATOM     35  C   UNL     1      -1.109   3.510  24.713  0.00  0.00    +0.152 C 
ATOM     36  O   UNL     1      -1.117   3.823  23.950  0.00  0.00    -0.223 OA
ENDROOT
BRANCH  22  23
ATOM     23  N   UNL     1       0.850   1.592  23.906  0.00  0.00    -0.202 NA
ATOM     24  C   UNL     1       0.846   0.779  23.770  0.00  0.00    +0.282 C 
ATOM     25  O   UNL     1       0.356   0.287  24.217  0.00  0.00    -0.267 OA
BRANCH  24  26
ATOM     26  C   UNL     1       1.333   0.456  23.187  0.00  0.00    +0.136 A 
ATOM     27  N   UNL     1       2.139   0.625  23.181  0.00  0.00    -0.239 NA
ATOM     28  C   UNL     1       2.626   0.302  22.598  0.00  0.00    +0.099 A 
ATOM     29  C   UNL     1       2.304  -0.191  22.020  0.00  0.00    +0.021 A 
ATOM     30  C   UNL     1       1.496  -0.361  22.026  0.00  0.00    +0.003 A 
ATOM     31  C   UNL     1       1.011  -0.038  22.609  0.00  0.00    +0.024 A 
ENDBRANCH  24  26
ENDBRANCH  22  23
BRANCH  15  13
ATOM     13  C   UNL     1      -2.089   4.469  25.117  0.00  0.00    +0.081 C 
ATOM     14  C   UNL     1      -1.852   5.238  25.299  0.00  0.00    +0.010 C 
BRANCH  13  11
ATOM     10  N   UNL     1      -3.398   3.896  25.144  0.00  0.00    -0.201 NA
ATOM     11  C   UNL     1      -2.819   4.337  24.756  0.00  0.00    +0.241 C 
ATOM     12  O   UNL     1      -2.971   4.647  24.006  0.00  0.00    -0.273 OA
BRANCH  10   9
ATOM      9  C   UNL     1      -4.128   3.765  24.783  0.00  0.00    +0.142 C 
BRANCH   9   8
ATOM      3  C   UNL     1      -5.665   2.047  25.684  0.00  0.00    +0.172 A 
ATOM      4  C   UNL     1      -5.106   1.841  25.113  0.00  0.00    +0.172 A 
ATOM      7  C   UNL     1      -4.593   2.414  24.813  0.00  0.00    +0.037 A 
ATOM      8  C   UNL     1      -4.640   3.192  25.083  0.00  0.00    +0.003 A 
ATOM     37  C   UNL     1      -5.199   3.397  25.654  0.00  0.00    +0.001 A 
ATOM     38  C   UNL     1      -5.711   2.825  25.955  0.00  0.00    +0.040 A 
BRANCH   3   2
ATOM      1  C   UNL     1      -6.604   1.624  26.673  0.00  0.00    +0.253 C 
ATOM      2  O   UNL     1      -6.177   1.474  25.985  0.00  0.00    -0.468 OA
ENDBRANCH   3   2
BRANCH   4   5
ATOM      5  O   UNL     1      -5.059   1.064  24.843  0.00  0.00    -0.468 OA
ATOM      6  C   UNL     1      -4.339   0.764  24.571  0.00  0.00    +0.253 C 
ENDBRANCH   4   5
ENDBRANCH   9   8
ENDBRANCH  10   9
ENDBRANCH  13  11
ENDBRANCH  15  13
TORSDOF 8
ENDMDL
MODEL 9
REMARK VINA RESULT:      -9.3      1.690      4.968
REMARK  Name = 
REMARK  8 active torsions:
REMARK  status: ('A' for Active; 'I' for Inactive)
REMARK    1  A    between atoms: O_2  and  C_3
REMARK    2  A    between atoms: C_4  and  O_5
REMARK    3  A    between atoms: C_8  and  C_9
REMARK    4  A    between atoms: C_9  and  N_10
REMARK    5  A    between atoms: C_11  and  C_13
REMARK    6  A    between atoms: C_13  and  C_15
REMARK    7  A    between atoms: C_22  and  N_23
REMARK    8  A    between atoms: C_24  and  C_26
REMARK                            x       y       z     vdW  Elec       q    Type
REMARK                         _______ _______ _______ _____ _____    ______ ____
ROOT
ATOM     15  C   UNL     1      -4.424   0.409  24.349  0.00  0.00    +0.039 C 
ATOM     16  C   UNL     1      -5.057   0.552  24.860  0.00  0.00    +0.003 C 
ATOM     17  C   UNL     1      -5.132   1.287  25.226  0.00  0.00    +0.000 C 
ATOM     18  C   UNL     1      -4.577   1.878  25.082  0.00  0.00    +0.002 C 
ATOM     19  C   UNL     1      -5.208   2.021  25.593  0.00  0.00    +0.000 C 
ATOM     20  C   UNL     1      -4.652   2.614  25.449  0.00  0.00    +0.002 C 
ATOM     21  C   UNL     1      -4.096   3.206  25.305  0.00  0.00    +0.022 C 
ATOM     22  C   UNL     1      -3.464   3.063  24.793  0.00  0.00    +0.096 C 
ATOM     32  C   UNL     1      -3.388   2.328  24.427  0.00  0.00    +0.022 C 
ATOM     33  C   UNL     1      -2.757   2.185  23.916  0.00  0.00    +0.002 C 
ATOM     34  C   UNL     1      -3.944   1.735  24.571  0.00  0.00    +0.032 C 
ATOM     35  C   UNL     1      -3.869   1.001  24.205  0.00  0.00    +0.152 C 
ATOM     36  O   UNL     1      -3.237   0.858  23.694  0.00  0.00    -0.223 OA
ENDROOT
BRANCH  22  23
ATOM     23  N   UNL     1      -2.908   3.655  24.650  0.00  0.00    -0.202 NA
ATOM     24  C   UNL     1      -2.450   3.951  25.268  0.00  0.00    +0.282 C 
ATOM     25  O   UNL     1      -2.547   3.653  26.032  0.00  0.00    -0.267 OA
BRANCH  24  26
ATOM     26  C   UNL     1      -1.894   4.543  25.124  0.00  0.00    +0.136 A 
ATOM     27  N   UNL     1      -1.107   4.345  24.978  0.00  0.00    -0.239 NA
ATOM     28  C   UNL     1      -0.551   4.938  24.834  0.00  0.00    +0.099 A 
ATOM     29  C   UNL     1      -0.783   5.729  24.837  0.00  0.00    +0.021 A 
ATOM     30  C   UNL     1      -1.571   5.928  24.983  0.00  0.00    +0.003 A 
ATOM     31  C   UNL     1      -2.126   5.335  25.127  0.00  0.00    +0.024 A 
ENDBRANCH  24  26
ENDBRANCH  22  23
BRANCH  15  13
ATOM     13  C   UNL     1      -4.349  -0.327  23.982  0.00  0.00    +0.081 C 
ATOM     14  C   UNL     1      -4.558  -0.415  23.189  0.00  0.00    +0.010 C 
BRANCH  13  11
ATOM     10  N   UNL     1      -3.267  -1.174  24.373  0.00  0.00    -0.201 NA
ATOM     11  C   UNL     1      -4.066  -0.974  24.408  0.00  0.00    +0.241 C 
ATOM     12  O   UNL     1      -4.583  -1.422  24.870  0.00  0.00    -0.273 OA
BRANCH  10   9
ATOM      9  C   UNL     1      -2.984  -1.821  24.798  0.00  0.00    +0.142 C 
BRANCH   9   8
ATOM      3  C   UNL     1      -0.562  -2.040  25.258  0.00  0.00    +0.172 A 
ATOM      4  C   UNL     1      -0.982  -1.398  25.561  0.00  0.00    +0.172 A 
ATOM      7  C   UNL     1      -1.790  -1.326  25.408  0.00  0.00    +0.037 A 
ATOM      8  C   UNL     1      -2.176  -1.894  24.952  0.00  0.00    +0.003 A 
ATOM     37  C   UNL     1      -1.756  -2.535  24.649  0.00  0.00    +0.001 A 
ATOM     38  C   UNL     1      -0.948  -2.609  24.802  0.00  0.00    +0.040 A 
BRANCH   3   2
ATOM      1  C   UNL     1       0.597  -2.859  25.423  0.00  0.00    +0.253 C 
ATOM      2  O   UNL     1       0.246  -2.114  25.411  0.00  0.00    -0.468 OA
ENDBRANCH   3   2
BRANCH   4   5
ATOM      5  O   UNL     1      -0.596  -0.831  26.017  0.00  0.00    -0.468 OA
ATOM      6  C   UNL     1      -0.970  -0.114  26.188  0.00  0.00    +0.253 C 
ENDBRANCH   4   5
ENDBRANCH   9   8
ENDBRANCH  10   9
ENDBRANCH  13  11
ENDBRANCH  15  13
TORSDOF 8
ENDMDL
MODEL 10
REMARK VINA RESULT:      -9.1      2.517      5.597
REMARK  Name = 
REMARK  8 active torsions:
REMARK  status: ('A' for Active; 'I' for Inactive)
REMARK    1  A    between atoms: O_2  and  C_3
REMARK    2  A    between atoms: C_4  and  O_5
REMARK    3  A    between atoms: C_8  and  C_9
REMARK    4  A    between atoms: C_9  and  N_10
REMARK    5  A    between atoms: C_11  and  C_13
REMARK    6  A    between atoms: C_13  and  C_15
REMARK    7  A    between atoms: C_22  and  N_23
REMARK    8  A    between atoms: C_24  and  C_26
REMARK                            x       y       z     vdW  Elec       q    Type
REMARK                         _______ _______ _______ _____ _____    ______ ____
ROOT
ATOM     15  C   UNL     1      -2.014   0.254  24.983  0.00  0.00    +0.039 C 
ATOM     16  C   UNL     1      -1.956   0.959  25.409  0.00  0.00    +0.003 C 
ATOM     17  C   UNL     1      -1.276   1.421  25.352  0.00  0.00    +0.000 C 
ATOM     18  C   UNL     1      -0.652   1.179  24.870  0.00  0.00    +0.002 C 
ATOM     19  C   UNL     1      -0.595   1.882  25.295  0.00  0.00    +0.000 C 
ATOM     20  C   UNL     1       0.029   1.640  24.813  0.00  0.00    +0.002 C 
ATOM     21  C   UNL     1       0.653   1.398  24.331  0.00  0.00    +0.022 C 
ATOM     22  C   UNL     1       0.595   0.693  23.905  0.00  0.00    +0.096 C 
ATOM     32  C   UNL     1      -0.086   0.231  23.962  0.00  0.00    +0.022 C 
ATOM     33  C   UNL     1      -0.143  -0.473  23.536  0.00  0.00    +0.002 C 
ATOM     34  C   UNL     1      -0.710   0.473  24.444  0.00  0.00    +0.032 C 
ATOM     35  C   UNL     1      -1.391   0.012  24.501  0.00  0.00    +0.152 C 
ATOM     36  O   UNL     1      -1.448  -0.692  24.075  0.00  0.00    -0.223 OA
ENDROOT
BRANCH  22  23
ATOM     23  N   UNL     1       1.220   0.451  23.422  0.00  0.00    -0.202 NA
ATOM     24  C   UNL     1       1.890   0.924  23.346  0.00  0.00    +0.282 C 
ATOM     25  O   UNL     1       1.937   1.642  23.753  0.00  0.00    -0.267 OA
BRANCH  24  26
ATOM     26  C   UNL     1       2.514   0.682  22.864  0.00  0.00    +0.136 A 
ATOM     27  N   UNL     1       2.369   0.201  22.211  0.00  0.00    -0.239 NA
ATOM     28  C   UNL     1       2.993  -0.041  21.729  0.00  0.00    +0.099 A 
ATOM     29  C   UNL     1       3.764   0.199  21.900  0.00  0.00    +0.021 A 
ATOM     30  C   UNL     1       3.910   0.681  22.554  0.00  0.00    +0.003 A 
ATOM     31  C   UNL     1       3.285   0.923  23.036  0.00  0.00    +0.024 A 
ENDBRANCH  24  26
ENDBRANCH  22  23
BRANCH  15  13
ATOM     13  C   UNL     1      -2.696  -0.207  25.040  0.00  0.00    +0.081 C 
ATOM     14  C   UNL     1      -2.672  -0.929  25.438  0.00  0.00    +0.010 C 
BRANCH  13  11
ATOM     10  N   UNL     1      -3.843   0.644  25.065  0.00  0.00    -0.201 NA
ATOM     11  C   UNL     1      -3.401   0.052  24.699  0.00  0.00    +0.241 C 
ATOM     12  O   UNL     1      -3.664  -0.282  23.991  0.00  0.00    -0.273 OA
BRANCH  10   9
ATOM      9  C   UNL     1      -4.547   0.903  24.724  0.00  0.00    +0.142 C 
BRANCH   9   8
ATOM      3  C   UNL     1      -5.589   3.017  25.483  0.00  0.00    +0.172 A 
ATOM      4  C   UNL     1      -5.782   2.305  25.854  0.00  0.00    +0.172 A 
ATOM      7  C   UNL     1      -5.434   1.601  25.600  0.00  0.00    +0.037 A 
ATOM      8  C   UNL     1      -4.895   1.608  24.977  0.00  0.00    +0.003 A 
ATOM     37  C   UNL     1      -4.702   2.319  24.606  0.00  0.00    +0.001 A 
ATOM     38  C   UNL     1      -5.048   3.023  24.858  0.00  0.00    +0.040 A 
BRANCH   3   2
ATOM      1  C   UNL     1      -5.686   4.440  25.419  0.00  0.00    +0.253 C 
ATOM      2  O   UNL     1      -5.935   3.721  25.735  0.00  0.00    -0.468 OA
ENDBRANCH   3   2
BRANCH   4   5
ATOM      5  O   UNL     1      -6.321   2.299  26.477  0.00  0.00    -0.468 OA
ATOM      6  C   UNL     1      -6.602   1.580  26.773  0.00  0.00    +0.253 C 
ENDBRANCH   4   5
ENDBRANCH   9   8
ENDBRANCH  10   9
ENDBRANCH  13  11
ENDBRANCH  15  13
TORSDOF 8
ENDMDL
