MODEL 1
REMARK VINA RESULT:     -11.0      0.000      0.000
REMARK  Name = 
REMARK  8 active torsions:
REMARK  status: ('A' for Active; 'I' for Inactive)
REMARK    1  A    between atoms: C_2  and  C_3
REMARK    2  A    between atoms: N_5  and  S_17
REMARK    3  A    between atoms: C_8  and  C_9
REMARK    4  A    between atoms: C_9  and  C_10
REMARK    5  A    between atoms: N_12  and  C_13
REMARK    6  A    between atoms: C_13  and  C_14
REMARK    7  A    between atoms: C_14  and  O_15
REMARK    8  A    between atoms: S_17  and  C_20
REMARK                            x       y       z     vdW  Elec       q    Type
REMARK                         _______ _______ _______ _____ _____    ______ ____
ROOT
ATOM      3  C   UNL     1      -4.827   1.574  25.088  0.00  0.00    +0.018 C 
ATOM      4  C   UNL     1      -4.752   0.757  25.009  0.00  0.00    +0.096 C 
ATOM      5  N   UNL     1      -4.049   0.434  24.724  0.00  0.00    -0.156 NA
ATOM      6  C   UNL     1      -3.421   0.927  24.517  0.00  0.00    +0.096 C 
ATOM      7  C   UNL     1      -3.497   1.745  24.596  0.00  0.00    +0.020 C 
ATOM      8  C   UNL     1      -4.200   2.069  24.882  0.00  0.00    +0.012 C 
ENDROOT
BRANCH   5  17
ATOM     17  S   UNL     1      -3.973  -0.384  24.645  0.00  0.00    +0.063 S 
ATOM     18  O   UNL     1      -4.000  -0.467  25.465  0.00  0.00    -0.153 OA
ATOM     19  O   UNL     1      -3.946  -0.301  23.824  0.00  0.00    -0.153 OA
BRANCH  17  20
ATOM     20  C   UNL     1      -3.897  -1.202  24.564  0.00  0.00    +0.122 A 
ATOM     21  C   UNL     1      -3.457  -1.631  25.113  0.00  0.00    +0.020 A 
ATOM     22  C   UNL     1      -3.380  -2.449  25.033  0.00  0.00    +0.001 A 
ATOM     23  C   UNL     1      -3.745  -2.837  24.402  0.00  0.00    +0.000 A 
ATOM     24  C   UNL     1      -4.186  -2.407  23.852  0.00  0.00    +0.001 A 
ATOM     25  C   UNL     1      -4.261  -1.589  23.934  0.00  0.00    +0.020 A 
ENDBRANCH  17  20
ENDBRANCH   5  17
BRANCH   3   2
ATOM      1  C   UNL     1      -6.256   1.590  25.129  0.00  0.00    +0.000 C 
ATOM      2  C   UNL     1      -5.531   1.898  25.374  0.00  0.00    +0.001 C 
ENDBRANCH   3   2
BRANCH   8   9
ATOM      9  C   UNL     1      -4.275   2.887  24.960  0.00  0.00    +0.087 C 
BRANCH   9  10
ATOM     10  C   UNL     1      -3.687   3.386  24.668  0.00  0.00    +0.241 C 
ATOM     11  O   UNL     1      -3.606   3.495  23.855  0.00  0.00    -0.273 OA
ATOM     12  N   UNL     1      -3.180   3.775  25.189  0.00  0.00    -0.203 NA
BRANCH  12  13
ATOM     13  C   UNL     1      -2.591   4.274  24.897  0.00  0.00    +0.147 C 
BRANCH  13  14
ATOM     14  C   UNL     1      -2.019   4.579  25.406  0.00  0.00    +0.166 C 
BRANCH  14  15
ATOM     15  O   UNL     1      -1.532   5.197  25.157  0.00  0.00    -0.349 OA
ATOM     16  C   UNL     1      -0.743   5.051  24.967  0.00  0.00    +0.174 C 
ENDBRANCH  14  15
ENDBRANCH  13  14
ENDBRANCH  12  13
ENDBRANCH   9  10
ENDBRANCH   8   9
TORSDOF 8
ENDMDL
MODEL 2
REMARK VINA RESULT:      -9.8      1.260      5.107
REMARK  Name = 
REMARK  8 active torsions:
REMARK  status: ('A' for Active; 'I' for Inactive)
REMARK    1  A    between atoms: C_2  and  C_3
REMARK    2  A    between atoms: N_5  and  S_17
REMARK    3  A    between atoms: C_8  and  C_9
REMARK    4  A    between atoms: C_9  and  C_10
REMARK    5  A    between atoms: N_12  and  C_13
REMARK    6  A    between atoms: C_13  and  C_14
REMARK    7  A    between atoms: C_14  and  O_15
REMARK    8  A    between atoms: S_17  and  C_20
REMARK                            x       y       z     vdW  Elec       q    Type
REMARK                         _______ _______ _______ _____ _____    ______ ____
ROOT
ATOM      3  C   UNL     1      -4.336   2.047  24.874  0.00  0.00    +0.018 C 
ATOM      4  C   UNL     1      -3.812   2.683  24.911  0.00  0.00    +0.096 C 
ATOM      5  N   UNL     1      -2.999   2.548  24.897  0.00  0.00    -0.156 NA
ATOM      6  C   UNL     1      -2.708   1.778  24.847  0.00  0.00    +0.096 C 
ATOM      7  C   UNL     1      -3.233   1.141  24.810  0.00  0.00    +0.020 C 
ATOM      8  C   UNL     1      -4.046   1.276  24.824  0.00  0.00    +0.012 C 
ENDROOT
BRANCH   5  17
ATOM     17  S   UNL     1      -2.474   3.184  24.934  0.00  0.00    +0.063 S 
ATOM     18  O   UNL     1      -2.358   3.042  25.738  0.00  0.00    -0.153 OA
ATOM     19  O   UNL     1      -2.591   3.326  24.129  0.00  0.00    -0.153 OA
BRANCH  17  20
ATOM     20  C   UNL     1      -1.950   3.820  24.970  0.00  0.00    +0.122 A 
ATOM     21  C   UNL     1      -2.220   4.566  25.195  0.00  0.00    +0.020 A 
ATOM     22  C   UNL     1      -1.695   5.202  25.231  0.00  0.00    +0.001 A 
ATOM     23  C   UNL     1      -0.900   5.091  25.041  0.00  0.00    +0.000 A 
ATOM     24  C   UNL     1      -0.630   4.345  24.815  0.00  0.00    +0.001 A 
ATOM     25  C   UNL     1      -1.155   3.710  24.780  0.00  0.00    +0.020 A 
ENDBRANCH  17  20
ENDBRANCH   5  17
BRANCH   3   2
ATOM      1  C   UNL     1      -5.451   2.849  25.270  0.00  0.00    +0.000 C 
ATOM      2  C   UNL     1      -5.151   2.182  24.888  0.00  0.00    +0.001 C 
ENDBRANCH   3   2
BRANCH   8   9
ATOM      9  C   UNL     1      -4.570   0.639  24.787  0.00  0.00    +0.087 C 
BRANCH   9  10
ATOM     10  C   UNL     1      -4.305  -0.124  24.952  0.00  0.00    +0.241 C 
ATOM     11  O   UNL     1      -4.035  -0.311  25.709  0.00  0.00    -0.273 OA
ATOM     12  N   UNL     1      -4.309  -0.699  24.362  0.00  0.00    -0.203 NA
BRANCH  12  13
ATOM     13  C   UNL     1      -4.044  -1.463  24.528  0.00  0.00    +0.147 C 
BRANCH  13  14
ATOM     14  C   UNL     1      -4.027  -2.033  23.932  0.00  0.00    +0.166 C 
BRANCH  14  15
ATOM     15  O   UNL     1      -4.042  -2.835  24.127  0.00  0.00    -0.349 OA
ATOM     16  C   UNL     1      -3.337  -3.257  24.192  0.00  0.00    +0.174 C 
ENDBRANCH  14  15
ENDBRANCH  13  14
ENDBRANCH  12  13
ENDBRANCH   9  10
ENDBRANCH   8   9
TORSDOF 8
ENDMDL
MODEL 3
REMARK VINA RESULT:      -9.3      2.210      3.037
REMARK  Name = 
REMARK  8 active torsions:
REMARK  status: ('A' for Active; 'I' for Inactive)
REMARK    1  A    between atoms: C_2  and  C_3
REMARK    2  A    between atoms: N_5  and  S_17
REMARK    3  A    between atoms: C_8  and  C_9
REMARK    4  A    between atoms: C_9  and  C_10
REMARK    5  A    between atoms: N_12  and  C_13
REMARK    6  A    between atoms: C_13  and  C_14
REMARK    7  A    between atoms: C_14  and  O_15
REMARK    8  A    between atoms: S_17  and  C_20
REMARK                            x       y       z     vdW  Elec       q    Type
REMARK                         _______ _______ _______ _____ _____    ______ ____
ROOT
ATOM      3  C   UNL     1      -0.601   0.373  24.356  0.00  0.00    +0.018 C 
ATOM      4  C   UNL     1      -1.159  -0.222  24.237  0.00  0.00    +0.096 C 
ATOM      5  N   UNL     1      -1.822  -0.269  24.725  0.00  0.00    -0.156 NA
ATOM      6  C   UNL     1      -1.928   0.279  25.332  0.00  0.00    +0.096 C 
ATOM      7  C   UNL     1      -1.369   0.875  25.452  0.00  0.00    +0.020 C 
ATOM      8  C   UNL     1      -0.706   0.922  24.964  0.00  0.00    +0.012 C 
ENDROOT
BRANCH   5  17
ATOM     17  S   UNL     1      -2.381  -0.864  24.605  0.00  0.00    +0.063 S 
ATOM     18  O   UNL     1      -1.976  -1.351  25.133  0.00  0.00    -0.153 OA
ATOM     19  O   UNL     1      -2.787  -0.377  24.077  0.00  0.00    -0.153 OA
BRANCH  17  20
ATOM     20  C   UNL     1      -2.941  -1.459  24.485  0.00  0.00    +0.122 A 
ATOM     21  C   UNL     1      -3.651  -1.287  24.103  0.00  0.00    +0.020 A 
ATOM     22  C   UNL     1      -4.210  -1.881  23.983  0.00  0.00    +0.001 A 
ATOM     23  C   UNL     1      -4.059  -2.648  24.246  0.00  0.00    +0.000 A 
ATOM     24  C   UNL     1      -3.348  -2.821  24.629  0.00  0.00    +0.001 A 
ATOM     25  C   UNL     1      -2.789  -2.226  24.748  0.00  0.00    +0.020 A 
ENDBRANCH  17  20
ENDBRANCH   5  17
BRANCH   3   2
ATOM      1  C   UNL     1       0.307  -0.241  23.439  0.00  0.00    +0.000 C 
ATOM      2  C   UNL     1       0.064   0.420  23.868  0.00  0.00    +0.001 C 
ENDBRANCH   3   2
BRANCH   8   9
ATOM      9  C   UNL     1      -0.148   1.518  25.084  0.00  0.00    +0.087 C 
BRANCH   9  10
ATOM     10  C   UNL     1      -0.359   2.206  25.485  0.00  0.00    +0.241 C 
ATOM     11  O   UNL     1      -0.395   2.210  26.309  0.00  0.00    -0.273 OA
ATOM     12  N   UNL     1      -0.534   2.892  25.062  0.00  0.00    -0.203 NA
BRANCH  12  13
ATOM     13  C   UNL     1      -0.745   3.582  25.463  0.00  0.00    +0.147 C 
BRANCH  13  14
ATOM     14  C   UNL     1      -0.917   4.269  25.040  0.00  0.00    +0.166 C 
BRANCH  14  15
ATOM     15  O   UNL     1      -1.453   4.818  25.343  0.00  0.00    -0.349 OA
ATOM     16  C   UNL     1      -1.495   5.575  25.022  0.00  0.00    +0.174 C 
ENDBRANCH  14  15
ENDBRANCH  13  14
ENDBRANCH  12  13
ENDBRANCH   9  10
ENDBRANCH   8   9
TORSDOF 8
ENDMDL
MODEL 4
REMARK VINA RESULT:      -9.1      2.381      4.242
REMARK  Name = 
REMARK  8 active torsions:
REMARK  status: ('A' for Active; 'I' for Inactive)
REMARK    1  A    between atoms: C_2  and  C_3
REMARK    2  A    between atoms: N_5  and  S_17
REMARK    3  A    between atoms: C_8  and  C_9
REMARK    4  A    between atoms: C_9  and  C_10
REMARK    5  A    between atoms: N_12  and  C_13
REMARK    6  A    between atoms: C_13  and  C_14
REMARK    7  A    between atoms: C_14  and  O_15
REMARK    8  A    between atoms: S_17  and  C_20
REMARK                            x       y       z     vdW  Elec       q    Type
REMARK                         _______ _______ _______ _____ _____    ______ ____
ROOT
ATOM      3  C   UNL     1      -3.275  -0.870  24.526  0.00  0.00    +0.018 C 
ATOM      4  C   UNL     1      -3.875  -0.316  24.633  0.00  0.00    +0.096 C 
ATOM      5  N   UNL     1      -3.690   0.452  24.872  0.00  0.00    -0.156 NA
ATOM      6  C   UNL     1      -2.904   0.665  25.003  0.00  0.00    +0.096 C 
ATOM      7  C   UNL     1      -2.303   0.110  24.895  0.00  0.00    +0.020 C 
ATOM      8  C   UNL     1      -2.488  -0.658  24.657  0.00  0.00    +0.012 C 
ENDROOT
BRANCH   5  17
ATOM     17  S   UNL     1      -4.290   1.007  24.979  0.00  0.00    +0.063 S 
ATOM     18  O   UNL     1      -4.536   0.611  25.659  0.00  0.00    -0.153 OA
ATOM     19  O   UNL     1      -4.044   1.405  24.299  0.00  0.00    -0.153 OA
BRANCH  17  20
ATOM     20  C   UNL     1      -4.891   1.563  25.086  0.00  0.00    +0.122 A 
ATOM     21  C   UNL     1      -4.703   2.339  25.292  0.00  0.00    +0.020 A 
ATOM     22  C   UNL     1      -5.303   2.895  25.398  0.00  0.00    +0.001 A 
ATOM     23  C   UNL     1      -6.092   2.674  25.299  0.00  0.00    +0.000 A 
ATOM     24  C   UNL     1      -6.280   1.897  25.093  0.00  0.00    +0.001 A 
ATOM     25  C   UNL     1      -5.679   1.342  24.987  0.00  0.00    +0.020 A 
ENDBRANCH  17  20
ENDBRANCH   5  17
BRANCH   3   2
ATOM      1  C   UNL     1      -4.178  -1.791  23.909  0.00  0.00    +0.000 C 
ATOM      2  C   UNL     1      -3.460  -1.638  24.287  0.00  0.00    +0.001 C 
ENDBRANCH   3   2
BRANCH   8   9
ATOM      9  C   UNL     1      -1.886  -1.212  24.549  0.00  0.00    +0.087 C 
BRANCH   9  10
ATOM     10  C   UNL     1      -1.097  -0.980  24.598  0.00  0.00    +0.241 C 
ATOM     11  O   UNL     1      -0.740  -0.887  25.336  0.00  0.00    -0.273 OA
ATOM     12  N   UNL     1      -0.664  -0.840  23.911  0.00  0.00    -0.203 NA
BRANCH  12  13
ATOM     13  C   UNL     1       0.126  -0.608  23.960  0.00  0.00    +0.147 C 
BRANCH  13  14
ATOM     14  C   UNL     1       0.583  -0.553  23.276  0.00  0.00    +0.166 C 
BRANCH  14  15
ATOM     15  O   UNL     1       1.066   0.104  23.153  0.00  0.00    -0.349 OA
ATOM     16  C   UNL     1       1.751   0.035  22.700  0.00  0.00    +0.174 C 
ENDBRANCH  14  15
ENDBRANCH  13  14
ENDBRANCH  12  13
ENDBRANCH   9  10
ENDBRANCH   8   9
TORSDOF 8
ENDMDL
MODEL 5
REMARK VINA RESULT:      -9.0      2.557      5.890
REMARK  Name = 
REMARK  8 active torsions:
REMARK  status: ('A' for Active; 'I' for Inactive)
REMARK    1  A    between atoms: C_2  and  C_3
REMARK    2  A    between atoms: N_5  and  S_17
REMARK    3  A    between atoms: C_8  and  C_9
REMARK    4  A    between atoms: C_9  and  C_10
REMARK    5  A    between atoms: N_12  and  C_13
REMARK    6  A    between atoms: C_13  and  C_14
REMARK    7  A    between atoms: C_14  and  O_15
REMARK    8  A    between atoms: S_17  and  C_20
REMARK                            x       y       z     vdW  Elec       q    Type
REMARK                         _______ _______ _______ _____ _____    ______ ____
ROOT
ATOM      3  C   UNL     1      -0.313   0.883  24.302  0.00  0.00    +0.018 C 
ATOM      4  C   UNL     1      -0.452   1.693  24.365  0.00  0.00    +0.096 C 
ATOM      5  N   UNL     1      -0.966   1.980  24.943  0.00  0.00    -0.156 NA
ATOM      6  C   UNL     1      -1.341   1.456  25.458  0.00  0.00    +0.096 C 
ATOM      7  C   UNL     1      -1.201   0.645  25.394  0.00  0.00    +0.020 C 
ATOM      8  C   UNL     1      -0.687   0.358  24.816  0.00  0.00    +0.012 C 
ENDROOT
BRANCH   5  17
ATOM     17  S   UNL     1      -1.106   2.790  25.006  0.00  0.00    +0.063 S 
ATOM     18  O   UNL     1      -0.606   2.826  25.661  0.00  0.00    -0.153 OA
ATOM     19  O   UNL     1      -1.606   2.755  24.351  0.00  0.00    -0.153 OA
BRANCH  17  20
ATOM     20  C   UNL     1      -1.247   3.601  25.069  0.00  0.00    +0.122 A 
ATOM     21  C   UNL     1      -1.957   3.873  25.386  0.00  0.00    +0.020 A 
ATOM     22  C   UNL     1      -2.098   4.684  25.448  0.00  0.00    +0.001 A 
ATOM     23  C   UNL     1      -1.527   5.222  25.194  0.00  0.00    +0.000 A 
ATOM     24  C   UNL     1      -0.815   4.949  24.876  0.00  0.00    +0.001 A 
ATOM     25  C   UNL     1      -0.675   4.139  24.814  0.00  0.00    +0.020 A 
ENDBRANCH  17  20
ENDBRANCH   5  17
BRANCH   3   2
ATOM      1  C   UNL     1       0.896   1.008  23.549  0.00  0.00    +0.000 C 
ATOM      2  C   UNL     1       0.202   0.597  23.723  0.00  0.00    +0.001 C 
ENDBRANCH   3   2
BRANCH   8   9
ATOM      9  C   UNL     1      -0.548  -0.453  24.754  0.00  0.00    +0.087 C 
BRANCH   9  10
ATOM     10  C   UNL     1      -1.082  -0.990  25.079  0.00  0.00    +0.241 C 
ATOM     11  O   UNL     1      -1.131  -1.078  25.898  0.00  0.00    -0.273 OA
ATOM     12  N   UNL     1      -1.568  -1.438  24.587  0.00  0.00    -0.203 NA
BRANCH  12  13
ATOM     13  C   UNL     1      -2.103  -1.976  24.912  0.00  0.00    +0.147 C 
BRANCH  13  14
ATOM     14  C   UNL     1      -2.596  -2.417  24.420  0.00  0.00    +0.166 C 
BRANCH  14  15
ATOM     15  O   UNL     1      -3.331  -2.672  24.693  0.00  0.00    -0.349 OA
ATOM     16  C   UNL     1      -3.953  -2.784  24.163  0.00  0.00    +0.174 C 
ENDBRANCH  14  15
ENDBRANCH  13  14
ENDBRANCH  12  13
ENDBRANCH   9  10
ENDBRANCH   8   9
TORSDOF 8
ENDMDL
MODEL 6
REMARK VINA RESULT:      -8.5      2.769      4.489
REMARK  Name = 
REMARK  8 active torsions:
REMARK  status: ('A' for Active; 'I' for Inactive)
REMARK    1  A    between atoms: C_2  and  C_3
REMARK    2  A    between atoms: N_5  and  S_17
REMARK    3  A    between atoms: C_8  and  C_9
REMARK    4  A    between atoms: C_9  and  C_10
REMARK    5  A    between atoms: N_12  and  C_13
REMARK    6  A    between atoms: C_13  and  C_14
REMARK    7  A    between atoms: C_14  and  O_15
REMARK    8  A    between atoms: S_17  and  C_20
REMARK                            x       y       z     vdW  Elec       q    Type
REMARK                         _______ _______ _______ _____ _____    ______ ____
ROOT
ATOM      3  C   UNL     1      -1.528   3.498  24.983  0.00  0.00    +0.018 C 
ATOM      4  C   UNL     1      -2.346   3.484  25.079  0.00  0.00    +0.096 C 
ATOM      5  N   UNL     1      -2.762   2.780  24.965  0.00  0.00    -0.156 NA
ATOM      6  C   UNL     1      -2.360   2.092  24.754  0.00  0.00    +0.096 C 
ATOM      7  C   UNL     1      -1.540   2.107  24.658  0.00  0.00    +0.020 C 
ATOM      8  C   UNL     1      -1.124   2.810  24.772  0.00  0.00    +0.012 C 
ENDROOT
BRANCH   5  17
ATOM     17  S   UNL     1      -3.581   2.765  25.061  0.00  0.00    +0.063 S 
ATOM     18  O   UNL     1      -3.679   2.864  24.248  0.00  0.00    -0.153 OA
ATOM     19  O   UNL     1      -3.483   2.666  25.875  0.00  0.00    -0.153 OA
BRANCH  17  20
ATOM     20  C   UNL     1      -4.401   2.749  25.158  0.00  0.00    +0.122 A 
ATOM     21  C   UNL     1      -4.786   3.384  25.515  0.00  0.00    +0.020 A 
ATOM     22  C   UNL     1      -5.606   3.369  25.612  0.00  0.00    +0.001 A 
ATOM     23  C   UNL     1      -6.039   2.716  25.353  0.00  0.00    +0.000 A 
ATOM     24  C   UNL     1      -5.653   2.080  24.996  0.00  0.00    +0.001 A 
ATOM     25  C   UNL     1      -4.834   2.097  24.899  0.00  0.00    +0.020 A 
ENDBRANCH  17  20
ENDBRANCH   5  17
BRANCH   3   2
ATOM      1  C   UNL     1      -1.517   4.920  25.136  0.00  0.00    +0.000 C 
ATOM      2  C   UNL     1      -1.111   4.202  25.098  0.00  0.00    +0.001 C 
ENDBRANCH   3   2
BRANCH   8   9
ATOM      9  C   UNL     1      -0.304   2.825  24.676  0.00  0.00    +0.087 C 
BRANCH   9  10
ATOM     10  C   UNL     1       0.123   2.120  24.667  0.00  0.00    +0.241 C 
ATOM     11  O   UNL     1       0.150   1.646  25.342  0.00  0.00    -0.273 OA
ATOM     12  N   UNL     1       0.523   1.888  23.985  0.00  0.00    -0.203 NA
BRANCH  12  13
ATOM     13  C   UNL     1       0.951   1.182  23.976  0.00  0.00    +0.147 C 
BRANCH  13  14
ATOM     14  C   UNL     1       1.461   1.017  23.350  0.00  0.00    +0.166 C 
BRANCH  14  15
ATOM     15  O   UNL     1       1.459   0.268  23.002  0.00  0.00    -0.349 OA
ATOM     16  C   UNL     1       2.131  -0.007  22.612  0.00  0.00    +0.174 C 
ENDBRANCH  14  15
ENDBRANCH  13  14
ENDBRANCH  12  13
ENDBRANCH   9  10
ENDBRANCH   8   9
TORSDOF 8
ENDMDL
MODEL 7
REMARK VINA RESULT:      -8.2      1.433      2.231
REMARK  Name = 
REMARK  8 active torsions:
REMARK  status: ('A' for Active; 'I' for Inactive)
REMARK    1  A    between atoms: C_2  and  C_3
REMARK    2  A    between atoms: N_5  and  S_17
REMARK    3  A    between atoms: C_8  and  C_9
REMARK    4  A    between atoms: C_9  and  C_10
REMARK    5  A    between atoms: N_12  and  C_13
REMARK    6  A    between atoms: C_13  and  C_14
REMARK    7  A    between atoms: C_14  and  O_15
REMARK    8  A    between atoms: S_17  and  C_20
REMARK                            x       y       z     vdW  Elec       q    Type
REMARK                         _______ _______ _______ _____ _____    ______ ____
ROOT
ATOM      3  C   UNL     1      -2.428   1.172  24.816  0.00  0.00    +0.018 C 
ATOM      4  C   UNL     1      -2.558   0.359  24.785  0.00  0.00    +0.096 C 
ATOM      5  N   UNL     1      -3.284   0.066  24.524  0.00  0.00    -0.156 NA
ATOM      6  C   UNL     1      -3.880   0.588  24.294  0.00  0.00    +0.096 C 
ATOM      7  C   UNL     1      -3.750   1.403  24.325  0.00  0.00    +0.020 C 
ATOM      8  C   UNL     1      -3.024   1.695  24.586  0.00  0.00    +0.012 C 
ENDROOT
BRANCH   5  17
ATOM     17  S   UNL     1      -3.415  -0.747  24.493  0.00  0.00    +0.063 S 
ATOM     18  O   UNL     1      -3.711  -0.730  25.262  0.00  0.00    -0.153 OA
ATOM     19  O   UNL     1      -3.118  -0.765  23.723  0.00  0.00    -0.153 OA
BRANCH  17  20
ATOM     20  C   UNL     1      -3.545  -1.562  24.461  0.00  0.00    +0.122 A 
ATOM     21  C   UNL     1      -3.157  -2.063  24.987  0.00  0.00    +0.020 A 
ATOM     22  C   UNL     1      -3.287  -2.877  24.955  0.00  0.00    +0.001 A 
ATOM     23  C   UNL     1      -3.806  -3.190  24.395  0.00  0.00    +0.000 A 
ATOM     24  C   UNL     1      -4.195  -2.687  23.867  0.00  0.00    +0.001 A 
ATOM     25  C   UNL     1      -4.064  -1.874  23.901  0.00  0.00    +0.020 A 
ENDBRANCH  17  20
ENDBRANCH   5  17
BRANCH   3   2
ATOM      1  C   UNL     1      -1.094   0.942  25.276  0.00  0.00    +0.000 C 
ATOM      2  C   UNL     1      -1.701   1.465  25.077  0.00  0.00    +0.001 C 
ENDBRANCH   3   2
BRANCH   8   9
ATOM      9  C   UNL     1      -2.895   2.509  24.617  0.00  0.00    +0.087 C 
BRANCH   9  10
ATOM     10  C   UNL     1      -3.522   3.031  24.501  0.00  0.00    +0.241 C 
ATOM     11  O   UNL     1      -3.751   3.237  23.736  0.00  0.00    -0.273 OA
ATOM     12  N   UNL     1      -3.919   3.348  25.150  0.00  0.00    -0.203 NA
BRANCH  12  13
ATOM     13  C   UNL     1      -4.547   3.871  25.035  0.00  0.00    +0.147 C 
BRANCH  13  14
ATOM     14  C   UNL     1      -4.986   4.139  25.680  0.00  0.00    +0.166 C 
BRANCH  14  15
ATOM     15  O   UNL     1      -5.807   4.198  25.626  0.00  0.00    -0.349 OA
ATOM     16  C   UNL     1      -6.170   4.938  25.656  0.00  0.00    +0.174 C 
ENDBRANCH  14  15
ENDBRANCH  13  14
ENDBRANCH  12  13
ENDBRANCH   9  10
ENDBRANCH   8   9
TORSDOF 8
ENDMDL
