REMARK  Name = 
REMARK  4 active torsions:
REMARK  status: ('A' for Active; 'I' for Inactive)
REMARK    1  A    between atoms: C_3  and  C_4
REMARK    2  A    between atoms: C_6  and  C_11
REMARK    3  A    between atoms: C_14  and  N_15
REMARK    4  A    between atoms: C_16  and  C_18
REMARK                            x       y       z     vdW  Elec       q    Type
REMARK                         _______ _______ _______ _____ _____    ______ ____
ROOT
ATOM     11  C   UNL     1      -0.715   8.416   0.000  0.00  0.00    +0.006 A 
ATOM     12  C   UNL     1       0.000   8.004   0.000  0.00  0.00    -0.001 A 
ATOM     13  C   UNL     1       0.000   7.179   0.000  0.00  0.00    +0.016 A 
ATOM     14  C   UNL     1      -0.715   6.766   0.000  0.00  0.00    +0.073 A 
ATOM     23  C   UNL     1      -1.429   7.179   0.000  0.00  0.00    +0.016 A 
ATOM     24  C   UNL     1      -1.429   8.004   0.000  0.00  0.00    -0.001 A 
ENDROOT
BRANCH  11   6
ATOM      1  C   UNL     1       0.715  10.891   0.000  0.00  0.00    +0.115 C 
ATOM      2  N   UNL     1       0.000  10.479   0.000  0.00  0.00    -0.272 N 
ATOM      3  C   UNL     1       0.000   9.654   0.000  0.00  0.00    +0.140 C 
ATOM      6  C   UNL     1      -0.715   9.241   0.000  0.00  0.00    +0.159 C 
ATOM      7  O   UNL     1      -1.429   9.654   0.000  0.00  0.00    -0.341 OA
ATOM      8  C   UNL     1      -1.429  10.479   0.000  0.00  0.00    +0.227 C 
ATOM      9  C   UNL     1      -0.715  10.891   0.000  0.00  0.00    +0.256 C 
ATOM     10  O   UNL     1      -0.715  11.716   0.000  0.00  0.00    -0.272 OA
BRANCH   3   4
ATOM      4  C   UNL     1       0.715   9.241   0.000  0.00  0.00    +0.205 C 
ATOM      5  O   UNL     1       0.715   8.416   0.000  0.00  0.00    -0.218 OA
ENDBRANCH   3   4
ENDBRANCH  11   6
BRANCH  14  15
ATOM     15  N   UNL     1      -0.715   5.941   0.000  0.00  0.00    -0.179 NA
ATOM     16  C   UNL     1       0.000   5.529   0.000  0.00  0.00    +0.245 C 
ATOM     17  O   UNL     1       0.715   5.941   0.000  0.00  0.00    -0.273 OA
BRANCH  16  18
ATOM     18  C   UNL     1       0.000   4.704   0.000  0.00  0.00    +0.079 C 
ATOM     19  C   UNL     1       0.667   4.219   0.000  0.00  0.00    +0.009 C 
ATOM     20  C   UNL     1       0.412   3.434   0.000  0.00  0.00    +0.001 C 
ATOM     21  C   UNL     1      -0.412   3.434   0.000  0.00  0.00    +0.001 C 
ATOM     22  C   UNL     1      -0.667   4.219   0.000  0.00  0.00    +0.009 C 
ENDBRANCH  16  18
ENDBRANCH  14  15
TORSDOF 4
