REMARK  Name = 
REMARK  5 active torsions:
REMARK  status: ('A' for Active; 'I' for Inactive)
REMARK    1  A    between atoms: C_5  and  N_8
REMARK    2  A    between atoms: C_13  and  C_14
REMARK    3  A    between atoms: C_16  and  C_19
REMARK    4  A    between atoms: C_22  and  O_23
REMARK    5  A    between atoms: O_23  and  C_24
REMARK                            x       y       z     vdW  Elec       q    Type
REMARK                         _______ _______ _______ _____ _____    ______ ____
ROOT
ATOM     14  C   UNL     1      -2.047  -3.270   0.000  0.00  0.00    +0.251 A 
ATOM     15  N   UNL     1      -2.715  -3.755   0.000  0.00  0.00    -0.190 NA
ATOM     16  C   UNL     1      -3.382  -3.270   0.000  0.00  0.00    +0.203 A 
ATOM     17  N   UNL     1      -3.127  -2.486   0.000  0.00  0.00    -0.056 NA
ATOM     18  O   UNL     1      -2.303  -2.486   0.000  0.00  0.00    -0.336 OA
ENDROOT
BRANCH  14  13
ATOM      8  N   UNL     1      -0.596  -3.041   0.000  0.00  0.00    -0.265 NA
ATOM      9  C   UNL     1       0.072  -3.525   0.000  0.00  0.00    +0.106 C 
ATOM     10  C   UNL     1      -0.183  -4.310   0.000  0.00  0.00    +0.170 C 
ATOM     11  O   UNL     1       0.302  -4.977   0.000  0.00  0.00    -0.222 OA
ATOM     12  C   UNL     1      -1.008  -4.310   0.000  0.00  0.00    +0.060 C 
ATOM     13  C   UNL     1      -1.263  -3.525   0.000  0.00  0.00    +0.140 C 
BRANCH   8   5
ATOM      1  C   UNL     1      -0.596   0.260   0.000  0.00  0.00    +0.090 C 
ATOM      2  N   UNL     1      -0.596  -0.566   0.000  0.00  0.00    -0.271 NA
ATOM      3  C   UNL     1       0.119  -0.978   0.000  0.00  0.00    +0.074 C 
ATOM      4  C   UNL     1       0.119  -1.803   0.000  0.00  0.00    +0.033 C 
ATOM      5  C   UNL     1      -0.596  -2.216   0.000  0.00  0.00    +0.061 C 
ATOM      6  C   UNL     1      -1.310  -1.803   0.000  0.00  0.00    +0.033 C 
ATOM      7  C   UNL     1      -1.310  -0.978   0.000  0.00  0.00    +0.074 C 
ENDBRANCH   8   5
ENDBRANCH  14  13
BRANCH  16  19
ATOM     19  C   UNL     1      -4.167  -3.525   0.000  0.00  0.00    +0.039 A 
ATOM     20  C   UNL     1      -4.338  -4.332   0.000  0.00  0.00    +0.006 A 
ATOM     21  C   UNL     1      -5.123  -4.587   0.000  0.00  0.00    +0.037 A 
ATOM     22  C   UNL     1      -5.736  -4.035   0.000  0.00  0.00    +0.147 A 
ATOM     28  C   UNL     1      -5.565  -3.228   0.000  0.00  0.00    +0.037 A 
ATOM     29  C   UNL     1      -4.780  -2.973   0.000  0.00  0.00    +0.006 A 
BRANCH  22  23
ATOM     23  O   UNL     1      -6.521  -4.290   0.000  0.00  0.00    -0.404 OA
BRANCH  23  24
ATOM     24  C   UNL     1      -6.692  -5.097   0.000  0.00  0.00    +0.575 C 
ATOM     25  F   UNL     1      -6.864  -5.904   0.000  0.00  0.00    -0.133 F 
ATOM     26  F   UNL     1      -7.499  -4.926   0.000  0.00  0.00    -0.133 F 
ATOM     27  F   UNL     1      -5.885  -5.269   0.000  0.00  0.00    -0.133 F 
ENDBRANCH  23  24
ENDBRANCH  22  23
ENDBRANCH  16  19
TORSDOF 5
