MODEL 1
REMARK VINA RESULT:     -10.5      0.000      0.000
REMARK  Name = 
REMARK  6 active torsions:
REMARK  status: ('A' for Active; 'I' for Inactive)
REMARK    1  A    between atoms: N_2  and  C_3
REMARK    2  A    between atoms: C_3  and  C_4
REMARK    3  A    between atoms: C_6  and  C_8
REMARK    4  A    between atoms: C_15  and  C_16
REMARK    5  A    between atoms: C_16  and  N_17
REMARK    6  A    between atoms: C_19  and  C_22
REMARK                            x       y       z     vdW  Elec       q    Type
REMARK                         _______ _______ _______ _____ _____    ______ ____
ROOT
ATOM      8  C   UNL     1      -3.522   2.964  24.902  0.00  0.00    +0.093 C 
ATOM      9  C   UNL     1      -3.339   2.578  25.553  0.00  0.00    +0.081 C 
ATOM     10  N   UNL     1      -3.864   2.327  24.968  0.00  0.00    -0.272 NA
ATOM     11  C   UNL     1      -3.886   3.072  24.231  0.00  0.00    +0.072 C 
ATOM     12  C   UNL     1      -4.111   3.302  23.662  0.00  0.00    +0.018 C 
ATOM     13  C   UNL     1      -4.038   2.711  24.333  0.00  0.00    +0.013 C 
ATOM     14  C   UNL     1      -4.523   1.983  24.260  0.00  0.00    +0.019 C 
ATOM     15  C   UNL     1      -4.371   1.572  24.885  0.00  0.00    +0.082 C 
ENDROOT
BRANCH   8   6
ATOM      1  C   UNL     1      -2.010   3.242  25.502  0.00  0.00    +0.115 C 
ATOM      2  N   UNL     1      -2.402   3.835  25.083  0.00  0.00    -0.274 N 
ATOM      6  C   UNL     1      -3.157   3.696  24.783  0.00  0.00    +0.227 C 
ATOM      7  O   UNL     1      -3.550   4.288  24.363  0.00  0.00    -0.275 OA
BRANCH   2   3
ATOM      3  C   UNL     1      -2.039   4.565  24.963  0.00  0.00    +0.120 C 
BRANCH   3   4
ATOM      4  C   UNL     1      -1.247   4.671  25.169  0.00  0.00    -0.005 C 
ATOM      5  C   UNL     1      -0.837   5.336  24.905  0.00  0.00    -0.003 C 
ENDBRANCH   3   4
ENDBRANCH   2   3
ENDBRANCH   8   6
BRANCH  15  16
ATOM     16  C   UNL     1      -4.556   0.863  25.263  0.00  0.00    +0.145 C 
BRANCH  16  17
ATOM     17  N   UNL     1      -4.383   0.143  24.899  0.00  0.00    -0.229 N 
ATOM     18  C   UNL     1      -3.753  -0.355  25.085  0.00  0.00    +0.119 A 
ATOM     19  C   UNL     1      -3.791  -1.011  24.585  0.00  0.00    +0.141 A 
ATOM     20  N   UNL     1      -4.445  -0.916  24.091  0.00  0.00    -0.127 NA
ATOM     21  N   UNL     1      -4.811  -0.204  24.285  0.00  0.00    -0.064 NA
BRANCH  19  22
ATOM     22  C   UNL     1      -3.268  -1.648  24.581  0.00  0.00    +0.102 A 
ATOM     23  N   UNL     1      -2.454  -1.514  24.541  0.00  0.00    -0.242 NA
ATOM     24  C   UNL     1      -1.931  -2.151  24.536  0.00  0.00    +0.099 A 
ATOM     25  C   UNL     1      -2.220  -2.923  24.573  0.00  0.00    +0.021 A 
ATOM     26  C   UNL     1      -3.033  -3.057  24.613  0.00  0.00    +0.003 A 
ATOM     27  C   UNL     1      -3.556  -2.420  24.618  0.00  0.00    +0.021 A 
ENDBRANCH  19  22
ENDBRANCH  16  17
ENDBRANCH  15  16
TORSDOF 6
ENDMDL
MODEL 2
REMARK VINA RESULT:     -10.3      2.000      2.747
REMARK  Name = 
REMARK  6 active torsions:
REMARK  status: ('A' for Active; 'I' for Inactive)
REMARK    1  A    between atoms: N_2  and  C_3
REMARK    2  A    between atoms: C_3  and  C_4
REMARK    3  A    between atoms: C_6  and  C_8
REMARK    4  A    between atoms: C_15  and  C_16
REMARK    5  A    between atoms: C_16  and  N_17
REMARK    6  A    between atoms: C_19  and  C_22
REMARK                            x       y       z     vdW  Elec       q    Type
REMARK                         _______ _______ _______ _____ _____    ______ ____
ROOT
ATOM      8  C   UNL     1      -0.693   2.173  25.149  0.00  0.00    +0.093 C 
ATOM      9  C   UNL     1      -1.180   2.042  25.742  0.00  0.00    +0.081 C 
ATOM     10  N   UNL     1      -0.772   1.469  25.309  0.00  0.00    -0.272 NA
ATOM     11  C   UNL     1      -0.204   1.973  24.586  0.00  0.00    +0.072 C 
ATOM     12  C   UNL     1       0.216   1.963  24.086  0.00  0.00    +0.018 C 
ATOM     13  C   UNL     1      -0.296   1.606  24.730  0.00  0.00    +0.013 C 
ATOM     14  C   UNL     1      -0.281   0.731  24.793  0.00  0.00    +0.019 C 
ATOM     15  C   UNL     1      -0.751   0.559  25.370  0.00  0.00    +0.082 C 
ENDROOT
BRANCH   8   6
ATOM      1  C   UNL     1      -1.690   3.357  25.722  0.00  0.00    +0.115 C 
ATOM      2  N   UNL     1      -1.068   3.551  25.215  0.00  0.00    -0.274 N 
ATOM      6  C   UNL     1      -0.570   2.960  24.929  0.00  0.00    +0.227 C 
ATOM      7  O   UNL     1       0.052   3.154  24.422  0.00  0.00    -0.275 OA
BRANCH   2   3
ATOM      3  C   UNL     1      -0.945   4.336  24.995  0.00  0.00    +0.120 C 
BRANCH   3   4
ATOM      4  C   UNL     1      -1.494   4.915  25.206  0.00  0.00    -0.005 C 
ATOM      5  C   UNL     1      -1.387   5.695  24.960  0.00  0.00    -0.003 C 
ENDBRANCH   3   4
ENDBRANCH   2   3
ENDBRANCH   8   6
BRANCH  15  16
ATOM     16  C   UNL     1      -1.058  -0.077  25.796  0.00  0.00    +0.145 C 
BRANCH  16  17
ATOM     17  N   UNL     1      -1.387  -0.721  25.398  0.00  0.00    -0.229 N 
ATOM     18  C   UNL     1      -2.183  -0.814  25.202  0.00  0.00    +0.119 A 
ATOM     19  C   UNL     1      -2.265  -1.536  24.809  0.00  0.00    +0.141 A 
ATOM     20  N   UNL     1      -1.519  -1.887  24.764  0.00  0.00    -0.127 NA
ATOM     21  N   UNL     1      -0.977  -1.383  25.127  0.00  0.00    -0.064 NA
BRANCH  19  22
ATOM     22  C   UNL     1      -2.968  -1.850  24.514  0.00  0.00    +0.102 A 
ATOM     23  N   UNL     1      -3.527  -1.354  24.165  0.00  0.00    -0.242 NA
ATOM     24  C   UNL     1      -4.231  -1.668  23.870  0.00  0.00    +0.099 A 
ATOM     25  C   UNL     1      -4.375  -2.478  23.925  0.00  0.00    +0.021 A 
ATOM     26  C   UNL     1      -3.816  -2.974  24.274  0.00  0.00    +0.003 A 
ATOM     27  C   UNL     1      -3.113  -2.660  24.569  0.00  0.00    +0.021 A 
ENDBRANCH  19  22
ENDBRANCH  16  17
ENDBRANCH  15  16
TORSDOF 6
ENDMDL
MODEL 3
REMARK VINA RESULT:      -9.9      1.349      5.058
REMARK  Name = 
REMARK  6 active torsions:
REMARK  status: ('A' for Active; 'I' for Inactive)
REMARK    1  A    between atoms: N_2  and  C_3
REMARK    2  A    between atoms: C_3  and  C_4
REMARK    3  A    between atoms: C_6  and  C_8
REMARK    4  A    between atoms: C_15  and  C_16
REMARK    5  A    between atoms: C_16  and  N_17
REMARK    6  A    between atoms: C_19  and  C_22
REMARK                            x       y       z     vdW  Elec       q    Type
REMARK                         _______ _______ _______ _____ _____    ______ ____
ROOT
ATOM      8  C   UNL     1      -3.816   0.120  24.404  0.00  0.00    +0.093 C 
ATOM      9  C   UNL     1      -3.444   0.539  23.863  0.00  0.00    +0.081 C 
ATOM     10  N   UNL     1      -3.995   0.825  24.408  0.00  0.00    -0.272 NA
ATOM     11  C   UNL     1      -4.305   0.011  24.991  0.00  0.00    +0.072 C 
ATOM     12  C   UNL     1      -4.669  -0.236  25.474  0.00  0.00    +0.018 C 
ATOM     13  C   UNL     1      -4.355   0.408  24.935  0.00  0.00    +0.013 C 
ATOM     14  C   UNL     1      -4.675   1.214  25.070  0.00  0.00    +0.019 C 
ATOM     15  C   UNL     1      -4.332   1.660  24.554  0.00  0.00    +0.082 C 
ENDROOT
BRANCH   8   6
ATOM      1  C   UNL     1      -2.249  -0.396  24.370  0.00  0.00    +0.115 C 
ATOM      2  N   UNL     1      -2.863  -0.945  24.422  0.00  0.00    -0.274 N 
ATOM      6  C   UNL     1      -3.646  -0.687  24.439  0.00  0.00    +0.227 C 
ATOM      7  O   UNL     1      -4.260  -1.236  24.491  0.00  0.00    -0.275 OA
BRANCH   2   3
ATOM      3  C   UNL     1      -2.693  -1.751  24.458  0.00  0.00    +0.120 C 
BRANCH   3   4
ATOM      4  C   UNL     1      -1.910  -2.010  24.440  0.00  0.00    -0.005 C 
ATOM      5  C   UNL     1      -1.738  -2.811  24.532  0.00  0.00    -0.003 C 
ENDBRANCH   3   4
ENDBRANCH   2   3
ENDBRANCH   8   6
BRANCH  15  16
ATOM     16  C   UNL     1      -4.290   2.439  24.287  0.00  0.00    +0.145 C 
BRANCH  16  17
ATOM     17  N   UNL     1      -3.832   2.992  24.694  0.00  0.00    -0.229 N 
ATOM     18  C   UNL     1      -3.084   3.259  24.471  0.00  0.00    +0.119 A 
ATOM     19  C   UNL     1      -2.832   3.807  25.035  0.00  0.00    +0.141 A 
ATOM     20  N   UNL     1      -3.424   3.877  25.605  0.00  0.00    -0.127 NA
ATOM     21  N   UNL     1      -4.042   3.374  25.394  0.00  0.00    -0.064 NA
BRANCH  19  22
ATOM     22  C   UNL     1      -2.113   4.212  25.029  0.00  0.00    +0.102 A 
ATOM     23  N   UNL     1      -1.404   3.794  24.977  0.00  0.00    -0.242 NA
ATOM     24  C   UNL     1      -0.685   4.199  24.971  0.00  0.00    +0.099 A 
ATOM     25  C   UNL     1      -0.677   5.023  25.017  0.00  0.00    +0.021 A 
ATOM     26  C   UNL     1      -1.385   5.440  25.069  0.00  0.00    +0.003 A 
ATOM     27  C   UNL     1      -2.104   5.035  25.075  0.00  0.00    +0.021 A 
ENDBRANCH  19  22
ENDBRANCH  16  17
ENDBRANCH  15  16
TORSDOF 6
ENDMDL
MODEL 4
REMARK VINA RESULT:      -9.7      2.186      5.789
REMARK  Name = 
REMARK  6 active torsions:
REMARK  status: ('A' for Active; 'I' for Inactive)
REMARK    1  A    between atoms: N_2  and  C_3
REMARK    2  A    between atoms: C_3  and  C_4
REMARK    3  A    between atoms: C_6  and  C_8
REMARK    4  A    between atoms: C_15  and  C_16
REMARK    5  A    between atoms: C_16  and  N_17
REMARK    6  A    between atoms: C_19  and  C_22
REMARK                            x       y       z     vdW  Elec       q    Type
REMARK                         _______ _______ _______ _____ _____    ______ ____
ROOT
ATOM      8  C   UNL     1      -1.702  -0.650  24.727  0.00  0.00    +0.093 C 
ATOM      9  C   UNL     1      -1.653  -0.243  24.065  0.00  0.00    +0.081 C 
ATOM     10  N   UNL     1      -1.238  -0.091  24.763  0.00  0.00    -0.272 NA
ATOM     11  C   UNL     1      -1.529  -0.817  25.460  0.00  0.00    +0.072 C 
ATOM     12  C   UNL     1      -1.489  -1.079  26.058  0.00  0.00    +0.018 C 
ATOM     13  C   UNL     1      -1.292  -0.494  25.407  0.00  0.00    +0.013 C 
ATOM     14  C   UNL     1      -0.707   0.127  25.613  0.00  0.00    +0.019 C 
ATOM     15  C   UNL     1      -0.629   0.552  24.983  0.00  0.00    +0.082 C 
ENDROOT
BRANCH   8   6
ATOM      1  C   UNL     1      -3.182  -0.537  24.005  0.00  0.00    +0.115 C 
ATOM      2  N   UNL     1      -2.955  -1.239  24.376  0.00  0.00    -0.274 N 
ATOM      6  C   UNL     1      -2.216  -1.296  24.736  0.00  0.00    +0.227 C 
ATOM      7  O   UNL     1      -1.990  -1.998  25.107  0.00  0.00    -0.275 OA
BRANCH   2   3
ATOM      3  C   UNL     1      -3.469  -1.884  24.385  0.00  0.00    +0.120 C 
BRANCH   3   4
ATOM      4  C   UNL     1      -4.168  -1.862  23.946  0.00  0.00    -0.005 C 
ATOM      5  C   UNL     1      -4.564  -2.563  23.765  0.00  0.00    -0.003 C 
ENDBRANCH   3   4
ENDBRANCH   2   3
ENDBRANCH   8   6
BRANCH  15  16
ATOM     16  C   UNL     1      -0.230   1.207  24.681  0.00  0.00    +0.145 C 
BRANCH  16  17
ATOM     17  N   UNL     1      -0.310   1.944  25.044  0.00  0.00    -0.229 N 
ATOM     18  C   UNL     1      -0.809   2.553  24.798  0.00  0.00    +0.119 A 
ATOM     19  C   UNL     1      -0.712   3.186  25.320  0.00  0.00    +0.141 A 
ATOM     20  N   UNL     1      -0.154   2.966  25.886  0.00  0.00    -0.127 NA
ATOM     21  N   UNL     1       0.094   2.199  25.716  0.00  0.00    -0.064 NA
BRANCH  19  22
ATOM     22  C   UNL     1      -1.104   3.911  25.280  0.00  0.00    +0.102 A 
ATOM     23  N   UNL     1      -1.880   3.976  25.555  0.00  0.00    -0.242 NA
ATOM     24  C   UNL     1      -2.272   4.700  25.515  0.00  0.00    +0.099 A 
ATOM     25  C   UNL     1      -1.889   5.360  25.202  0.00  0.00    +0.021 A 
ATOM     26  C   UNL     1      -1.114   5.295  24.927  0.00  0.00    +0.003 A 
ATOM     27  C   UNL     1      -0.722   4.571  24.967  0.00  0.00    +0.021 A 
ENDBRANCH  19  22
ENDBRANCH  16  17
ENDBRANCH  15  16
TORSDOF 6
ENDMDL
MODEL 5
REMARK VINA RESULT:      -9.3      1.492      2.552
REMARK  Name = 
REMARK  6 active torsions:
REMARK  status: ('A' for Active; 'I' for Inactive)
REMARK    1  A    between atoms: N_2  and  C_3
REMARK    2  A    between atoms: C_3  and  C_4
REMARK    3  A    between atoms: C_6  and  C_8
REMARK    4  A    between atoms: C_15  and  C_16
REMARK    5  A    between atoms: C_16  and  N_17
REMARK    6  A    between atoms: C_19  and  C_22
REMARK                            x       y       z     vdW  Elec       q    Type
REMARK                         _______ _______ _______ _____ _____    ______ ____
ROOT
ATOM      8  C   UNL     1      -2.598   2.829  24.895  0.00  0.00    +0.093 C 
ATOM      9  C   UNL     1      -2.825   2.340  24.334  0.00  0.00    +0.081 C 
ATOM     10  N   UNL     1      -2.105   2.319  24.737  0.00  0.00    -0.272 NA
ATOM     11  C   UNL     1      -2.112   3.110  25.425  0.00  0.00    +0.072 C 
ATOM     12  C   UNL     1      -1.821   3.455  25.897  0.00  0.00    +0.018 C 
ATOM     13  C   UNL     1      -1.890   2.802  25.286  0.00  0.00    +0.013 C 
ATOM     14  C   UNL     1      -1.201   2.263  25.218  0.00  0.00    +0.019 C 
ATOM     15  C   UNL     1      -1.385   1.762  24.672  0.00  0.00    +0.082 C 
ENDROOT
BRANCH   8   6
ATOM      1  C   UNL     1      -4.223   2.543  24.885  0.00  0.00    +0.115 C 
ATOM      2  N   UNL     1      -3.937   3.284  25.104  0.00  0.00    -0.274 N 
ATOM      6  C   UNL     1      -3.125   3.428  25.110  0.00  0.00    +0.227 C 
ATOM      7  O   UNL     1      -2.838   4.170  25.330  0.00  0.00    -0.275 OA
BRANCH   2   3
ATOM      3  C   UNL     1      -4.462   3.883  25.319  0.00  0.00    +0.120 C 
BRANCH   3   4
ATOM      4  C   UNL     1      -5.270   3.723  25.371  0.00  0.00    -0.005 C 
ATOM      5  C   UNL     1      -5.792   4.313  25.617  0.00  0.00    -0.003 C 
ENDBRANCH   3   4
ENDBRANCH   2   3
ENDBRANCH   8   6
BRANCH  15  16
ATOM     16  C   UNL     1      -1.101   1.104  24.265  0.00  0.00    +0.145 C 
BRANCH  16  17
ATOM     17  N   UNL     1      -1.211   0.347  24.573  0.00  0.00    -0.229 N 
ATOM     18  C   UNL     1      -1.832  -0.164  24.391  0.00  0.00    +0.119 A 
ATOM     19  C   UNL     1      -1.724  -0.859  24.824  0.00  0.00    +0.141 A 
ATOM     20  N   UNL     1      -1.037  -0.776  25.272  0.00  0.00    -0.127 NA
ATOM     21  N   UNL     1      -0.720  -0.031  25.117  0.00  0.00    -0.064 NA
BRANCH  19  22
ATOM     22  C   UNL     1      -2.217  -1.520  24.810  0.00  0.00    +0.102 A 
ATOM     23  N   UNL     1      -1.967  -2.215  24.441  0.00  0.00    -0.242 NA
ATOM     24  C   UNL     1      -2.460  -2.876  24.428  0.00  0.00    +0.099 A 
ATOM     25  C   UNL     1      -3.204  -2.842  24.783  0.00  0.00    +0.021 A 
ATOM     26  C   UNL     1      -3.454  -2.149  25.151  0.00  0.00    +0.003 A 
ATOM     27  C   UNL     1      -2.961  -1.488  25.165  0.00  0.00    +0.021 A 
ENDBRANCH  19  22
ENDBRANCH  16  17
ENDBRANCH  15  16
TORSDOF 6
ENDMDL
MODEL 6
REMARK VINA RESULT:      -9.3      2.803      4.551
REMARK  Name = 
REMARK  6 active torsions:
REMARK  status: ('A' for Active; 'I' for Inactive)
REMARK    1  A    between atoms: N_2  and  C_3
REMARK    2  A    between atoms: C_3  and  C_4
REMARK    3  A    between atoms: C_6  and  C_8
REMARK    4  A    between atoms: C_15  and  C_16
REMARK    5  A    between atoms: C_16  and  N_17
REMARK    6  A    between atoms: C_19  and  C_22
REMARK                            x       y       z     vdW  Elec       q    Type
REMARK                         _______ _______ _______ _____ _____    ______ ____
ROOT
ATOM      8  C   UNL     1      -0.550   2.483  24.648  0.00  0.00    +0.093 C 
ATOM      9  C   UNL     1      -1.033   2.643  24.060  0.00  0.00    +0.081 C 
ATOM     10  N   UNL     1      -1.069   2.961  24.821  0.00  0.00    -0.272 NA
ATOM     11  C   UNL     1      -0.280   2.543  25.369  0.00  0.00    +0.072 C 
ATOM     12  C   UNL     1       0.058   2.486  25.925  0.00  0.00    +0.018 C 
ATOM     13  C   UNL     1      -0.592   2.799  25.393  0.00  0.00    +0.013 C 
ATOM     14  C   UNL     1      -1.145   3.376  25.756  0.00  0.00    +0.019 C 
ATOM     15  C   UNL     1      -1.640   3.560  25.205  0.00  0.00    +0.082 C 
ENDROOT
BRANCH   8   6
ATOM      1  C   UNL     1      -0.810   1.195  23.650  0.00  0.00    +0.115 C 
ATOM      2  N   UNL     1      -0.072   1.301  24.003  0.00  0.00    -0.274 N 
ATOM      6  C   UNL     1       0.059   1.944  24.502  0.00  0.00    +0.227 C 
ATOM      7  O   UNL     1       0.798   2.050  24.854  0.00  0.00    -0.275 OA
BRANCH   2   3
ATOM      3  C   UNL     1       0.536   0.763  23.856  0.00  0.00    +0.120 C 
BRANCH   3   4
ATOM      4  C   UNL     1       0.420   0.142  23.326  0.00  0.00    -0.005 C 
ATOM      5  C   UNL     1       1.067  -0.271  23.025  0.00  0.00    -0.003 C 
ENDBRANCH   3   4
ENDBRANCH   2   3
ENDBRANCH   8   6
BRANCH  15  16
ATOM     16  C   UNL     1      -2.302   4.026  25.050  0.00  0.00    +0.145 C 
BRANCH  16  17
ATOM     17  N   UNL     1      -3.029   3.840  25.394  0.00  0.00    -0.229 N 
ATOM     18  C   UNL     1      -3.588   3.315  25.090  0.00  0.00    +0.119 A 
ATOM     19  C   UNL     1      -4.229   3.296  25.610  0.00  0.00    +0.141 A 
ATOM     20  N   UNL     1      -4.064   3.810  26.235  0.00  0.00    -0.127 NA
ATOM     21  N   UNL     1      -3.323   4.145  26.101  0.00  0.00    -0.064 NA
BRANCH  19  22
ATOM     22  C   UNL     1      -4.912   2.844  25.521  0.00  0.00    +0.102 A 
ATOM     23  N   UNL     1      -5.522   2.904  26.074  0.00  0.00    -0.242 NA
ATOM     24  C   UNL     1      -6.206   2.451  25.985  0.00  0.00    +0.099 A 
ATOM     25  C   UNL     1      -6.280   1.939  25.342  0.00  0.00    +0.021 A 
ATOM     26  C   UNL     1      -5.671   1.879  24.790  0.00  0.00    +0.003 A 
ATOM     27  C   UNL     1      -4.987   2.331  24.879  0.00  0.00    +0.021 A 
ENDBRANCH  19  22
ENDBRANCH  16  17
ENDBRANCH  15  16
TORSDOF 6
ENDMDL
MODEL 7
REMARK VINA RESULT:      -9.1      2.222      3.733
REMARK  Name = 
REMARK  6 active torsions:
REMARK  status: ('A' for Active; 'I' for Inactive)
REMARK    1  A    between atoms: N_2  and  C_3
REMARK    2  A    between atoms: C_3  and  C_4
REMARK    3  A    between atoms: C_6  and  C_8
REMARK    4  A    between atoms: C_15  and  C_16
REMARK    5  A    between atoms: C_16  and  N_17
REMARK    6  A    between atoms: C_19  and  C_22
REMARK                            x       y       z     vdW  Elec       q    Type
REMARK                         _______ _______ _______ _____ _____    ______ ____
ROOT
ATOM      8  C   UNL     1      -3.342   3.442  25.103  0.00  0.00    +0.093 C 
ATOM      9  C   UNL     1      -3.189   3.135  24.404  0.00  0.00    +0.081 C 
ATOM     10  N   UNL     1      -2.640   3.474  24.919  0.00  0.00    -0.272 NA
ATOM     11  C   UNL     1      -3.166   3.789  25.769  0.00  0.00    +0.072 C 
ATOM     12  C   UNL     1      -3.176   4.069  26.360  0.00  0.00    +0.018 C 
ATOM     13  C   UNL     1      -2.798   3.772  25.603  0.00  0.00    +0.013 C 
ATOM     14  C   UNL     1      -1.930   3.887  25.534  0.00  0.00    +0.019 C 
ATOM     15  C   UNL     1      -1.738   3.596  24.854  0.00  0.00    +0.082 C 
ENDROOT
BRANCH   8   6
ATOM      1  C   UNL     1      -4.335   2.201  24.656  0.00  0.00    +0.115 C 
ATOM      2  N   UNL     1      -4.624   2.809  25.134  0.00  0.00    -0.274 N 
ATOM      6  C   UNL     1      -4.128   3.429  25.357  0.00  0.00    +0.227 C 
ATOM      7  O   UNL     1      -4.417   4.037  25.835  0.00  0.00    -0.275 OA
BRANCH   2   3
ATOM      3  C   UNL     1      -5.408   2.797  25.388  0.00  0.00    +0.120 C 
BRANCH   3   4
ATOM      4  C   UNL     1      -5.891   2.152  25.207  0.00  0.00    -0.005 C 
ATOM      5  C   UNL     1      -6.553   1.989  25.671  0.00  0.00    -0.003 C 
ENDBRANCH   3   4
ENDBRANCH   2   3
ENDBRANCH   8   6
BRANCH  15  16
ATOM     16  C   UNL     1      -1.094   3.469  24.356  0.00  0.00    +0.145 C 
BRANCH  16  17
ATOM     17  N   UNL     1      -0.619   2.802  24.457  0.00  0.00    -0.229 N 
ATOM     18  C   UNL     1      -0.710   2.079  24.070  0.00  0.00    +0.119 A 
ATOM     19  C   UNL     1      -0.116   1.571  24.337  0.00  0.00    +0.141 A 
ATOM     20  N   UNL     1       0.340   1.981  24.889  0.00  0.00    -0.127 NA
ATOM     21  N   UNL     1       0.029   2.740  24.964  0.00  0.00    -0.064 NA
BRANCH  19  22
ATOM     22  C   UNL     1      -0.001   0.791  24.095  0.00  0.00    +0.102 A 
ATOM     23  N   UNL     1       0.537   0.622  23.492  0.00  0.00    -0.242 NA
ATOM     24  C   UNL     1       0.653  -0.158  23.249  0.00  0.00    +0.099 A 
ATOM     25  C   UNL     1       0.231  -0.768  23.609  0.00  0.00    +0.021 A 
ATOM     26  C   UNL     1      -0.306  -0.599  24.212  0.00  0.00    +0.003 A 
ATOM     27  C   UNL     1      -0.422   0.180  24.454  0.00  0.00    +0.021 A 
ENDBRANCH  19  22
ENDBRANCH  16  17
ENDBRANCH  15  16
TORSDOF 6
ENDMDL
