MODEL 1
REMARK VINA RESULT:      -9.2      0.000      0.000
REMARK  Name = 
REMARK  7 active torsions:
REMARK  status: ('A' for Active; 'I' for Inactive)
REMARK    1  A    between atoms: C_2  and  C_4
REMARK    2  A    between atoms: C_4  and  C_5
REMARK    3  A    between atoms: C_5  and  C_6
REMARK    4  A    between atoms: C_6  and  C_7
REMARK    5  A    between atoms: N_9  and  C_10
REMARK    6  A    between atoms: C_14  and  N_18
REMARK    7  A    between atoms: C_21  and  C_25
REMARK                            x       y       z     vdW  Elec       q    Type
REMARK                         _______ _______ _______ _____ _____    ______ ____
ROOT
ATOM     10  C   UNL     1      -1.880   2.002  23.850  0.00  0.00    +0.154 C 
ATOM     11  C   UNL     1      -1.442   2.701  23.862  0.00  0.00    +0.166 C 
ATOM     12  O   UNL     1      -0.642   2.500  23.888  0.00  0.00    -0.350 OA
ATOM     13  C   UNL     1      -0.586   1.678  23.893  0.00  0.00    +0.166 C 
ATOM     14  C   UNL     1      -0.058   1.044  23.913  0.00  0.00    +0.154 C 
ATOM     15  C   UNL     1      -0.496   0.345  23.901  0.00  0.00    +0.166 C 
ATOM     16  O   UNL     1      -1.295   0.546  23.875  0.00  0.00    -0.350 OA
ATOM     17  C   UNL     1      -1.351   1.370  23.870  0.00  0.00    +0.166 C 
ENDROOT
BRANCH  14  18
ATOM     18  N   UNL     1       0.765   1.100  23.939  0.00  0.00    -0.200 NA
ATOM     19  C   UNL     1       1.226   0.658  23.417  0.00  0.00    +0.237 A 
ATOM     20  N   UNL     1       2.048   0.714  23.443  0.00  0.00    -0.209 NA
ATOM     21  C   UNL     1       2.509   0.271  22.921  0.00  0.00    +0.120 A 
ATOM     22  C   UNL     1       2.147  -0.227  22.372  0.00  0.00    +0.043 A 
ATOM     23  C   UNL     1       1.324  -0.283  22.346  0.00  0.00    +0.104 A 
ATOM     24  N   UNL     1       0.864   0.159  22.868  0.00  0.00    -0.211 NA
BRANCH  21  25
ATOM     25  C   UNL     1       3.331   0.327  22.947  0.00  0.00    +0.163 A 
ATOM     26  C   UNL     1       3.780   0.989  22.742  0.00  0.00    +0.042 A 
ATOM     27  C   UNL     1       4.575   0.802  22.851  0.00  0.00    +0.044 A 
ATOM     28  C   UNL     1       4.619   0.025  23.124  0.00  0.00    +0.180 A 
ATOM     29  O   UNL     1       3.851  -0.268  23.183  0.00  0.00    -0.449 OA
ENDBRANCH  21  25
ENDBRANCH  14  18
BRANCH  10   9
ATOM      7  C   UNL     1      -3.165   2.410  24.326  0.00  0.00    +0.241 C 
ATOM      8  O   UNL     1      -2.802   2.930  24.855  0.00  0.00    -0.273 OA
ATOM      9  N   UNL     1      -2.703   1.946  23.824  0.00  0.00    -0.202 NA
BRANCH   7   6
ATOM      6  C   UNL     1      -3.987   2.354  24.300  0.00  0.00    +0.087 C 
BRANCH   6   5
ATOM      5  C   UNL     1      -4.437   2.584  24.952  0.00  0.00    +0.019 C 
ATOM     30  C   UNL     1      -4.884   2.647  25.643  0.00  0.00    +0.001 C 
ATOM     31  C   UNL     1      -5.085   3.440  25.745  0.00  0.00    +0.000 C 
ATOM     32  C   UNL     1      -4.764   3.868  25.118  0.00  0.00    +0.000 C 
ATOM     33  C   UNL     1      -4.363   3.340  24.627  0.00  0.00    +0.001 C 
BRANCH   5   4
ATOM      4  C   UNL     1      -4.417   1.782  25.140  0.00  0.00    +0.115 C 
BRANCH   4   2
ATOM      1  O   UNL     1      -5.232   0.785  25.760  0.00  0.00    -0.246 OA
ATOM      2  C   UNL     1      -5.118   1.346  25.167  0.00  0.00    +0.365 C 
ATOM      3  O   UNL     1      -5.704   1.472  24.600  0.00  0.00    -0.246 OA
ENDBRANCH   4   2
ENDBRANCH   5   4
ENDBRANCH   6   5
ENDBRANCH   7   6
ENDBRANCH  10   9
TORSDOF 7
ENDMDL
MODEL 2
REMARK VINA RESULT:      -9.1      1.200      1.560
REMARK  Name = 
REMARK  7 active torsions:
REMARK  status: ('A' for Active; 'I' for Inactive)
REMARK    1  A    between atoms: C_2  and  C_4
REMARK    2  A    between atoms: C_4  and  C_5
REMARK    3  A    between atoms: C_5  and  C_6
REMARK    4  A    between atoms: C_6  and  C_7
REMARK    5  A    between atoms: N_9  and  C_10
REMARK    6  A    between atoms: C_14  and  N_18
REMARK    7  A    between atoms: C_21  and  C_25
REMARK                            x       y       z     vdW  Elec       q    Type
REMARK                         _______ _______ _______ _____ _____    ______ ____
ROOT
ATOM     10  C   UNL     1      -2.058   2.637  25.089  0.00  0.00    +0.154 C 
ATOM     11  C   UNL     1      -1.834   3.174  24.505  0.00  0.00    +0.166 C 
ATOM     12  O   UNL     1      -1.086   2.958  24.233  0.00  0.00    -0.350 OA
ATOM     13  C   UNL     1      -0.847   2.287  24.649  0.00  0.00    +0.166 C 
ATOM     14  C   UNL     1      -0.238   1.738  24.739  0.00  0.00    +0.154 C 
ATOM     15  C   UNL     1      -0.461   1.201  25.323  0.00  0.00    +0.166 C 
ATOM     16  O   UNL     1      -1.209   1.417  25.594  0.00  0.00    -0.350 OA
ATOM     17  C   UNL     1      -1.448   2.089  25.178  0.00  0.00    +0.166 C 
ENDROOT
BRANCH  14  18
ATOM     18  N   UNL     1       0.472   1.729  24.317  0.00  0.00    -0.200 NA
ATOM     19  C   UNL     1       0.696   1.053  23.901  0.00  0.00    +0.237 A 
ATOM     20  N   UNL     1       1.405   1.043  23.480  0.00  0.00    -0.209 NA
ATOM     21  C   UNL     1       1.630   0.367  23.065  0.00  0.00    +0.120 A 
ATOM     22  C   UNL     1       1.145  -0.301  23.071  0.00  0.00    +0.043 A 
ATOM     23  C   UNL     1       0.435  -0.292  23.492  0.00  0.00    +0.104 A 
ATOM     24  N   UNL     1       0.211   0.385  23.907  0.00  0.00    -0.211 NA
BRANCH  21  25
ATOM     25  C   UNL     1       2.338   0.357  22.644  0.00  0.00    +0.163 A 
ATOM     26  C   UNL     1       3.067   0.636  22.914  0.00  0.00    +0.042 A 
ATOM     27  C   UNL     1       3.622   0.518  22.315  0.00  0.00    +0.044 A 
ATOM     28  C   UNL     1       3.238   0.167  21.676  0.00  0.00    +0.180 A 
ATOM     29  O   UNL     1       2.444   0.068  21.879  0.00  0.00    -0.449 OA
ENDBRANCH  21  25
ENDBRANCH  14  18
BRANCH  10   9
ATOM      7  C   UNL     1      -3.487   2.656  25.107  0.00  0.00    +0.241 C 
ATOM      8  O   UNL     1      -3.496   2.657  24.282  0.00  0.00    -0.273 OA
ATOM      9  N   UNL     1      -2.767   2.646  25.511  0.00  0.00    -0.202 NA
BRANCH   7   6
ATOM      6  C   UNL     1      -4.196   2.665  25.528  0.00  0.00    +0.087 C 
BRANCH   6   5
ATOM      5  C   UNL     1      -4.896   2.426  25.163  0.00  0.00    +0.019 C 
ATOM     30  C   UNL     1      -5.631   2.354  24.795  0.00  0.00    +0.001 C 
ATOM     31  C   UNL     1      -5.771   1.553  24.656  0.00  0.00    +0.000 C 
ATOM     32  C   UNL     1      -5.122   1.129  24.937  0.00  0.00    +0.000 C 
ATOM     33  C   UNL     1      -4.581   1.668  25.251  0.00  0.00    +0.001 C 
BRANCH   5   4
ATOM      4  C   UNL     1      -5.065   3.233  25.151  0.00  0.00    +0.115 C 
BRANCH   4   2
ATOM      1  O   UNL     1      -5.679   3.181  26.440  0.00  0.00    -0.246 OA
ATOM      2  C   UNL     1      -5.573   3.557  25.715  0.00  0.00    +0.365 C 
ATOM      3  O   UNL     1      -5.976   4.258  25.551  0.00  0.00    -0.246 OA
ENDBRANCH   4   2
ENDBRANCH   5   4
ENDBRANCH   6   5
ENDBRANCH   7   6
ENDBRANCH  10   9
TORSDOF 7
ENDMDL
MODEL 3
REMARK VINA RESULT:      -8.7      0.774      1.333
REMARK  Name = 
REMARK  7 active torsions:
REMARK  status: ('A' for Active; 'I' for Inactive)
REMARK    1  A    between atoms: C_2  and  C_4
REMARK    2  A    between atoms: C_4  and  C_5
REMARK    3  A    between atoms: C_5  and  C_6
REMARK    4  A    between atoms: C_6  and  C_7
REMARK    5  A    between atoms: N_9  and  C_10
REMARK    6  A    between atoms: C_14  and  N_18
REMARK    7  A    between atoms: C_21  and  C_25
REMARK                            x       y       z     vdW  Elec       q    Type
REMARK                         _______ _______ _______ _____ _____    ______ ____
ROOT
ATOM     10  C   UNL     1      -1.589   1.757  23.814  0.00  0.00    +0.154 C 
ATOM     11  C   UNL     1      -1.194   2.424  24.095  0.00  0.00    +0.166 C 
ATOM     12  O   UNL     1      -0.390   2.247  24.133  0.00  0.00    -0.350 OA
ATOM     13  C   UNL     1      -0.287   1.471  23.874  0.00  0.00    +0.166 C 
ATOM     14  C   UNL     1       0.273   0.881  23.737  0.00  0.00    +0.154 C 
ATOM     15  C   UNL     1      -0.122   0.214  23.456  0.00  0.00    +0.166 C 
ATOM     16  O   UNL     1      -0.926   0.391  23.419  0.00  0.00    -0.350 OA
ATOM     17  C   UNL     1      -1.029   1.168  23.677  0.00  0.00    +0.166 C 
ENDROOT
BRANCH  14  18
ATOM     18  N   UNL     1       1.086   0.947  23.861  0.00  0.00    -0.200 NA
ATOM     19  C   UNL     1       1.614   0.610  23.323  0.00  0.00    +0.237 A 
ATOM     20  N   UNL     1       2.427   0.676  23.446  0.00  0.00    -0.209 NA
ATOM     21  C   UNL     1       2.955   0.340  22.908  0.00  0.00    +0.120 A 
ATOM     22  C   UNL     1       2.669  -0.063  22.247  0.00  0.00    +0.043 A 
ATOM     23  C   UNL     1       1.855  -0.129  22.124  0.00  0.00    +0.104 A 
ATOM     24  N   UNL     1       1.329   0.208  22.662  0.00  0.00    -0.211 NA
BRANCH  21  25
ATOM     25  C   UNL     1       3.767   0.405  23.031  0.00  0.00    +0.163 A 
ATOM     26  C   UNL     1       4.265  -0.189  23.315  0.00  0.00    +0.042 A 
ATOM     27  C   UNL     1       5.030   0.115  23.351  0.00  0.00    +0.044 A 
ATOM     28  C   UNL     1       5.006   0.897  23.090  0.00  0.00    +0.180 A 
ATOM     29  O   UNL     1       4.226   1.076  22.892  0.00  0.00    -0.449 OA
ENDBRANCH  21  25
ENDBRANCH  14  18
BRANCH  10   9
ATOM      7  C   UNL     1      -2.924   1.771  24.325  0.00  0.00    +0.241 C 
ATOM      8  O   UNL     1      -2.631   1.916  25.083  0.00  0.00    -0.273 OA
ATOM      9  N   UNL     1      -2.402   1.692  23.691  0.00  0.00    -0.202 NA
BRANCH   7   6
ATOM      6  C   UNL     1      -3.736   1.705  24.202  0.00  0.00    +0.087 C 
BRANCH   6   5
ATOM      5  C   UNL     1      -4.205   1.296  24.745  0.00  0.00    +0.019 C 
ATOM     30  C   UNL     1      -4.700   1.042  25.354  0.00  0.00    +0.001 C 
ATOM     31  C   UNL     1      -4.778   0.223  25.296  0.00  0.00    +0.000 C 
ATOM     32  C   UNL     1      -4.331  -0.030  24.651  0.00  0.00    +0.000 C 
ATOM     33  C   UNL     1      -3.977   0.632  24.310  0.00  0.00    +0.001 C 
BRANCH   5   4
ATOM      4  C   UNL     1      -4.335   2.044  25.066  0.00  0.00    +0.115 C 
BRANCH   4   2
ATOM      1  O   UNL     1      -5.485   2.451  24.322  0.00  0.00    -0.246 OA
ATOM      2  C   UNL     1      -5.088   2.379  25.041  0.00  0.00    +0.365 C 
ATOM      3  O   UNL     1      -5.445   2.642  25.736  0.00  0.00    -0.246 OA
ENDBRANCH   4   2
ENDBRANCH   5   4
ENDBRANCH   6   5
ENDBRANCH   7   6
ENDBRANCH  10   9
TORSDOF 7
ENDMDL
