MODEL 1
REMARK VINA RESULT:     -10.9      0.000      0.000
REMARK  Name = 
REMARK  6 active torsions:
REMARK  status: ('A' for Active; 'I' for Inactive)
REMARK    1  A    between atoms: C_2  and  C_3
REMARK    2  A    between atoms: C_2  and  C_17
REMARK    3  A    between atoms: N_9  and  C_10
REMARK    4  A    between atoms: C_10  and  C_11
REMARK    5  A    between atoms: C_20  and  N_21
REMARK    6  A    between atoms: C_22  and  C_24
REMARK                            x       y       z     vdW  Elec       q    Type
REMARK                         _______ _______ _______ _____ _____    ______ ____
ROOT
ATOM     17  C   UNL     1      -3.979   2.464  24.360  0.00  0.00    +0.010 A 
ATOM     18  C   UNL     1      -4.550   2.032  24.771  0.00  0.00    -0.000 A 
ATOM     19  C   UNL     1      -4.572   1.211  24.704  0.00  0.00    +0.016 A 
ATOM     20  C   UNL     1      -4.023   0.820  24.227  0.00  0.00    +0.074 A 
ATOM     33  C   UNL     1      -3.453   1.251  23.817  0.00  0.00    +0.016 A 
ATOM     34  C   UNL     1      -3.430   2.074  23.883  0.00  0.00    -0.000 A 
ENDROOT
BRANCH  20  21
ATOM     21  N   UNL     1      -4.046  -0.002  24.161  0.00  0.00    -0.175 NA
ATOM     22  C   UNL     1      -3.611  -0.470  24.683  0.00  0.00    +0.269 C 
ATOM     23  O   UNL     1      -3.155  -0.116  25.272  0.00  0.00    -0.268 OA
BRANCH  22  24
ATOM     24  C   UNL     1      -3.633  -1.292  24.617  0.00  0.00    +0.059 A 
ATOM     25  C   UNL     1      -3.242  -1.762  25.171  0.00  0.00    +0.008 A 
ATOM     26  C   UNL     1      -3.265  -2.583  25.105  0.00  0.00    +0.040 A 
ATOM     27  C   UNL     1      -3.677  -2.936  24.484  0.00  0.00    +0.176 A 
ATOM     28  O   UNL     1      -3.796  -3.725  24.277  0.00  0.00    -0.435 OA
ATOM     29  C   UNL     1      -4.259  -3.745  23.595  0.00  0.00    +0.429 C 
ATOM     30  O   UNL     1      -4.427  -2.967  23.380  0.00  0.00    -0.435 OA
ATOM     31  C   UNL     1      -4.068  -2.467  23.929  0.00  0.00    +0.177 A 
ATOM     32  C   UNL     1      -4.046  -1.644  23.995  0.00  0.00    +0.045 A 
ENDBRANCH  22  24
ENDBRANCH  20  21
BRANCH  17   2
ATOM      1  O   UNL     1      -4.031   3.756  23.753  0.00  0.00    -0.216 OA
ATOM      2  C   UNL     1      -3.956   3.286  24.427  0.00  0.00    +0.195 C 
BRANCH   2   3
ATOM      3  C   UNL     1      -3.859   3.638  25.167  0.00  0.00    +0.140 C 
ATOM      4  C   UNL     1      -4.389   3.469  25.776  0.00  0.00    +0.165 C 
ATOM      5  O   UNL     1      -4.292   3.821  26.516  0.00  0.00    -0.343 OA
ATOM      6  C   UNL     1      -3.665   4.342  26.647  0.00  0.00    +0.227 C 
ATOM      7  C   UNL     1      -3.136   4.510  26.037  0.00  0.00    +0.256 C 
ATOM      8  O   UNL     1      -2.509   5.031  26.167  0.00  0.00    -0.272 OA
ATOM      9  N   UNL     1      -3.233   4.158  25.297  0.00  0.00    -0.270 N 
BRANCH   9  10
ATOM     10  C   UNL     1      -2.703   4.328  24.687  0.00  0.00    +0.120 C 
BRANCH  10  11
ATOM     11  C   UNL     1      -1.893   4.346  24.838  0.00  0.00    -0.002 A 
ATOM     12  C   UNL     1      -1.471   5.049  24.740  0.00  0.00    -0.003 A 
ATOM     13  C   UNL     1      -0.660   5.068  24.890  0.00  0.00    -0.000 A 
ATOM     14  C   UNL     1      -0.271   4.384  25.139  0.00  0.00    -0.000 A 
ATOM     15  C   UNL     1      -0.692   3.682  25.237  0.00  0.00    -0.000 A 
ATOM     16  C   UNL     1      -1.503   3.663  25.086  0.00  0.00    -0.003 A 
ENDBRANCH  10  11
ENDBRANCH   9  10
ENDBRANCH   2   3
ENDBRANCH  17   2
TORSDOF 6
ENDMDL
MODEL 2
REMARK VINA RESULT:     -10.7      3.530      5.742
REMARK  Name = 
REMARK  6 active torsions:
REMARK  status: ('A' for Active; 'I' for Inactive)
REMARK    1  A    between atoms: C_2  and  C_3
REMARK    2  A    between atoms: C_2  and  C_17
REMARK    3  A    between atoms: N_9  and  C_10
REMARK    4  A    between atoms: C_10  and  C_11
REMARK    5  A    between atoms: C_20  and  N_21
REMARK    6  A    between atoms: C_22  and  C_24
REMARK                            x       y       z     vdW  Elec       q    Type
REMARK                         _______ _______ _______ _____ _____    ______ ____
ROOT
ATOM     17  C   UNL     1      -1.649  -0.805  24.969  0.00  0.00    +0.010 A 
ATOM     18  C   UNL     1      -1.302  -1.422  24.545  0.00  0.00    -0.000 A 
ATOM     19  C   UNL     1      -0.557  -1.322  24.207  0.00  0.00    +0.016 A 
ATOM     20  C   UNL     1      -0.158  -0.605  24.291  0.00  0.00    +0.074 A 
ATOM     33  C   UNL     1      -0.505   0.012  24.715  0.00  0.00    +0.016 A 
ATOM     34  C   UNL     1      -1.251  -0.088  25.054  0.00  0.00    -0.000 A 
ENDROOT
BRANCH  20  21
ATOM     21  N   UNL     1       0.587  -0.505  23.953  0.00  0.00    -0.175 NA
ATOM     22  C   UNL     1       0.683   0.002  23.309  0.00  0.00    +0.269 C 
ATOM     23  O   UNL     1       0.033   0.408  23.003  0.00  0.00    -0.268 OA
BRANCH  22  24
ATOM     24  C   UNL     1       1.429   0.102  22.969  0.00  0.00    +0.059 A 
ATOM     25  C   UNL     1       1.622  -0.295  22.273  0.00  0.00    +0.008 A 
ATOM     26  C   UNL     1       2.367  -0.195  21.935  0.00  0.00    +0.040 A 
ATOM     27  C   UNL     1       2.920   0.303  22.292  0.00  0.00    +0.176 A 
ATOM     28  O   UNL     1       3.691   0.510  22.088  0.00  0.00    -0.435 OA
ATOM     29  C   UNL     1       3.975   1.034  22.657  0.00  0.00    +0.429 C 
ATOM     30  O   UNL     1       3.378   1.152  23.214  0.00  0.00    -0.435 OA
ATOM     31  C   UNL     1       2.726   0.701  22.988  0.00  0.00    +0.177 A 
ATOM     32  C   UNL     1       1.980   0.600  23.327  0.00  0.00    +0.045 A 
ENDBRANCH  22  24
ENDBRANCH  20  21
BRANCH  17   2
ATOM      1  O   UNL     1      -2.504  -0.763  26.113  0.00  0.00    -0.216 OA
ATOM      2  C   UNL     1      -2.395  -0.905  25.308  0.00  0.00    +0.195 C 
BRANCH   2   3
ATOM      3  C   UNL     1      -3.031  -1.147  24.841  0.00  0.00    +0.140 C 
ATOM      4  C   UNL     1      -2.963  -1.819  24.368  0.00  0.00    +0.165 C 
ATOM      5  O   UNL     1      -3.599  -2.061  23.902  0.00  0.00    -0.343 OA
ATOM      6  C   UNL     1      -4.304  -1.630  23.909  0.00  0.00    +0.227 C 
ATOM      7  C   UNL     1      -4.371  -0.958  24.382  0.00  0.00    +0.256 C 
ATOM      8  O   UNL     1      -5.075  -0.527  24.390  0.00  0.00    -0.272 OA
ATOM      9  N   UNL     1      -3.734  -0.716  24.849  0.00  0.00    -0.270 N 
BRANCH   9  10
ATOM     10  C   UNL     1      -3.802  -0.044  25.322  0.00  0.00    +0.120 C 
BRANCH  10  11
ATOM     11  C   UNL     1      -4.128   0.648  25.013  0.00  0.00    -0.002 A 
ATOM     12  C   UNL     1      -4.836   0.942  25.317  0.00  0.00    -0.003 A 
ATOM     13  C   UNL     1      -5.162   1.635  25.008  0.00  0.00    -0.000 A 
ATOM     14  C   UNL     1      -4.779   2.032  24.394  0.00  0.00    -0.000 A 
ATOM     15  C   UNL     1      -4.070   1.737  24.090  0.00  0.00    -0.000 A 
ATOM     16  C   UNL     1      -3.745   1.046  24.400  0.00  0.00    -0.003 A 
ENDBRANCH  10  11
ENDBRANCH   9  10
ENDBRANCH   2   3
ENDBRANCH  17   2
TORSDOF 6
ENDMDL
MODEL 3
REMARK VINA RESULT:     -10.2      3.663      5.851
REMARK  Name = 
REMARK  6 active torsions:
REMARK  status: ('A' for Active; 'I' for Inactive)
REMARK    1  A    between atoms: C_2  and  C_3
REMARK    2  A    between atoms: C_2  and  C_17
REMARK    3  A    between atoms: N_9  and  C_10
REMARK    4  A    between atoms: C_10  and  C_11
REMARK    5  A    between atoms: C_20  and  N_21
REMARK    6  A    between atoms: C_22  and  C_24
REMARK                            x       y       z     vdW  Elec       q    Type
REMARK                         _______ _______ _______ _____ _____    ______ ____
ROOT
ATOM     17  C   UNL     1      -1.516   0.462  24.842  0.00  0.00    +0.010 A 
ATOM     18  C   UNL     1      -0.859   0.789  25.219  0.00  0.00    -0.000 A 
ATOM     19  C   UNL     1      -0.154   0.889  24.805  0.00  0.00    +0.016 A 
ATOM     20  C   UNL     1      -0.104   0.664  24.012  0.00  0.00    +0.074 A 
ATOM     33  C   UNL     1      -0.761   0.337  23.635  0.00  0.00    +0.016 A 
ATOM     34  C   UNL     1      -1.468   0.236  24.050  0.00  0.00    -0.000 A 
ENDROOT
BRANCH  20  21
ATOM     21  N   UNL     1       0.601   0.764  23.598  0.00  0.00    -0.175 NA
ATOM     22  C   UNL     1       1.070   0.110  23.417  0.00  0.00    +0.269 C 
ATOM     23  O   UNL     1       0.833  -0.645  23.650  0.00  0.00    -0.268 OA
BRANCH  22  24
ATOM     24  C   UNL     1       1.776   0.210  23.001  0.00  0.00    +0.059 A 
ATOM     25  C   UNL     1       1.862  -0.115  22.248  0.00  0.00    +0.008 A 
ATOM     26  C   UNL     1       2.567  -0.015  21.834  0.00  0.00    +0.040 A 
ATOM     27  C   UNL     1       3.188   0.411  22.171  0.00  0.00    +0.176 A 
ATOM     28  O   UNL     1       3.942   0.600  21.898  0.00  0.00    -0.435 OA
ATOM     29  C   UNL     1       4.323   1.042  22.480  0.00  0.00    +0.429 C 
ATOM     30  O   UNL     1       3.804   1.126  23.115  0.00  0.00    -0.435 OA
ATOM     31  C   UNL     1       3.103   0.737  22.925  0.00  0.00    +0.177 A 
ATOM     32  C   UNL     1       2.396   0.636  23.340  0.00  0.00    +0.045 A 
ENDBRANCH  22  24
ENDBRANCH  20  21
BRANCH  17   2
ATOM      1  O   UNL     1      -2.227  -0.059  25.967  0.00  0.00    -0.216 OA
ATOM      2  C   UNL     1      -2.223   0.361  25.257  0.00  0.00    +0.195 C 
BRANCH   2   3
ATOM      3  C   UNL     1      -2.924   0.681  24.962  0.00  0.00    +0.140 C 
ATOM      4  C   UNL     1      -2.918   1.421  24.597  0.00  0.00    +0.165 C 
ATOM      5  O   UNL     1      -3.619   1.741  24.302  0.00  0.00    -0.343 OA
ATOM      6  C   UNL     1      -4.326   1.320  24.373  0.00  0.00    +0.227 C 
ATOM      7  C   UNL     1      -4.331   0.581  24.738  0.00  0.00    +0.256 C 
ATOM      8  O   UNL     1      -5.038   0.161  24.809  0.00  0.00    -0.272 OA
ATOM      9  N   UNL     1      -3.630   0.261  25.033  0.00  0.00    -0.270 N 
BRANCH   9  10
ATOM     10  C   UNL     1      -3.636  -0.479  25.398  0.00  0.00    +0.120 C 
BRANCH  10  11
ATOM     11  C   UNL     1      -3.773  -1.158  24.953  0.00  0.00    -0.002 A 
ATOM     12  C   UNL     1      -3.498  -1.889  25.219  0.00  0.00    -0.003 A 
ATOM     13  C   UNL     1      -3.636  -2.570  24.773  0.00  0.00    -0.000 A 
ATOM     14  C   UNL     1      -4.048  -2.519  24.060  0.00  0.00    -0.000 A 
ATOM     15  C   UNL     1      -4.323  -1.788  23.794  0.00  0.00    -0.000 A 
ATOM     16  C   UNL     1      -4.186  -1.109  24.240  0.00  0.00    -0.003 A 
ENDBRANCH  10  11
ENDBRANCH   9  10
ENDBRANCH   2   3
ENDBRANCH  17   2
TORSDOF 6
ENDMDL
MODEL 4
REMARK VINA RESULT:     -10.1      3.457      4.976
REMARK  Name = 
REMARK  6 active torsions:
REMARK  status: ('A' for Active; 'I' for Inactive)
REMARK    1  A    between atoms: C_2  and  C_3
REMARK    2  A    between atoms: C_2  and  C_17
REMARK    3  A    between atoms: N_9  and  C_10
REMARK    4  A    between atoms: C_10  and  C_11
REMARK    5  A    between atoms: C_20  and  N_21
REMARK    6  A    between atoms: C_22  and  C_24
REMARK                            x       y       z     vdW  Elec       q    Type
REMARK                         _______ _______ _______ _____ _____    ______ ____
ROOT
ATOM     17  C   UNL     1      -1.725   1.719  24.807  0.00  0.00    +0.010 A 
ATOM     18  C   UNL     1      -1.635   1.795  23.990  0.00  0.00    -0.000 A 
ATOM     19  C   UNL     1      -0.897   1.670  23.644  0.00  0.00    +0.016 A 
ATOM     20  C   UNL     1      -0.249   1.469  24.113  0.00  0.00    +0.074 A 
ATOM     33  C   UNL     1      -0.340   1.392  24.930  0.00  0.00    +0.016 A 
ATOM     34  C   UNL     1      -1.078   1.518  25.277  0.00  0.00    -0.000 A 
ENDROOT
BRANCH  20  21
ATOM     21  N   UNL     1       0.488   1.344  23.767  0.00  0.00    -0.175 NA
ATOM     22  C   UNL     1       0.687   0.597  23.478  0.00  0.00    +0.269 C 
ATOM     23  O   UNL     1       0.148  -0.025  23.535  0.00  0.00    -0.268 OA
BRANCH  22  24
ATOM     24  C   UNL     1       1.426   0.472  23.131  0.00  0.00    +0.059 A 
ATOM     25  C   UNL     1       1.519  -0.117  22.560  0.00  0.00    +0.008 A 
ATOM     26  C   UNL     1       2.257  -0.242  22.214  0.00  0.00    +0.040 A 
ATOM     27  C   UNL     1       2.902   0.221  22.438  0.00  0.00    +0.176 A 
ATOM     28  O   UNL     1       3.690   0.225  22.195  0.00  0.00    -0.435 OA
ATOM     29  C   UNL     1       4.084   0.816  22.615  0.00  0.00    +0.429 C 
ATOM     30  O   UNL     1       3.539   1.177  23.118  0.00  0.00    -0.435 OA
ATOM     31  C   UNL     1       2.809   0.809  23.009  0.00  0.00    +0.177 A 
ATOM     32  C   UNL     1       2.070   0.935  23.355  0.00  0.00    +0.045 A 
ENDBRANCH  22  24
ENDBRANCH  20  21
BRANCH  17   2
ATOM      1  O   UNL     1      -2.934   1.200  25.365  0.00  0.00    -0.216 OA
ATOM      2  C   UNL     1      -2.464   1.844  25.154  0.00  0.00    +0.195 C 
BRANCH   2   3
ATOM      3  C   UNL     1      -2.731   2.613  25.289  0.00  0.00    +0.140 C 
ATOM      4  C   UNL     1      -2.247   3.155  25.679  0.00  0.00    +0.165 C 
ATOM      5  O   UNL     1      -2.514   3.923  25.815  0.00  0.00    -0.343 OA
ATOM      6  C   UNL     1      -3.266   4.150  25.560  0.00  0.00    +0.227 C 
ATOM      7  C   UNL     1      -3.750   3.607  25.170  0.00  0.00    +0.256 C 
ATOM      8  O   UNL     1      -4.502   3.834  24.916  0.00  0.00    -0.272 OA
ATOM      9  N   UNL     1      -3.482   2.838  25.035  0.00  0.00    -0.270 N 
BRANCH   9  10
ATOM     10  C   UNL     1      -3.967   2.296  24.645  0.00  0.00    +0.120 C 
BRANCH  10  11
ATOM     11  C   UNL     1      -4.735   2.161  24.913  0.00  0.00    -0.002 A 
ATOM     12  C   UNL     1      -5.360   2.133  24.376  0.00  0.00    -0.003 A 
ATOM     13  C   UNL     1      -6.129   1.998  24.645  0.00  0.00    -0.000 A 
ATOM     14  C   UNL     1      -6.271   1.890  25.450  0.00  0.00    -0.000 A 
ATOM     15  C   UNL     1      -5.645   1.918  25.987  0.00  0.00    -0.000 A 
ATOM     16  C   UNL     1      -4.878   2.053  25.719  0.00  0.00    -0.003 A 
ENDBRANCH  10  11
ENDBRANCH   9  10
ENDBRANCH   2   3
ENDBRANCH  17   2
TORSDOF 6
ENDMDL
MODEL 5
REMARK VINA RESULT:      -9.8      1.777      6.614
REMARK  Name = 
REMARK  6 active torsions:
REMARK  status: ('A' for Active; 'I' for Inactive)
REMARK    1  A    between atoms: C_2  and  C_3
REMARK    2  A    between atoms: C_2  and  C_17
REMARK    3  A    between atoms: N_9  and  C_10
REMARK    4  A    between atoms: C_10  and  C_11
REMARK    5  A    between atoms: C_20  and  N_21
REMARK    6  A    between atoms: C_22  and  C_24
REMARK                            x       y       z     vdW  Elec       q    Type
REMARK                         _______ _______ _______ _____ _____    ______ ____
ROOT
ATOM     17  C   UNL     1      -1.722   0.001  25.479  0.00  0.00    +0.010 A 
ATOM     18  C   UNL     1      -1.085   0.394  25.825  0.00  0.00    -0.000 A 
ATOM     19  C   UNL     1      -0.985   1.203  25.705  0.00  0.00    +0.016 A 
ATOM     20  C   UNL     1      -1.523   1.621  25.239  0.00  0.00    +0.074 A 
ATOM     33  C   UNL     1      -2.160   1.229  24.893  0.00  0.00    +0.016 A 
ATOM     34  C   UNL     1      -2.260   0.418  25.013  0.00  0.00    -0.000 A 
ENDROOT
BRANCH  20  21
ATOM     21  N   UNL     1      -1.423   2.431  25.119  0.00  0.00    -0.175 NA
ATOM     22  C   UNL     1      -1.911   2.969  25.511  0.00  0.00    +0.269 C 
ATOM     23  O   UNL     1      -2.498   2.697  26.023  0.00  0.00    -0.268 OA
BRANCH  22  24
ATOM     24  C   UNL     1      -1.811   3.780  25.391  0.00  0.00    +0.059 A 
ATOM     25  C   UNL     1      -2.414   4.304  25.597  0.00  0.00    +0.008 A 
ATOM     26  C   UNL     1      -2.315   5.114  25.477  0.00  0.00    +0.040 A 
ATOM     27  C   UNL     1      -1.612   5.400  25.152  0.00  0.00    +0.176 A 
ATOM     28  O   UNL     1      -1.358   6.163  24.971  0.00  0.00    -0.435 OA
ATOM     29  C   UNL     1      -0.599   6.111  24.654  0.00  0.00    +0.429 C 
ATOM     30  O   UNL     1      -0.383   5.315  24.639  0.00  0.00    -0.435 OA
ATOM     31  C   UNL     1      -1.009   4.876  24.947  0.00  0.00    +0.177 A 
ATOM     32  C   UNL     1      -1.109   4.065  25.066  0.00  0.00    +0.045 A 
ENDBRANCH  22  24
ENDBRANCH  20  21
BRANCH  17   2
ATOM      1  O   UNL     1      -2.237  -1.080  26.258  0.00  0.00    -0.216 OA
ATOM      2  C   UNL     1      -1.822  -0.810  25.599  0.00  0.00    +0.195 C 
BRANCH   2   3
ATOM      3  C   UNL     1      -1.507  -1.349  25.059  0.00  0.00    +0.140 C 
ATOM      4  C   UNL     1      -0.753  -1.227  24.748  0.00  0.00    +0.165 C 
ATOM      5  O   UNL     1      -0.438  -1.766  24.208  0.00  0.00    -0.343 OA
ATOM      6  C   UNL     1      -0.878  -2.426  23.980  0.00  0.00    +0.227 C 
ATOM      7  C   UNL     1      -1.632  -2.547  24.292  0.00  0.00    +0.256 C 
ATOM      8  O   UNL     1      -2.071  -3.207  24.063  0.00  0.00    -0.272 OA
ATOM      9  N   UNL     1      -1.947  -2.008  24.831  0.00  0.00    -0.270 N 
BRANCH   9  10
ATOM     10  C   UNL     1      -2.701  -2.130  25.143  0.00  0.00    +0.120 C 
BRANCH  10  11
ATOM     11  C   UNL     1      -3.340  -2.260  24.638  0.00  0.00    -0.002 A 
ATOM     12  C   UNL     1      -3.691  -1.625  24.245  0.00  0.00    -0.003 A 
ATOM     13  C   UNL     1      -4.330  -1.755  23.739  0.00  0.00    -0.000 A 
ATOM     14  C   UNL     1      -4.618  -2.520  23.628  0.00  0.00    -0.000 A 
ATOM     15  C   UNL     1      -4.267  -3.155  24.021  0.00  0.00    -0.000 A 
ATOM     16  C   UNL     1      -3.629  -3.025  24.526  0.00  0.00    -0.003 A 
ENDBRANCH  10  11
ENDBRANCH   9  10
ENDBRANCH   2   3
ENDBRANCH  17   2
TORSDOF 6
ENDMDL
MODEL 6
REMARK VINA RESULT:      -9.4      4.248      5.834
REMARK  Name = 
REMARK  6 active torsions:
REMARK  status: ('A' for Active; 'I' for Inactive)
REMARK    1  A    between atoms: C_2  and  C_3
REMARK    2  A    between atoms: C_2  and  C_17
REMARK    3  A    between atoms: N_9  and  C_10
REMARK    4  A    between atoms: C_10  and  C_11
REMARK    5  A    between atoms: C_20  and  N_21
REMARK    6  A    between atoms: C_22  and  C_24
REMARK                            x       y       z     vdW  Elec       q    Type
REMARK                         _______ _______ _______ _____ _____    ______ ____
ROOT
ATOM     17  C   UNL     1      -0.675   0.856  23.621  0.00  0.00    +0.010 A 
ATOM     18  C   UNL     1      -0.245   1.520  23.855  0.00  0.00    -0.000 A 
ATOM     19  C   UNL     1       0.579   1.495  23.864  0.00  0.00    +0.016 A 
ATOM     20  C   UNL     1       0.975   0.807  23.641  0.00  0.00    +0.074 A 
ATOM     33  C   UNL     1       0.545   0.142  23.407  0.00  0.00    +0.016 A 
ATOM     34  C   UNL     1      -0.280   0.167  23.397  0.00  0.00    -0.000 A 
ENDROOT
BRANCH  20  21
ATOM     21  N   UNL     1       1.799   0.782  23.650  0.00  0.00    -0.175 NA
ATOM     22  C   UNL     1       2.210   0.478  23.003  0.00  0.00    +0.269 C 
ATOM     23  O   UNL     1       1.797   0.199  22.346  0.00  0.00    -0.268 OA
BRANCH  22  24
ATOM     24  C   UNL     1       3.035   0.453  23.012  0.00  0.00    +0.059 A 
ATOM     25  C   UNL     1       3.470   1.064  22.667  0.00  0.00    +0.008 A 
ATOM     26  C   UNL     1       4.294   1.039  22.676  0.00  0.00    +0.040 A 
ATOM     27  C   UNL     1       4.684   0.404  23.030  0.00  0.00    +0.176 A 
ATOM     28  O   UNL     1       5.484   0.229  23.124  0.00  0.00    -0.435 OA
ATOM     29  C   UNL     1       5.545  -0.488  23.526  0.00  0.00    +0.429 C 
ATOM     30  O   UNL     1       4.781  -0.758  23.681  0.00  0.00    -0.435 OA
ATOM     31  C   UNL     1       4.249  -0.207  23.375  0.00  0.00    +0.177 A 
ATOM     32  C   UNL     1       3.424  -0.182  23.366  0.00  0.00    +0.045 A 
ENDBRANCH  22  24
ENDBRANCH  20  21
BRANCH  17   2
ATOM      1  O   UNL     1      -1.894   1.248  22.987  0.00  0.00    -0.216 OA
ATOM      2  C   UNL     1      -1.500   0.880  23.612  0.00  0.00    +0.195 C 
BRANCH   2   3
ATOM      3  C   UNL     1      -1.930   0.536  24.226  0.00  0.00    +0.140 C 
ATOM      4  C   UNL     1      -1.598  -0.075  24.670  0.00  0.00    +0.165 C 
ATOM      5  O   UNL     1      -2.028  -0.419  25.285  0.00  0.00    -0.343 OA
ATOM      6  C   UNL     1      -2.790  -0.151  25.455  0.00  0.00    +0.227 C 
ATOM      7  C   UNL     1      -3.121   0.460  25.011  0.00  0.00    +0.256 C 
ATOM      8  O   UNL     1      -3.883   0.727  25.181  0.00  0.00    -0.272 OA
ATOM      9  N   UNL     1      -2.691   0.803  24.396  0.00  0.00    -0.270 N 
BRANCH   9  10
ATOM     10  C   UNL     1      -3.023   1.415  23.952  0.00  0.00    +0.120 C 
BRANCH  10  11
ATOM     11  C   UNL     1      -3.345   2.073  24.331  0.00  0.00    -0.002 A 
ATOM     12  C   UNL     1      -2.871   2.539  24.819  0.00  0.00    -0.003 A 
ATOM     13  C   UNL     1      -3.193   3.198  25.199  0.00  0.00    -0.000 A 
ATOM     14  C   UNL     1      -3.988   3.390  25.089  0.00  0.00    -0.000 A 
ATOM     15  C   UNL     1      -4.461   2.923  24.600  0.00  0.00    -0.000 A 
ATOM     16  C   UNL     1      -4.140   2.265  24.221  0.00  0.00    -0.003 A 
ENDBRANCH  10  11
ENDBRANCH   9  10
ENDBRANCH   2   3
ENDBRANCH  17   2
TORSDOF 6
ENDMDL
MODEL 7
REMARK VINA RESULT:      -9.2      1.648      2.689
REMARK  Name = 
REMARK  6 active torsions:
REMARK  status: ('A' for Active; 'I' for Inactive)
REMARK    1  A    between atoms: C_2  and  C_3
REMARK    2  A    between atoms: C_2  and  C_17
REMARK    3  A    between atoms: N_9  and  C_10
REMARK    4  A    between atoms: C_10  and  C_11
REMARK    5  A    between atoms: C_20  and  N_21
REMARK    6  A    between atoms: C_22  and  C_24
REMARK                            x       y       z     vdW  Elec       q    Type
REMARK                         _______ _______ _______ _____ _____    ______ ____
ROOT
ATOM     17  C   UNL     1      -0.731   1.623  25.410  0.00  0.00    +0.010 A 
ATOM     18  C   UNL     1      -0.992   1.106  25.998  0.00  0.00    -0.000 A 
ATOM     19  C   UNL     1      -1.324   0.380  25.791  0.00  0.00    +0.016 A 
ATOM     20  C   UNL     1      -1.395   0.170  24.996  0.00  0.00    +0.074 A 
ATOM     33  C   UNL     1      -1.134   0.687  24.408  0.00  0.00    +0.016 A 
ATOM     34  C   UNL     1      -0.802   1.414  24.615  0.00  0.00    -0.000 A 
ENDROOT
BRANCH  20  21
ATOM     21  N   UNL     1      -1.727  -0.556  24.788  0.00  0.00    -0.175 NA
ATOM     22  C   UNL     1      -2.537  -0.681  24.884  0.00  0.00    +0.269 C 
ATOM     23  O   UNL     1      -3.015  -0.081  25.187  0.00  0.00    -0.268 OA
BRANCH  22  24
ATOM     24  C   UNL     1      -2.870  -1.408  24.677  0.00  0.00    +0.059 A 
ATOM     25  C   UNL     1      -2.512  -2.110  24.921  0.00  0.00    +0.008 A 
ATOM     26  C   UNL     1      -2.844  -2.835  24.714  0.00  0.00    +0.040 A 
ATOM     27  C   UNL     1      -3.534  -2.860  24.262  0.00  0.00    +0.176 A 
ATOM     28  O   UNL     1      -3.985  -3.488  23.975  0.00  0.00    -0.435 OA
ATOM     29  C   UNL     1      -4.621  -3.174  23.554  0.00  0.00    +0.429 C 
ATOM     30  O   UNL     1      -4.563  -2.352  23.580  0.00  0.00    -0.435 OA
ATOM     31  C   UNL     1      -3.892  -2.158  24.017  0.00  0.00    +0.177 A 
ATOM     32  C   UNL     1      -3.559  -1.431  24.225  0.00  0.00    +0.045 A 
ENDBRANCH  22  24
ENDBRANCH  20  21
BRANCH  17   2
ATOM      1  O   UNL     1      -0.052   2.447  26.359  0.00  0.00    -0.216 OA
ATOM      2  C   UNL     1      -0.399   2.350  25.617  0.00  0.00    +0.195 C 
BRANCH   2   3
ATOM      3  C   UNL     1      -0.414   2.978  25.082  0.00  0.00    +0.140 C 
ATOM      4  C   UNL     1       0.036   2.942  24.392  0.00  0.00    +0.165 C 
ATOM      5  O   UNL     1       0.021   3.570  23.857  0.00  0.00    -0.343 OA
ATOM      6  C   UNL     1      -0.444   4.234  24.013  0.00  0.00    +0.227 C 
ATOM      7  C   UNL     1      -0.894   4.268  24.704  0.00  0.00    +0.256 C 
ATOM      8  O   UNL     1      -1.359   4.932  24.859  0.00  0.00    -0.272 OA
ATOM      9  N   UNL     1      -0.879   3.640  25.238  0.00  0.00    -0.270 N 
BRANCH   9  10
ATOM     10  C   UNL     1      -1.329   3.676  25.929  0.00  0.00    +0.120 C 
BRANCH  10  11
ATOM     11  C   UNL     1      -2.139   3.827  25.887  0.00  0.00    -0.002 A 
ATOM     12  C   UNL     1      -2.519   4.215  26.507  0.00  0.00    -0.003 A 
ATOM     13  C   UNL     1      -3.329   4.366  26.466  0.00  0.00    -0.000 A 
ATOM     14  C   UNL     1      -3.759   4.128  25.803  0.00  0.00    -0.000 A 
ATOM     15  C   UNL     1      -3.379   3.739  25.182  0.00  0.00    -0.000 A 
ATOM     16  C   UNL     1      -2.569   3.589  25.224  0.00  0.00    -0.003 A 
ENDBRANCH  10  11
ENDBRANCH   9  10
ENDBRANCH   2   3
ENDBRANCH  17   2
TORSDOF 6
ENDMDL
