MODEL 1
REMARK VINA RESULT:     -11.8      0.000      0.000
REMARK  Name = 
REMARK  7 active torsions:
REMARK  status: ('A' for Active; 'I' for Inactive)
REMARK    1  A    between atoms: C_3  and  C_4
REMARK    2  A    between atoms: C_4  and  N_5
REMARK    3  A    between atoms: N_8  and  C_9
REMARK    4  A    between atoms: C_16  and  C_17
REMARK    5  A    between atoms: C_17  and  C_18
REMARK    6  A    between atoms: N_20  and  C_21
REMARK    7  A    between atoms: C_21  and  C_22
REMARK                            x       y       z     vdW  Elec       q    Type
REMARK                         _______ _______ _______ _____ _____    ______ ____
ROOT
ATOM      1  O   UNL     1      -6.182   2.427  25.415  0.00  0.00    -0.218 OA
ATOM      2  C   UNL     1      -5.386   2.626  25.335  0.00  0.00    +0.213 C 
ATOM      3  C   UNL     1      -4.760   2.098  25.232  0.00  0.00    +0.170 C 
ATOM     15  O   UNL     1      -4.063   2.536  25.178  0.00  0.00    -0.351 OA
ATOM     16  C   UNL     1      -4.257   3.334  25.249  0.00  0.00    +0.157 C 
ATOM     28  C   UNL     1      -5.074   3.391  25.346  0.00  0.00    +0.212 C 
ATOM     29  O   UNL     1      -5.504   4.089  25.438  0.00  0.00    -0.218 OA
ENDROOT
BRANCH   3   4
ATOM      4  C   UNL     1      -4.823   1.276  25.189  0.00  0.00    +0.149 C 
BRANCH   4   5
ATOM      5  N   UNL     1      -4.366   0.856  24.646  0.00  0.00    -0.184 NA
ATOM      6  C   UNL     1      -4.261   0.042  24.737  0.00  0.00    +0.344 C 
ATOM      7  O   UNL     1      -4.612  -0.350  25.373  0.00  0.00    -0.249 OA
ATOM      8  N   UNL     1      -3.805  -0.378  24.194  0.00  0.00    -0.161 NA
BRANCH   8   9
ATOM      9  C   UNL     1      -3.699  -1.192  24.286  0.00  0.00    +0.075 A 
ATOM     10  C   UNL     1      -3.090  -1.477  24.763  0.00  0.00    +0.017 A 
ATOM     11  C   UNL     1      -2.984  -2.290  24.855  0.00  0.00    +0.001 A 
ATOM     12  C   UNL     1      -3.488  -2.817  24.469  0.00  0.00    +0.000 A 
ATOM     13  C   UNL     1      -4.097  -2.532  23.992  0.00  0.00    +0.001 A 
ATOM     14  C   UNL     1      -4.202  -1.718  23.900  0.00  0.00    +0.017 A 
ENDBRANCH   8   9
ENDBRANCH   4   5
ENDBRANCH   3   4
BRANCH  16  17
ATOM     17  C   UNL     1      -3.726   3.966  25.226  0.00  0.00    +0.119 C 
BRANCH  17  18
ATOM     18  C   UNL     1      -3.016   3.923  25.644  0.00  0.00    +0.244 C 
ATOM     19  O   UNL     1      -2.996   4.117  26.445  0.00  0.00    -0.273 OA
ATOM     20  N   UNL     1      -2.326   3.685  25.259  0.00  0.00    -0.200 NA
BRANCH  20  21
ATOM     21  C   UNL     1      -1.615   3.642  25.677  0.00  0.00    +0.143 C 
BRANCH  21  22
ATOM     22  C   UNL     1      -0.988   3.199  25.376  0.00  0.00    +0.019 A 
ATOM     23  C   UNL     1      -0.642   2.608  25.838  0.00  0.00    +0.001 A 
ATOM     24  C   UNL     1      -0.014   2.165  25.538  0.00  0.00    +0.020 A 
ATOM     25  C   UNL     1       0.268   2.312  24.778  0.00  0.00    +0.099 A 
ATOM     26  N   UNL     1      -0.078   2.902  24.316  0.00  0.00    -0.243 NA
ATOM     27  C   UNL     1      -0.706   3.345  24.616  0.00  0.00    +0.096 A 
ENDBRANCH  21  22
ENDBRANCH  20  21
ENDBRANCH  17  18
ENDBRANCH  16  17
TORSDOF 7
ENDMDL
MODEL 2
REMARK VINA RESULT:     -11.5      1.574      3.525
REMARK  Name = 
REMARK  7 active torsions:
REMARK  status: ('A' for Active; 'I' for Inactive)
REMARK    1  A    between atoms: C_3  and  C_4
REMARK    2  A    between atoms: C_4  and  N_5
REMARK    3  A    between atoms: N_8  and  C_9
REMARK    4  A    between atoms: C_16  and  C_17
REMARK    5  A    between atoms: C_17  and  C_18
REMARK    6  A    between atoms: N_20  and  C_21
REMARK    7  A    between atoms: C_21  and  C_22
REMARK                            x       y       z     vdW  Elec       q    Type
REMARK                         _______ _______ _______ _____ _____    ______ ____
ROOT
ATOM      1  O   UNL     1       0.167   1.615  25.418  0.00  0.00    -0.218 OA
ATOM      2  C   UNL     1      -0.585   1.953  25.420  0.00  0.00    +0.213 C 
ATOM      3  C   UNL     1      -1.297   1.556  25.294  0.00  0.00    +0.170 C 
ATOM     15  O   UNL     1      -1.909   2.107  25.345  0.00  0.00    -0.351 OA
ATOM     16  C   UNL     1      -1.576   2.844  25.502  0.00  0.00    +0.157 C 
ATOM     28  C   UNL     1      -0.757   2.750  25.549  0.00  0.00    +0.212 C 
ATOM     29  O   UNL     1      -0.208   3.348  25.698  0.00  0.00    -0.218 OA
ENDROOT
BRANCH   3   4
ATOM      4  C   UNL     1      -1.381   0.749  25.143  0.00  0.00    +0.149 C 
BRANCH   4   5
ATOM      5  N   UNL     1      -2.029   0.338  25.445  0.00  0.00    -0.184 NA
ATOM      6  C   UNL     1      -2.354  -0.290  25.020  0.00  0.00    +0.344 C 
ATOM      7  O   UNL     1      -2.030  -0.508  24.294  0.00  0.00    -0.249 OA
ATOM      8  N   UNL     1      -3.003  -0.701  25.322  0.00  0.00    -0.161 NA
BRANCH   8   9
ATOM      9  C   UNL     1      -3.328  -1.330  24.897  0.00  0.00    +0.075 A 
ATOM     10  C   UNL     1      -3.914  -1.188  24.336  0.00  0.00    +0.017 A 
ATOM     11  C   UNL     1      -4.239  -1.816  23.911  0.00  0.00    +0.001 A 
ATOM     12  C   UNL     1      -3.976  -2.586  24.049  0.00  0.00    +0.000 A 
ATOM     13  C   UNL     1      -3.390  -2.728  24.610  0.00  0.00    +0.001 A 
ATOM     14  C   UNL     1      -3.065  -2.099  25.035  0.00  0.00    +0.017 A 
ENDBRANCH   8   9
ENDBRANCH   4   5
ENDBRANCH   3   4
BRANCH  16  17
ATOM     17  C   UNL     1      -1.989   3.553  25.597  0.00  0.00    +0.119 C 
BRANCH  17  18
ATOM     18  C   UNL     1      -2.690   3.680  25.180  0.00  0.00    +0.244 C 
ATOM     19  O   UNL     1      -2.674   4.069  24.453  0.00  0.00    -0.273 OA
ATOM     20  N   UNL     1      -3.407   3.418  25.493  0.00  0.00    -0.200 NA
BRANCH  20  21
ATOM     21  C   UNL     1      -4.108   3.544  25.076  0.00  0.00    +0.143 C 
BRANCH  21  22
ATOM     22  C   UNL     1      -4.775   3.089  25.245  0.00  0.00    +0.019 A 
ATOM     23  C   UNL     1      -5.013   2.496  24.723  0.00  0.00    +0.001 A 
ATOM     24  C   UNL     1      -5.679   2.041  24.892  0.00  0.00    +0.020 A 
ATOM     25  C   UNL     1      -6.109   2.178  25.582  0.00  0.00    +0.099 A 
ATOM     26  N   UNL     1      -5.872   2.771  26.104  0.00  0.00    -0.243 NA
ATOM     27  C   UNL     1      -5.204   3.227  25.935  0.00  0.00    +0.096 A 
ENDBRANCH  21  22
ENDBRANCH  20  21
ENDBRANCH  17  18
ENDBRANCH  16  17
TORSDOF 7
ENDMDL
MODEL 3
REMARK VINA RESULT:     -10.6      2.461      6.168
REMARK  Name = 
REMARK  7 active torsions:
REMARK  status: ('A' for Active; 'I' for Inactive)
REMARK    1  A    between atoms: C_3  and  C_4
REMARK    2  A    between atoms: C_4  and  N_5
REMARK    3  A    between atoms: N_8  and  C_9
REMARK    4  A    between atoms: C_16  and  C_17
REMARK    5  A    between atoms: C_17  and  C_18
REMARK    6  A    between atoms: N_20  and  C_21
REMARK    7  A    between atoms: C_21  and  C_22
REMARK                            x       y       z     vdW  Elec       q    Type
REMARK                         _______ _______ _______ _____ _____    ______ ____
ROOT
ATOM      1  O   UNL     1       1.029   0.714  23.021  0.00  0.00    -0.218 OA
ATOM      2  C   UNL     1       0.495   0.374  23.550  0.00  0.00    +0.213 C 
ATOM      3  C   UNL     1      -0.099   0.770  23.963  0.00  0.00    +0.170 C 
ATOM     15  O   UNL     1      -0.499   0.217  24.427  0.00  0.00    -0.351 OA
ATOM     16  C   UNL     1      -0.152  -0.521  24.301  0.00  0.00    +0.157 C 
ATOM     28  C   UNL     1       0.463  -0.424  23.758  0.00  0.00    +0.212 C 
ATOM     29  O   UNL     1       0.957  -1.021  23.475  0.00  0.00    -0.218 OA
ENDROOT
BRANCH   3   4
ATOM      4  C   UNL     1      -0.263   1.577  23.920  0.00  0.00    +0.149 C 
BRANCH   4   5
ATOM      5  N   UNL     1      -0.327   2.023  24.611  0.00  0.00    -0.184 NA
ATOM      6  C   UNL     1      -0.721   2.748  24.600  0.00  0.00    +0.344 C 
ATOM      7  O   UNL     1      -1.052   3.026  23.897  0.00  0.00    -0.249 OA
ATOM      8  N   UNL     1      -0.785   3.193  25.291  0.00  0.00    -0.161 NA
BRANCH   8   9
ATOM      9  C   UNL     1      -1.179   3.919  25.280  0.00  0.00    +0.075 A 
ATOM     10  C   UNL     1      -0.792   4.594  25.010  0.00  0.00    +0.017 A 
ATOM     11  C   UNL     1      -1.185   5.319  24.998  0.00  0.00    +0.001 A 
ATOM     12  C   UNL     1      -1.968   5.367  25.257  0.00  0.00    +0.000 A 
ATOM     13  C   UNL     1      -2.355   4.692  25.527  0.00  0.00    +0.001 A 
ATOM     14  C   UNL     1      -1.961   3.966  25.539  0.00  0.00    +0.017 A 
ENDBRANCH   8   9
ENDBRANCH   4   5
ENDBRANCH   3   4
BRANCH  16  17
ATOM     17  C   UNL     1      -0.380  -1.231  24.654  0.00  0.00    +0.119 C 
BRANCH  17  18
ATOM     18  C   UNL     1      -1.104  -1.282  25.046  0.00  0.00    +0.244 C 
ATOM     19  O   UNL     1      -1.173  -1.017  25.824  0.00  0.00    -0.273 OA
ATOM     20  N   UNL     1      -1.760  -1.600  24.659  0.00  0.00    -0.200 NA
BRANCH  20  21
ATOM     21  C   UNL     1      -2.485  -1.651  25.050  0.00  0.00    +0.143 C 
BRANCH  21  22
ATOM     22  C   UNL     1      -3.156  -1.902  24.642  0.00  0.00    +0.019 A 
ATOM     23  C   UNL     1      -3.672  -1.347  24.315  0.00  0.00    +0.001 A 
ATOM     24  C   UNL     1      -4.343  -1.598  23.907  0.00  0.00    +0.020 A 
ATOM     25  C   UNL     1      -4.500  -2.403  23.826  0.00  0.00    +0.099 A 
ATOM     26  N   UNL     1      -3.985  -2.958  24.152  0.00  0.00    -0.243 NA
ATOM     27  C   UNL     1      -3.313  -2.707  24.561  0.00  0.00    +0.096 A 
ENDBRANCH  21  22
ENDBRANCH  20  21
ENDBRANCH  17  18
ENDBRANCH  16  17
TORSDOF 7
ENDMDL
MODEL 4
REMARK VINA RESULT:     -10.5      1.844      5.419
REMARK  Name = 
REMARK  7 active torsions:
REMARK  status: ('A' for Active; 'I' for Inactive)
REMARK    1  A    between atoms: C_3  and  C_4
REMARK    2  A    between atoms: C_4  and  N_5
REMARK    3  A    between atoms: N_8  and  C_9
REMARK    4  A    between atoms: C_16  and  C_17
REMARK    5  A    between atoms: C_17  and  C_18
REMARK    6  A    between atoms: N_20  and  C_21
REMARK    7  A    between atoms: C_21  and  C_22
REMARK                            x       y       z     vdW  Elec       q    Type
REMARK                         _______ _______ _______ _____ _____    ______ ____
ROOT
ATOM      1  O   UNL     1      -0.389  -0.944  24.961  0.00  0.00    -0.218 OA
ATOM      2  C   UNL     1      -1.166  -0.676  25.020  0.00  0.00    +0.213 C 
ATOM      3  C   UNL     1      -1.409   0.112  25.025  0.00  0.00    +0.170 C 
ATOM     15  O   UNL     1      -2.232   0.125  25.092  0.00  0.00    -0.351 OA
ATOM     16  C   UNL     1      -2.497  -0.654  25.129  0.00  0.00    +0.157 C 
ATOM     28  C   UNL     1      -1.839  -1.151  25.084  0.00  0.00    +0.212 C 
ATOM     29  O   UNL     1      -1.851  -1.975  25.101  0.00  0.00    -0.218 OA
ENDROOT
BRANCH   3   4
ATOM      4  C   UNL     1      -0.916   0.772  24.972  0.00  0.00    +0.149 C 
BRANCH   4   5
ATOM      5  N   UNL     1      -0.996   1.391  25.510  0.00  0.00    -0.184 NA
ATOM      6  C   UNL     1      -1.043   2.170  25.239  0.00  0.00    +0.344 C 
ATOM      7  O   UNL     1      -1.010   2.327  24.431  0.00  0.00    -0.249 OA
ATOM      8  N   UNL     1      -1.123   2.789  25.778  0.00  0.00    -0.161 NA
BRANCH   8   9
ATOM      9  C   UNL     1      -1.170   3.568  25.507  0.00  0.00    +0.075 A 
ATOM     10  C   UNL     1      -0.507   3.931  25.178  0.00  0.00    +0.017 A 
ATOM     11  C   UNL     1      -0.554   4.708  24.908  0.00  0.00    +0.001 A 
ATOM     12  C   UNL     1      -1.266   5.123  24.967  0.00  0.00    +0.000 A 
ATOM     13  C   UNL     1      -1.929   4.760  25.296  0.00  0.00    +0.001 A 
ATOM     14  C   UNL     1      -1.881   3.982  25.566  0.00  0.00    +0.017 A 
ENDBRANCH   8   9
ENDBRANCH   4   5
ENDBRANCH   3   4
BRANCH  16  17
ATOM     17  C   UNL     1      -3.283  -0.897  25.198  0.00  0.00    +0.119 C 
BRANCH  17  18
ATOM     18  C   UNL     1      -3.876  -0.493  24.791  0.00  0.00    +0.244 C 
ATOM     19  O   UNL     1      -4.101  -0.739  24.037  0.00  0.00    -0.273 OA
ATOM     20  N   UNL     1      -4.243   0.158  25.140  0.00  0.00    -0.200 NA
BRANCH  20  21
ATOM     21  C   UNL     1      -4.837   0.564  24.733  0.00  0.00    +0.143 C 
BRANCH  21  22
ATOM     22  C   UNL     1      -5.086   1.304  24.998  0.00  0.00    +0.019 A 
ATOM     23  C   UNL     1      -4.835   1.987  24.608  0.00  0.00    +0.001 A 
ATOM     24  C   UNL     1      -5.084   2.727  24.873  0.00  0.00    +0.020 A 
ATOM     25  C   UNL     1      -5.583   2.786  25.526  0.00  0.00    +0.099 A 
ATOM     26  N   UNL     1      -5.833   2.103  25.916  0.00  0.00    -0.243 NA
ATOM     27  C   UNL     1      -5.584   1.362  25.651  0.00  0.00    +0.096 A 
ENDBRANCH  21  22
ENDBRANCH  20  21
ENDBRANCH  17  18
ENDBRANCH  16  17
TORSDOF 7
ENDMDL
MODEL 5
REMARK VINA RESULT:     -10.4      2.057      5.202
REMARK  Name = 
REMARK  7 active torsions:
REMARK  status: ('A' for Active; 'I' for Inactive)
REMARK    1  A    between atoms: C_3  and  C_4
REMARK    2  A    between atoms: C_4  and  N_5
REMARK    3  A    between atoms: N_8  and  C_9
REMARK    4  A    between atoms: C_16  and  C_17
REMARK    5  A    between atoms: C_17  and  C_18
REMARK    6  A    between atoms: N_20  and  C_21
REMARK    7  A    between atoms: C_21  and  C_22
REMARK                            x       y       z     vdW  Elec       q    Type
REMARK                         _______ _______ _______ _____ _____    ______ ____
ROOT
ATOM      1  O   UNL     1       0.104   2.513  24.027  0.00  0.00    -0.218 OA
ATOM      2  C   UNL     1      -0.281   1.799  24.173  0.00  0.00    +0.213 C 
ATOM      3  C   UNL     1      -1.058   1.709  24.434  0.00  0.00    +0.170 C 
ATOM     15  O   UNL     1      -1.212   0.902  24.505  0.00  0.00    -0.351 OA
ATOM     16  C   UNL     1      -0.531   0.492  24.288  0.00  0.00    +0.157 C 
ATOM     28  C   UNL     1       0.046   1.046  24.082  0.00  0.00    +0.212 C 
ATOM     29  O   UNL     1       0.813   0.876  23.830  0.00  0.00    -0.218 OA
ENDROOT
BRANCH   3   4
ATOM      4  C   UNL     1      -1.588   2.321  24.597  0.00  0.00    +0.149 C 
BRANCH   4   5
ATOM      5  N   UNL     1      -2.336   2.321  24.250  0.00  0.00    -0.184 NA
ATOM      6  C   UNL     1      -3.000   2.517  24.700  0.00  0.00    +0.344 C 
ATOM      7  O   UNL     1      -2.914   2.711  25.497  0.00  0.00    -0.249 OA
ATOM      8  N   UNL     1      -3.748   2.517  24.354  0.00  0.00    -0.161 NA
BRANCH   8   9
ATOM      9  C   UNL     1      -4.412   2.712  24.804  0.00  0.00    +0.075 A 
ATOM     10  C   UNL     1      -4.914   2.118  25.077  0.00  0.00    +0.017 A 
ATOM     11  C   UNL     1      -5.577   2.312  25.527  0.00  0.00    +0.001 A 
ATOM     12  C   UNL     1      -5.738   3.103  25.704  0.00  0.00    +0.000 A 
ATOM     13  C   UNL     1      -5.235   3.697  25.431  0.00  0.00    +0.001 A 
ATOM     14  C   UNL     1      -4.572   3.501  24.981  0.00  0.00    +0.017 A 
ENDBRANCH   8   9
ENDBRANCH   4   5
ENDBRANCH   3   4
BRANCH  16  17
ATOM     17  C   UNL     1      -0.441  -0.329  24.277  0.00  0.00    +0.119 C 
BRANCH  17  18
ATOM     18  C   UNL     1      -0.925  -0.802  24.748  0.00  0.00    +0.244 C 
ATOM     19  O   UNL     1      -0.724  -0.945  25.535  0.00  0.00    -0.273 OA
ATOM     20  N   UNL     1      -1.611  -1.133  24.430  0.00  0.00    -0.200 NA
BRANCH  20  21
ATOM     21  C   UNL     1      -2.096  -1.607  24.900  0.00  0.00    +0.143 C 
BRANCH  21  22
ATOM     22  C   UNL     1      -2.825  -1.863  24.612  0.00  0.00    +0.019 A 
ATOM     23  C   UNL     1      -3.445  -1.325  24.522  0.00  0.00    +0.001 A 
ATOM     24  C   UNL     1      -4.174  -1.581  24.234  0.00  0.00    +0.020 A 
ATOM     25  C   UNL     1      -4.284  -2.374  24.037  0.00  0.00    +0.099 A 
ATOM     26  N   UNL     1      -3.666  -2.912  24.127  0.00  0.00    -0.243 NA
ATOM     27  C   UNL     1      -2.936  -2.656  24.416  0.00  0.00    +0.096 A 
ENDBRANCH  21  22
ENDBRANCH  20  21
ENDBRANCH  17  18
ENDBRANCH  16  17
TORSDOF 7
ENDMDL
