REMARK  Name = 
REMARK  8 active torsions:
REMARK  status: ('A' for Active; 'I' for Inactive)
REMARK    1  A    between atoms: N_2  and  C_3
REMARK    2  A    between atoms: N_2  and  C_11
REMARK    3  A    between atoms: C_3  and  C_4
REMARK    4  A    between atoms: C_4  and  C_5
REMARK    5  A    between atoms: C_17  and  N_18
REMARK    6  A    between atoms: N_18  and  C_19
REMARK    7  A    between atoms: C_19  and  C_20
REMARK    8  A    between atoms: C_23  and  C_26
REMARK                            x       y       z     vdW  Elec       q    Type
REMARK                         _______ _______ _______ _____ _____    ______ ____
ROOT
ATOM     11  C   UNL     1       1.611  -0.930   0.000  0.00  0.00    +0.147 C 
ATOM     12  C   UNL     1       0.640  -0.930   0.000  0.00  0.00    +0.253 C 
ATOM     13  O   UNL     1       0.120  -1.643   0.000  0.00  0.00    -0.327 OA
ATOM     14  C   UNL     1       0.740  -1.266   0.000  0.00  0.00    +0.176 C 
ATOM     15  C   UNL     1       1.060  -0.557   0.000  0.00  0.00    +0.166 C 
ATOM     16  O   UNL     1       0.500  -0.117   0.000  0.00  0.00    -0.328 OA
ATOM     17  C   UNL     1       1.989  -0.542   0.000  0.00  0.00    +0.135 C 
ATOM     32  C   UNL     1       2.127  -1.359   0.000  0.00  0.00    +0.190 C 
ATOM     33  O   UNL     1       2.539  -2.074   0.000  0.00  0.00    -0.220 OA
ENDROOT
BRANCH  11   2
ATOM      1  C   UNL     1       1.863  -2.337   0.000  0.00  0.00    +0.090 C 
ATOM      2  N   UNL     1       1.331  -1.706   0.000  0.00  0.00    -0.266 NA
BRANCH   2   3
ATOM      3  C   UNL     1       0.519  -1.852   0.000  0.00  0.00    +0.079 C 
BRANCH   3   4
ATOM      4  C   UNL     1       0.239  -2.628   0.000  0.00  0.00    +0.063 C 
BRANCH   4   5
ATOM      5  C   UNL     1      -0.573  -2.773   0.000  0.00  0.00    +0.060 A 
ATOM      6  N   UNL     1      -0.854  -3.549   0.000  0.00  0.00    -0.248 NA
ATOM      7  C   UNL     1      -1.666  -3.694   0.000  0.00  0.00    +0.098 A 
ATOM      8  C   UNL     1      -2.197  -3.064   0.000  0.00  0.00    +0.021 A 
ATOM      9  C   UNL     1      -1.917  -2.288   0.000  0.00  0.00    +0.003 A 
ATOM     10  C   UNL     1      -1.105  -2.142   0.000  0.00  0.00    +0.015 A 
ENDBRANCH   4   5
ENDBRANCH   3   4
ENDBRANCH   2   3
ENDBRANCH  11   2
BRANCH  17  18
ATOM     18  N   UNL     1       2.517   0.093   0.000  0.00  0.00    -0.209 NA
BRANCH  18  19
ATOM     19  C   UNL     1       2.231   0.867   0.000  0.00  0.00    +0.115 C 
BRANCH  19  20
ATOM     20  C   UNL     1       2.758   1.501   0.000  0.00  0.00    -0.005 A 
ATOM     21  C   UNL     1       2.472   2.275   0.000  0.00  0.00    -0.003 A 
ATOM     22  C   UNL     1       2.999   2.910   0.000  0.00  0.00    -0.000 A 
ATOM     23  C   UNL     1       3.812   2.770   0.000  0.00  0.00    -0.000 A 
ATOM     24  C   UNL     1       4.098   1.996   0.000  0.00  0.00    -0.000 A 
ATOM     25  C   UNL     1       3.571   1.362   0.000  0.00  0.00    -0.003 A 
BRANCH  23  26
ATOM     26  C   UNL     1       4.340   3.405   0.000  0.00  0.00    -0.000 A 
ATOM     27  C   UNL     1       4.054   4.179   0.000  0.00  0.00    -0.000 A 
ATOM     28  C   UNL     1       4.581   4.813   0.000  0.00  0.00    +0.000 A 
ATOM     29  C   UNL     1       5.394   4.674   0.000  0.00  0.00    +0.000 A 
ATOM     30  C   UNL     1       5.680   3.900   0.000  0.00  0.00    +0.000 A 
ATOM     31  C   UNL     1       5.153   3.265   0.000  0.00  0.00    -0.000 A 
ENDBRANCH  23  26
ENDBRANCH  19  20
ENDBRANCH  18  19
ENDBRANCH  17  18
TORSDOF 8
