MODEL 1
REMARK VINA RESULT:     -10.5      0.000      0.000
REMARK  Name = 
REMARK  6 active torsions:
REMARK  status: ('A' for Active; 'I' for Inactive)
REMARK    1  A    between atoms: N_2  and  C_4
REMARK    2  A    between atoms: C_7  and  C_8
REMARK    3  A    between atoms: C_8  and  N_9
REMARK    4  A    between atoms: C_13  and  C_14
REMARK    5  A    between atoms: C_16  and  C_19
REMARK    6  A    between atoms: C_22  and  N_25
REMARK                            x       y       z     vdW  Elec       q    Type
REMARK                         _______ _______ _______ _____ _____    ______ ____
ROOT
ATOM     14  C   UNL     1      -5.056   1.965  25.422  0.00  0.00    +0.251 A 
ATOM     15  N   UNL     1      -4.498   1.444  25.108  0.00  0.00    -0.190 NA
ATOM     16  C   UNL     1      -4.724   0.677  25.308  0.00  0.00    +0.205 A 
ATOM     17  N   UNL     1      -5.421   0.722  25.747  0.00  0.00    -0.056 NA
ATOM     18  O   UNL     1      -5.626   1.517  25.817  0.00  0.00    -0.336 OA
ENDROOT
BRANCH  16  19
ATOM     19  C   UNL     1      -4.322  -0.016  25.106  0.00  0.00    +0.058 A 
ATOM     20  C   UNL     1      -4.331  -0.284  24.326  0.00  0.00    +0.008 A 
ATOM     21  C   UNL     1      -3.929  -0.976  24.123  0.00  0.00    +0.038 A 
ATOM     22  C   UNL     1      -3.520  -1.399  24.701  0.00  0.00    +0.149 A 
ATOM     23  N   UNL     1      -3.512  -1.131  25.481  0.00  0.00    -0.226 NA
ATOM     24  C   UNL     1      -3.913  -0.439  25.684  0.00  0.00    +0.104 A 
BRANCH  22  25
ATOM     25  N   UNL     1      -3.119  -2.091  24.499  0.00  0.00    -0.271 N 
ATOM     26  C   UNL     1      -2.301  -2.172  24.418  0.00  0.00    +0.104 A 
ATOM     27  C   UNL     1      -2.142  -2.955  24.211  0.00  0.00    +0.120 A 
ATOM     28  N   UNL     1      -2.860  -3.358  24.164  0.00  0.00    -0.222 NA
ATOM     29  C   UNL     1      -3.464  -2.824  24.342  0.00  0.00    +0.184 A 
ENDBRANCH  22  25
ENDBRANCH  16  19
BRANCH  14  13
ATOM      9  N   UNL     1      -4.384   3.270  25.434  0.00  0.00    -0.263 NA
ATOM     10  C   UNL     1      -4.623   4.052  25.323  0.00  0.00    +0.073 C 
ATOM     11  C   UNL     1      -5.434   4.050  25.173  0.00  0.00    +0.019 C 
ATOM     12  C   UNL     1      -5.695   3.268  25.192  0.00  0.00    +0.027 C 
ATOM     13  C   UNL     1      -5.045   2.786  25.353  0.00  0.00    +0.138 C 
BRANCH   9   8
ATOM      8  C   UNL     1      -3.615   3.018  25.598  0.00  0.00    +0.099 C 
BRANCH   8   7
ATOM      4  C   UNL     1      -1.698   4.522  25.161  0.00  0.00    +0.143 A 
ATOM      5  C   UNL     1      -2.099   4.563  25.880  0.00  0.00    +0.024 A 
ATOM      6  C   UNL     1      -2.738   4.062  26.027  0.00  0.00    -0.001 A 
ATOM      7  C   UNL     1      -2.976   3.519  25.452  0.00  0.00    -0.006 A 
ATOM     30  C   UNL     1      -2.575   3.478  24.732  0.00  0.00    -0.001 A 
ATOM     31  C   UNL     1      -1.936   3.979  24.587  0.00  0.00    +0.024 A 
BRANCH   4   2
ATOM      1  O   UNL     1      -0.312   4.705  24.865  0.00  0.00    -0.126 OA
ATOM      2  N   UNL     1      -1.059   5.022  25.015  0.00  0.00    +0.058 N 
ATOM      3  O   UNL     1      -1.167   5.840  25.019  0.00  0.00    -0.126 OA
ENDBRANCH   4   2
ENDBRANCH   8   7
ENDBRANCH   9   8
ENDBRANCH  14  13
TORSDOF 6
ENDMDL
MODEL 2
REMARK VINA RESULT:     -10.3      3.242      4.442
REMARK  Name = 
REMARK  6 active torsions:
REMARK  status: ('A' for Active; 'I' for Inactive)
REMARK    1  A    between atoms: N_2  and  C_4
REMARK    2  A    between atoms: C_7  and  C_8
REMARK    3  A    between atoms: C_8  and  N_9
REMARK    4  A    between atoms: C_13  and  C_14
REMARK    5  A    between atoms: C_16  and  C_19
REMARK    6  A    between atoms: C_22  and  N_25
REMARK                            x       y       z     vdW  Elec       q    Type
REMARK                         _______ _______ _______ _____ _____    ______ ____
ROOT
ATOM     14  C   UNL     1      -2.304  -0.082  24.891  0.00  0.00    +0.251 A 
ATOM     15  N   UNL     1      -1.780  -0.059  24.254  0.00  0.00    -0.190 NA
ATOM     16  C   UNL     1      -1.014  -0.014  24.555  0.00  0.00    +0.205 A 
ATOM     17  N   UNL     1      -1.063  -0.010  25.378  0.00  0.00    -0.056 NA
ATOM     18  O   UNL     1      -1.859  -0.052  25.585  0.00  0.00    -0.336 OA
ENDROOT
BRANCH  16  19
ATOM     19  C   UNL     1      -0.319   0.021  24.110  0.00  0.00    +0.058 A 
ATOM     20  C   UNL     1       0.002   0.752  23.905  0.00  0.00    +0.008 A 
ATOM     21  C   UNL     1       0.697   0.787  23.460  0.00  0.00    +0.038 A 
ATOM     22  C   UNL     1       1.069   0.091  23.221  0.00  0.00    +0.149 A 
ATOM     23  N   UNL     1       0.747  -0.641  23.426  0.00  0.00    -0.226 NA
ATOM     24  C   UNL     1       0.053  -0.676  23.871  0.00  0.00    +0.104 A 
BRANCH  22  25
ATOM     25  N   UNL     1       1.763   0.125  22.776  0.00  0.00    -0.271 N 
ATOM     26  C   UNL     1       2.479   0.458  23.019  0.00  0.00    +0.104 A 
ATOM     27  C   UNL     1       3.022   0.372  22.404  0.00  0.00    +0.120 A 
ATOM     28  N   UNL     1       2.642  -0.014  21.781  0.00  0.00    -0.222 NA
ATOM     29  C   UNL     1       1.864  -0.167  22.011  0.00  0.00    +0.184 A 
ENDBRANCH  22  25
ENDBRANCH  16  19
BRANCH  14  13
ATOM      9  N   UNL     1      -3.639   0.504  24.719  0.00  0.00    -0.263 NA
ATOM     10  C   UNL     1      -4.410   0.209  24.708  0.00  0.00    +0.073 C 
ATOM     11  C   UNL     1      -4.372  -0.607  24.826  0.00  0.00    +0.019 C 
ATOM     12  C   UNL     1      -3.578  -0.815  24.909  0.00  0.00    +0.027 C 
ATOM     13  C   UNL     1      -3.125  -0.128  24.842  0.00  0.00    +0.138 C 
BRANCH   9   8
ATOM      8  C   UNL     1      -3.422   1.294  24.622  0.00  0.00    +0.099 C 
BRANCH   8   7
ATOM      4  C   UNL     1      -4.990   3.098  25.267  0.00  0.00    +0.143 A 
ATOM      5  C   UNL     1      -5.079   2.713  24.543  0.00  0.00    +0.024 A 
ATOM      6  C   UNL     1      -4.557   2.112  24.327  0.00  0.00    -0.001 A 
ATOM      7  C   UNL     1      -3.945   1.895  24.837  0.00  0.00    -0.006 A 
ATOM     30  C   UNL     1      -3.855   2.280  25.562  0.00  0.00    -0.001 A 
ATOM     31  C   UNL     1      -4.378   2.881  25.776  0.00  0.00    +0.024 A 
BRANCH   4   2
ATOM      1  O   UNL     1      -5.313   4.488  25.340  0.00  0.00    -0.126 OA
ATOM      2  N   UNL     1      -5.512   3.699  25.482  0.00  0.00    +0.058 N 
ATOM      3  O   UNL     1      -6.232   3.512  25.838  0.00  0.00    -0.126 OA
ENDBRANCH   4   2
ENDBRANCH   8   7
ENDBRANCH   9   8
ENDBRANCH  14  13
TORSDOF 6
ENDMDL
MODEL 3
REMARK VINA RESULT:      -9.8      1.963      3.605
REMARK  Name = 
REMARK  6 active torsions:
REMARK  status: ('A' for Active; 'I' for Inactive)
REMARK    1  A    between atoms: N_2  and  C_4
REMARK    2  A    between atoms: C_7  and  C_8
REMARK    3  A    between atoms: C_8  and  N_9
REMARK    4  A    between atoms: C_13  and  C_14
REMARK    5  A    between atoms: C_16  and  C_19
REMARK    6  A    between atoms: C_22  and  N_25
REMARK                            x       y       z     vdW  Elec       q    Type
REMARK                         _______ _______ _______ _____ _____    ______ ____
ROOT
ATOM     14  C   UNL     1      -0.719   3.090  25.301  0.00  0.00    +0.251 A 
ATOM     15  N   UNL     1      -1.071   2.372  25.098  0.00  0.00    -0.190 NA
ATOM     16  C   UNL     1      -0.537   1.768  25.271  0.00  0.00    +0.205 A 
ATOM     17  N   UNL     1       0.145   2.113  25.580  0.00  0.00    -0.056 NA
ATOM     18  O   UNL     1       0.033   2.929  25.599  0.00  0.00    -0.336 OA
ENDROOT
BRANCH  16  19
ATOM     19  C   UNL     1      -0.662   0.961  25.154  0.00  0.00    +0.058 A 
ATOM     20  C   UNL     1      -1.047   0.516  25.732  0.00  0.00    +0.008 A 
ATOM     21  C   UNL     1      -1.173  -0.291  25.615  0.00  0.00    +0.038 A 
ATOM     22  C   UNL     1      -0.914  -0.653  24.920  0.00  0.00    +0.149 A 
ATOM     23  N   UNL     1      -0.529  -0.208  24.342  0.00  0.00    -0.226 NA
ATOM     24  C   UNL     1      -0.403   0.599  24.459  0.00  0.00    +0.104 A 
BRANCH  22  25
ATOM     25  N   UNL     1      -1.040  -1.460  24.804  0.00  0.00    -0.271 N 
ATOM     26  C   UNL     1      -1.680  -1.799  24.408  0.00  0.00    +0.104 A 
ATOM     27  C   UNL     1      -1.583  -2.618  24.422  0.00  0.00    +0.120 A 
ATOM     28  N   UNL     1      -0.883  -2.786  24.826  0.00  0.00    -0.222 NA
ATOM     29  C   UNL     1      -0.548  -2.070  25.062  0.00  0.00    +0.184 A 
ENDBRANCH  22  25
ENDBRANCH  16  19
BRANCH  14  13
ATOM      9  N   UNL     1      -1.787   4.073  25.528  0.00  0.00    -0.263 NA
ATOM     10  C   UNL     1      -1.911   4.861  25.316  0.00  0.00    +0.073 C 
ATOM     11  C   UNL     1      -1.258   5.112  24.877  0.00  0.00    +0.019 C 
ATOM     12  C   UNL     1      -0.732   4.479  24.818  0.00  0.00    +0.027 C 
ATOM     13  C   UNL     1      -1.060   3.837  25.221  0.00  0.00    +0.138 C 
BRANCH   9   8
ATOM      8  C   UNL     1      -2.302   3.604  25.970  0.00  0.00    +0.099 C 
BRANCH   8   7
ATOM      4  C   UNL     1      -4.748   3.809  25.649  0.00  0.00    +0.143 A 
ATOM      5  C   UNL     1      -4.291   3.407  25.092  0.00  0.00    +0.024 A 
ATOM      6  C   UNL     1      -3.476   3.338  25.199  0.00  0.00    -0.001 A 
ATOM      7  C   UNL     1      -3.118   3.673  25.863  0.00  0.00    -0.006 A 
ATOM     30  C   UNL     1      -3.575   4.075  26.419  0.00  0.00    -0.001 A 
ATOM     31  C   UNL     1      -4.390   4.143  26.312  0.00  0.00    +0.024 A 
BRANCH   4   2
ATOM      1  O   UNL     1      -6.017   3.205  25.387  0.00  0.00    -0.126 OA
ATOM      2  N   UNL     1      -5.563   3.877  25.541  0.00  0.00    +0.058 N 
ATOM      3  O   UNL     1      -5.926   4.617  25.588  0.00  0.00    -0.126 OA
ENDBRANCH   4   2
ENDBRANCH   8   7
ENDBRANCH   9   8
ENDBRANCH  14  13
TORSDOF 6
ENDMDL
MODEL 4
REMARK VINA RESULT:      -9.7      3.009      5.252
REMARK  Name = 
REMARK  6 active torsions:
REMARK  status: ('A' for Active; 'I' for Inactive)
REMARK    1  A    between atoms: N_2  and  C_4
REMARK    2  A    between atoms: C_7  and  C_8
REMARK    3  A    between atoms: C_8  and  N_9
REMARK    4  A    between atoms: C_13  and  C_14
REMARK    5  A    between atoms: C_16  and  C_19
REMARK    6  A    between atoms: C_22  and  N_25
REMARK                            x       y       z     vdW  Elec       q    Type
REMARK                         _______ _______ _______ _____ _____    ______ ____
ROOT
ATOM     14  C   UNL     1      -2.142  -0.463  24.553  0.00  0.00    +0.251 A 
ATOM     15  N   UNL     1      -2.430   0.223  24.912  0.00  0.00    -0.190 NA
ATOM     16  C   UNL     1      -3.169   0.390  24.586  0.00  0.00    +0.205 A 
ATOM     17  N   UNL     1      -3.338  -0.191  24.026  0.00  0.00    -0.056 NA
ATOM     18  O   UNL     1      -2.704  -0.717  24.006  0.00  0.00    -0.336 OA
ENDROOT
BRANCH  16  19
ATOM     19  C   UNL     1      -3.654   1.027  24.786  0.00  0.00    +0.058 A 
ATOM     20  C   UNL     1      -4.449   0.900  24.964  0.00  0.00    +0.008 A 
ATOM     21  C   UNL     1      -4.934   1.537  25.163  0.00  0.00    +0.038 A 
ATOM     22  C   UNL     1      -4.624   2.301  25.185  0.00  0.00    +0.149 A 
ATOM     23  N   UNL     1      -3.828   2.428  25.008  0.00  0.00    -0.226 NA
ATOM     24  C   UNL     1      -3.343   1.791  24.808  0.00  0.00    +0.104 A 
BRANCH  22  25
ATOM     25  N   UNL     1      -5.109   2.938  25.385  0.00  0.00    -0.271 N 
ATOM     26  C   UNL     1      -4.936   3.736  25.263  0.00  0.00    +0.104 A 
ATOM     27  C   UNL     1      -5.571   4.180  25.544  0.00  0.00    +0.120 A 
ATOM     28  N   UNL     1      -6.137   3.657  25.840  0.00  0.00    -0.222 NA
ATOM     29  C   UNL     1      -5.851   2.889  25.741  0.00  0.00    +0.184 A 
ENDBRANCH  22  25
ENDBRANCH  16  19
BRANCH  14  13
ATOM      9  N   UNL     1      -0.698  -0.647  24.361  0.00  0.00    -0.263 NA
ATOM     10  C   UNL     1      -0.124  -1.145  24.683  0.00  0.00    +0.073 C 
ATOM     11  C   UNL     1      -0.493  -1.633  25.237  0.00  0.00    +0.019 C 
ATOM     12  C   UNL     1      -1.295  -1.437  25.255  0.00  0.00    +0.027 C 
ATOM     13  C   UNL     1      -1.420  -0.827  24.713  0.00  0.00    +0.138 C 
BRANCH   9   8
ATOM      8  C   UNL     1      -0.570  -0.070  23.785  0.00  0.00    +0.099 C 
BRANCH   8   7
ATOM      4  C   UNL     1       1.729   0.406  22.998  0.00  0.00    +0.143 A 
ATOM      5  C   UNL     1       1.387   0.878  23.582  0.00  0.00    +0.024 A 
ATOM      6  C   UNL     1       0.621   0.719  23.845  0.00  0.00    -0.001 A 
ATOM      7  C   UNL     1       0.197   0.088  23.523  0.00  0.00    -0.006 A 
ATOM     30  C   UNL     1       0.539  -0.384  22.939  0.00  0.00    -0.001 A 
ATOM     31  C   UNL     1       1.305  -0.224  22.677  0.00  0.00    +0.024 A 
BRANCH   4   2
ATOM      1  O   UNL     1       2.795   0.169  22.077  0.00  0.00    -0.126 OA
ATOM      2  N   UNL     1       2.494   0.564  22.737  0.00  0.00    +0.058 N 
ATOM      3  O   UNL     1       2.960   1.118  23.133  0.00  0.00    -0.126 OA
ENDBRANCH   4   2
ENDBRANCH   8   7
ENDBRANCH   9   8
ENDBRANCH  14  13
TORSDOF 6
ENDMDL
MODEL 5
REMARK VINA RESULT:      -9.5      3.261      4.690
REMARK  Name = 
REMARK  6 active torsions:
REMARK  status: ('A' for Active; 'I' for Inactive)
REMARK    1  A    between atoms: N_2  and  C_4
REMARK    2  A    between atoms: C_7  and  C_8
REMARK    3  A    between atoms: C_8  and  N_9
REMARK    4  A    between atoms: C_13  and  C_14
REMARK    5  A    between atoms: C_16  and  C_19
REMARK    6  A    between atoms: C_22  and  N_25
REMARK                            x       y       z     vdW  Elec       q    Type
REMARK                         _______ _______ _______ _____ _____    ______ ____
ROOT
ATOM     14  C   UNL     1      -1.373   2.429  25.294  0.00  0.00    +0.251 A 
ATOM     15  N   UNL     1      -0.879   2.310  24.644  0.00  0.00    -0.190 NA
ATOM     16  C   UNL     1      -0.422   1.639  24.790  0.00  0.00    +0.205 A 
ATOM     17  N   UNL     1      -0.633   1.344  25.530  0.00  0.00    -0.056 NA
ATOM     18  O   UNL     1      -1.220   1.831  25.842  0.00  0.00    -0.336 OA
ENDROOT
BRANCH  16  19
ATOM     19  C   UNL     1       0.147   1.319  24.284  0.00  0.00    +0.058 A 
ATOM     20  C   UNL     1      -0.004   0.610  23.890  0.00  0.00    +0.008 A 
ATOM     21  C   UNL     1       0.564   0.291  23.384  0.00  0.00    +0.038 A 
ATOM     22  C   UNL     1       1.283   0.681  23.273  0.00  0.00    +0.149 A 
ATOM     23  N   UNL     1       1.434   1.389  23.667  0.00  0.00    -0.226 NA
ATOM     24  C   UNL     1       0.865   1.709  24.173  0.00  0.00    +0.104 A 
BRANCH  22  25
ATOM     25  N   UNL     1       1.851   0.361  22.767  0.00  0.00    -0.271 N 
ATOM     26  C   UNL     1       2.667   0.472  22.823  0.00  0.00    +0.104 A 
ATOM     27  C   UNL     1       3.024   0.054  22.207  0.00  0.00    +0.120 A 
ATOM     28  N   UNL     1       2.428  -0.315  21.771  0.00  0.00    -0.222 NA
ATOM     29  C   UNL     1       1.704  -0.125  22.117  0.00  0.00    +0.184 A 
ENDBRANCH  22  25
ENDBRANCH  16  19
BRANCH  14  13
ATOM      9  N   UNL     1      -2.700   3.031  25.111  0.00  0.00    -0.263 NA
ATOM     10  C   UNL     1      -3.049   3.750  25.315  0.00  0.00    +0.073 C 
ATOM     11  C   UNL     1      -2.485   4.202  25.712  0.00  0.00    +0.019 C 
ATOM     12  C   UNL     1      -1.788   3.763  25.753  0.00  0.00    +0.027 C 
ATOM     13  C   UNL     1      -1.922   3.038  25.381  0.00  0.00    +0.138 C 
BRANCH   9   8
ATOM      8  C   UNL     1      -3.067   2.412  24.707  0.00  0.00    +0.099 C 
BRANCH   8   7
ATOM      4  C   UNL     1      -5.482   1.977  25.037  0.00  0.00    +0.143 A 
ATOM      5  C   UNL     1      -4.923   1.454  25.343  0.00  0.00    +0.024 A 
ATOM      6  C   UNL     1      -4.118   1.598  25.233  0.00  0.00    -0.001 A 
ATOM      7  C   UNL     1      -3.873   2.267  24.817  0.00  0.00    -0.006 A 
ATOM     30  C   UNL     1      -4.432   2.791  24.510  0.00  0.00    -0.001 A 
ATOM     31  C   UNL     1      -5.236   2.645  24.621  0.00  0.00    +0.024 A 
BRANCH   4   2
ATOM      1  O   UNL     1      -6.626   1.934  25.893  0.00  0.00    -0.126 OA
ATOM      2  N   UNL     1      -6.286   1.832  25.147  0.00  0.00    +0.058 N 
ATOM      3  O   UNL     1      -6.752   1.585  24.512  0.00  0.00    -0.126 OA
ENDBRANCH   4   2
ENDBRANCH   8   7
ENDBRANCH   9   8
ENDBRANCH  14  13
TORSDOF 6
ENDMDL
MODEL 6
REMARK VINA RESULT:      -8.8      3.573      5.488
REMARK  Name = 
REMARK  6 active torsions:
REMARK  status: ('A' for Active; 'I' for Inactive)
REMARK    1  A    between atoms: N_2  and  C_4
REMARK    2  A    between atoms: C_7  and  C_8
REMARK    3  A    between atoms: C_8  and  N_9
REMARK    4  A    between atoms: C_13  and  C_14
REMARK    5  A    between atoms: C_16  and  C_19
REMARK    6  A    between atoms: C_22  and  N_25
REMARK                            x       y       z     vdW  Elec       q    Type
REMARK                         _______ _______ _______ _____ _____    ______ ____
ROOT
ATOM     14  C   UNL     1      -1.956   1.625  24.751  0.00  0.00    +0.251 A 
ATOM     15  N   UNL     1      -1.410   1.302  24.223  0.00  0.00    -0.190 NA
ATOM     16  C   UNL     1      -0.654   1.509  24.479  0.00  0.00    +0.205 A 
ATOM     17  N   UNL     1      -0.732   1.961  25.164  0.00  0.00    -0.056 NA
ATOM     18  O   UNL     1      -1.535   2.033  25.332  0.00  0.00    -0.336 OA
ENDROOT
BRANCH  16  19
ATOM     19  C   UNL     1       0.055   1.301  24.112  0.00  0.00    +0.058 A 
ATOM     20  C   UNL     1       0.110   0.593  23.693  0.00  0.00    +0.008 A 
ATOM     21  C   UNL     1       0.820   0.385  23.326  0.00  0.00    +0.038 A 
ATOM     22  C   UNL     1       1.474   0.885  23.380  0.00  0.00    +0.149 A 
ATOM     23  N   UNL     1       1.419   1.594  23.799  0.00  0.00    -0.226 NA
ATOM     24  C   UNL     1       0.709   1.802  24.165  0.00  0.00    +0.104 A 
BRANCH  22  25
ATOM     25  N   UNL     1       2.184   0.678  23.013  0.00  0.00    -0.271 N 
ATOM     26  C   UNL     1       2.905   1.071  23.094  0.00  0.00    +0.104 A 
ATOM     27  C   UNL     1       3.464   0.676  22.633  0.00  0.00    +0.120 A 
ATOM     28  N   UNL     1       3.088   0.039  22.267  0.00  0.00    -0.222 NA
ATOM     29  C   UNL     1       2.297   0.040  22.502  0.00  0.00    +0.184 A 
ENDBRANCH  22  25
ENDBRANCH  16  19
BRANCH  14  13
ATOM      9  N   UNL     1      -3.215   0.884  24.898  0.00  0.00    -0.263 NA
ATOM     10  C   UNL     1      -4.012   1.054  24.771  0.00  0.00    +0.073 C 
ATOM     11  C   UNL     1      -4.065   1.832  24.500  0.00  0.00    +0.019 C 
ATOM     12  C   UNL     1      -3.301   2.141  24.459  0.00  0.00    +0.027 C 
ATOM     13  C   UNL     1      -2.776   1.554  24.706  0.00  0.00    +0.138 C 
BRANCH   9   8
ATOM      8  C   UNL     1      -2.912   0.167  25.171  0.00  0.00    +0.099 C 
BRANCH   8   7
ATOM      4  C   UNL     1      -3.874  -1.970  24.372  0.00  0.00    +0.143 A 
ATOM      5  C   UNL     1      -3.788  -1.833  25.181  0.00  0.00    +0.024 A 
ATOM      6  C   UNL     1      -3.468  -1.121  25.447  0.00  0.00    -0.001 A 
ATOM      7  C   UNL     1      -3.232  -0.546  24.904  0.00  0.00    -0.006 A 
ATOM     30  C   UNL     1      -3.318  -0.683  24.095  0.00  0.00    -0.001 A 
ATOM     31  C   UNL     1      -3.639  -1.395  23.829  0.00  0.00    +0.024 A 
BRANCH   4   2
ATOM      1  O   UNL     1      -3.838  -3.397  24.313  0.00  0.00    -0.126 OA
ATOM      2  N   UNL     1      -4.194  -2.681  24.106  0.00  0.00    +0.058 N 
ATOM      3  O   UNL     1      -4.871  -2.679  23.633  0.00  0.00    -0.126 OA
ENDBRANCH   4   2
ENDBRANCH   8   7
ENDBRANCH   9   8
ENDBRANCH  14  13
TORSDOF 6
ENDMDL
