REMARK  Name = 
REMARK  8 active torsions:
REMARK  status: ('A' for Active; 'I' for Inactive)
REMARK    1  A    between atoms: O_2  and  C_3
REMARK    2  A    between atoms: C_3  and  C_4
REMARK    3  A    between atoms: C_9  and  C_11
REMARK    4  A    between atoms: C_11  and  C_12
REMARK    5  A    between atoms: C_14  and  C_15
REMARK    6  A    between atoms: C_15  and  N_16
REMARK    7  A    between atoms: N_16  and  S_17
REMARK    8  A    between atoms: S_17  and  C_20
REMARK                            x       y       z     vdW  Elec       q    Type
REMARK                         _______ _______ _______ _____ _____    ______ ____
ROOT
ATOM     12  C   UNL     1      -2.880  -7.051   0.000  0.00  0.00    +0.157 C 
ATOM     13  O   UNL     1      -3.548  -7.536   0.000  0.00  0.00    -0.351 OA
ATOM     14  C   UNL     1      -4.215  -7.051   0.000  0.00  0.00    +0.167 C 
ATOM     26  C   UNL     1      -3.960  -6.266   0.000  0.00  0.00    +0.213 C 
ATOM     27  O   UNL     1      -4.445  -5.599   0.000  0.00  0.00    -0.218 OA
ATOM     28  C   UNL     1      -3.135  -6.266   0.000  0.00  0.00    +0.212 C 
ATOM     29  O   UNL     1      -2.650  -5.599   0.000  0.00  0.00    -0.218 OA
ENDROOT
BRANCH  12  11
ATOM     11  C   UNL     1      -2.095  -7.306   0.000  0.00  0.00    +0.117 C 
BRANCH  11   9
ATOM      4  C   UNL     1      -0.030  -6.524   0.000  0.00  0.00    +0.105 C 
ATOM      5  C   UNL     1       0.637  -7.009   0.000  0.00  0.00    +0.024 C 
ATOM      6  C   UNL     1       0.382  -7.794   0.000  0.00  0.00    +0.023 C 
ATOM      7  C   UNL     1      -0.443  -7.794   0.000  0.00  0.00    +0.093 C 
ATOM      8  N   UNL     1      -0.698  -7.009   0.000  0.00  0.00    -0.279 N 
ATOM      9  C   UNL     1      -1.482  -6.754   0.000  0.00  0.00    +0.228 C 
ATOM     10  O   UNL     1      -1.654  -5.947   0.000  0.00  0.00    -0.275 OA
BRANCH   4   3
ATOM      3  C   UNL     1      -0.030  -5.699   0.000  0.00  0.00    +0.162 C 
BRANCH   3   2
ATOM      1  C   UNL     1       0.684  -4.462   0.000  0.00  0.00    +0.174 C 
ATOM      2  O   UNL     1       0.684  -5.287   0.000  0.00  0.00    -0.349 OA
ENDBRANCH   3   2
ENDBRANCH   4   3
ENDBRANCH  11   9
ENDBRANCH  12  11
BRANCH  14  15
ATOM     15  C   UNL     1      -5.000  -7.306   0.000  0.00  0.00    +0.148 C 
BRANCH  15  16
ATOM     16  N   UNL     1      -5.171  -8.113   0.000  0.00  0.00    -0.075 NA
BRANCH  16  17
ATOM     17  S   UNL     1      -5.956  -8.368   0.000  0.00  0.00    +0.077 S 
ATOM     18  O   UNL     1      -6.211  -7.583   0.000  0.00  0.00    -0.152 OA
ATOM     19  O   UNL     1      -5.701  -9.153   0.000  0.00  0.00    -0.152 OA
BRANCH  17  20
ATOM     20  C   UNL     1      -6.740  -8.623   0.000  0.00  0.00    +0.124 A 
ATOM     21  C   UNL     1      -6.912  -9.430   0.000  0.00  0.00    +0.020 A 
ATOM     22  C   UNL     1      -7.697  -9.685   0.000  0.00  0.00    +0.001 A 
ATOM     23  C   UNL     1      -8.310  -9.133   0.000  0.00  0.00    +0.000 A 
ATOM     24  C   UNL     1      -8.138  -8.326   0.000  0.00  0.00    +0.001 A 
ATOM     25  C   UNL     1      -7.354  -8.071   0.000  0.00  0.00    +0.020 A 
ENDBRANCH  17  20
ENDBRANCH  16  17
ENDBRANCH  15  16
ENDBRANCH  14  15
TORSDOF 8
