MODEL 1
REMARK VINA RESULT:      -9.2      0.000      0.000
REMARK  Name = 
REMARK  8 active torsions:
REMARK  status: ('A' for Active; 'I' for Inactive)
REMARK    1  A    between atoms: C_2  and  C_4
REMARK    2  A    between atoms: C_6  and  C_7
REMARK    3  A    between atoms: C_7  and  C_8
REMARK    4  A    between atoms: N_10  and  C_12
REMARK    5  A    between atoms: C_12  and  C_13
REMARK    6  A    between atoms: C_22  and  C_23
REMARK    7  A    between atoms: C_23  and  N_24
REMARK    8  A    between atoms: C_25  and  C_27
REMARK                            x       y       z     vdW  Elec       q    Type
REMARK                         _______ _______ _______ _____ _____    ______ ____
ROOT
ATOM      4  C   UNL     1      -1.484   0.997  24.674  0.00  0.00    +0.006 C 
ATOM      5  C   UNL     1      -1.938   1.654  24.880  0.00  0.00    +0.005 C 
ATOM      6  C   UNL     1      -1.660   2.414  24.718  0.00  0.00    +0.027 C 
ATOM     19  C   UNL     1      -0.928   2.516  24.350  0.00  0.00    -0.048 C 
ATOM     20  C   UNL     1      -0.650   3.275  24.187  0.00  0.00    +0.026 C 
ATOM     21  C   UNL     1      -0.474   1.858  24.144  0.00  0.00    -0.033 C 
ATOM     22  C   UNL     1      -0.752   1.099  24.306  0.00  0.00    +0.043 C 
ENDROOT
BRANCH   4   2
ATOM      1  C   UNL     1      -1.566  -0.130  25.550  0.00  0.00    +0.000 C 
ATOM      2  C   UNL     1      -1.762   0.237  24.837  0.00  0.00    +0.000 C 
ATOM      3  C   UNL     1      -2.236  -0.155  24.287  0.00  0.00    +0.000 C 
ENDBRANCH   4   2
BRANCH   6   7
ATOM      7  C   UNL     1      -2.114   3.071  24.923  0.00  0.00    +0.089 C 
BRANCH   7   8
ATOM      8  C   UNL     1      -2.876   3.157  24.618  0.00  0.00    +0.226 C 
ATOM      9  O   UNL     1      -3.018   3.020  23.817  0.00  0.00    -0.275 OA
ATOM     10  N   UNL     1      -3.495   3.381  25.115  0.00  0.00    -0.274 N 
ATOM     11  C   UNL     1      -3.354   3.518  25.916  0.00  0.00    +0.115 C 
BRANCH  10  12
ATOM     12  C   UNL     1      -4.258   3.467  24.810  0.00  0.00    +0.122 C 
BRANCH  12  13
ATOM     13  C   UNL     1      -4.889   3.066  25.159  0.00  0.00    +0.017 A 
ATOM     14  C   UNL     1      -5.197   2.389  24.800  0.00  0.00    +0.001 A 
ATOM     15  C   UNL     1      -5.828   1.989  25.150  0.00  0.00    +0.020 A 
ATOM     16  C   UNL     1      -6.150   2.264  25.857  0.00  0.00    +0.099 A 
ATOM     17  N   UNL     1      -5.842   2.940  26.215  0.00  0.00    -0.243 NA
ATOM     18  C   UNL     1      -5.211   3.341  25.867  0.00  0.00    +0.096 A 
ENDBRANCH  12  13
ENDBRANCH  10  12
ENDBRANCH   7   8
ENDBRANCH   6   7
BRANCH  22  23
ATOM     23  C   UNL     1      -0.298   0.441  24.101  0.00  0.00    +0.120 C 
BRANCH  23  24
ATOM     24  N   UNL     1       0.358   0.532  23.607  0.00  0.00    -0.200 NA
ATOM     25  C   UNL     1       0.834  -0.119  23.431  0.00  0.00    +0.284 C 
ATOM     26  O   UNL     1       0.654  -0.860  23.748  0.00  0.00    -0.267 OA
BRANCH  25  27
ATOM     27  C   UNL     1       1.489  -0.029  22.938  0.00  0.00    +0.155 A 
ATOM     28  C   UNL     1       1.446  -0.265  22.149  0.00  0.00    +0.123 A 
ATOM     29  N   UNL     1       2.102  -0.174  21.656  0.00  0.00    -0.239 NA
ATOM     30  C   UNL     1       2.799   0.152  21.952  0.00  0.00    +0.120 A 
ATOM     31  C   UNL     1       2.842   0.389  22.742  0.00  0.00    +0.120 A 
ATOM     32  N   UNL     1       2.187   0.298  23.234  0.00  0.00    -0.236 NA
ENDBRANCH  25  27
ENDBRANCH  23  24
ENDBRANCH  22  23
TORSDOF 8
ENDMDL
MODEL 2
REMARK VINA RESULT:      -7.8      2.896      4.431
REMARK  Name = 
REMARK  8 active torsions:
REMARK  status: ('A' for Active; 'I' for Inactive)
REMARK    1  A    between atoms: C_2  and  C_4
REMARK    2  A    between atoms: C_6  and  C_7
REMARK    3  A    between atoms: C_7  and  C_8
REMARK    4  A    between atoms: N_10  and  C_12
REMARK    5  A    between atoms: C_12  and  C_13
REMARK    6  A    between atoms: C_22  and  C_23
REMARK    7  A    between atoms: C_23  and  N_24
REMARK    8  A    between atoms: C_25  and  C_27
REMARK                            x       y       z     vdW  Elec       q    Type
REMARK                         _______ _______ _______ _____ _____    ______ ____
ROOT
ATOM      4  C   UNL     1      -3.433   1.461  23.909  0.00  0.00    +0.006 C 
ATOM      5  C   UNL     1      -3.519   2.203  24.261  0.00  0.00    +0.005 C 
ATOM      6  C   UNL     1      -4.131   2.335  24.800  0.00  0.00    +0.027 C 
ATOM     19  C   UNL     1      -4.655   1.726  24.986  0.00  0.00    -0.048 C 
ATOM     20  C   UNL     1      -5.266   1.858  25.524  0.00  0.00    +0.026 C 
ATOM     21  C   UNL     1      -4.569   0.984  24.634  0.00  0.00    -0.033 C 
ATOM     22  C   UNL     1      -3.958   0.852  24.096  0.00  0.00    +0.043 C 
ENDROOT
BRANCH   4   2
ATOM      1  C   UNL     1      -2.948   1.457  22.565  0.00  0.00    +0.000 C 
ATOM      2  C   UNL     1      -2.822   1.329  23.371  0.00  0.00    +0.000 C 
ATOM      3  C   UNL     1      -2.086   1.071  23.638  0.00  0.00    +0.000 C 
ENDBRANCH   4   2
BRANCH   6   7
ATOM      7  C   UNL     1      -4.216   3.076  25.151  0.00  0.00    +0.089 C 
BRANCH   7   8
ATOM      8  C   UNL     1      -3.603   3.391  25.605  0.00  0.00    +0.226 C 
ATOM      9  O   UNL     1      -3.316   2.974  26.257  0.00  0.00    -0.275 OA
ATOM     10  N   UNL     1      -3.276   4.121  25.406  0.00  0.00    -0.274 N 
ATOM     11  C   UNL     1      -3.562   4.538  24.754  0.00  0.00    +0.115 C 
BRANCH  10  12
ATOM     12  C   UNL     1      -2.662   4.436  25.860  0.00  0.00    +0.122 C 
BRANCH  12  13
ATOM     13  C   UNL     1      -1.967   4.689  25.494  0.00  0.00    +0.017 A 
ATOM     14  C   UNL     1      -1.328   4.174  25.420  0.00  0.00    +0.001 A 
ATOM     15  C   UNL     1      -0.633   4.428  25.054  0.00  0.00    +0.020 A 
ATOM     16  C   UNL     1      -0.579   5.197  24.762  0.00  0.00    +0.099 A 
ATOM     17  N   UNL     1      -1.218   5.713  24.836  0.00  0.00    -0.243 NA
ATOM     18  C   UNL     1      -1.913   5.460  25.202  0.00  0.00    +0.096 A 
ENDBRANCH  12  13
ENDBRANCH  10  12
ENDBRANCH   7   8
ENDBRANCH   6   7
BRANCH  22  23
ATOM     23  C   UNL     1      -3.872   0.111  23.745  0.00  0.00    +0.120 C 
BRANCH  23  24
ATOM     24  N   UNL     1      -3.680  -0.545  24.208  0.00  0.00    -0.200 NA
ATOM     25  C   UNL     1      -3.897  -1.302  23.960  0.00  0.00    +0.284 C 
ATOM     26  O   UNL     1      -4.305  -1.404  23.251  0.00  0.00    -0.267 OA
BRANCH  25  27
ATOM     27  C   UNL     1      -3.705  -1.957  24.424  0.00  0.00    +0.155 A 
ATOM     28  C   UNL     1      -3.693  -2.710  24.087  0.00  0.00    +0.123 A 
ATOM     29  N   UNL     1      -3.501  -3.366  24.550  0.00  0.00    -0.239 NA
ATOM     30  C   UNL     1      -3.321  -3.268  25.349  0.00  0.00    +0.120 A 
ATOM     31  C   UNL     1      -3.334  -2.515  25.686  0.00  0.00    +0.120 A 
ATOM     32  N   UNL     1      -3.526  -1.860  25.223  0.00  0.00    -0.236 NA
ENDBRANCH  25  27
ENDBRANCH  23  24
ENDBRANCH  22  23
TORSDOF 8
ENDMDL
MODEL 3
REMARK VINA RESULT:      -7.7      1.401      6.324
REMARK  Name = 
REMARK  8 active torsions:
REMARK  status: ('A' for Active; 'I' for Inactive)
REMARK    1  A    between atoms: C_2  and  C_4
REMARK    2  A    between atoms: C_6  and  C_7
REMARK    3  A    between atoms: C_7  and  C_8
REMARK    4  A    between atoms: N_10  and  C_12
REMARK    5  A    between atoms: C_12  and  C_13
REMARK    6  A    between atoms: C_22  and  C_23
REMARK    7  A    between atoms: C_23  and  N_24
REMARK    8  A    between atoms: C_25  and  C_27
REMARK                            x       y       z     vdW  Elec       q    Type
REMARK                         _______ _______ _______ _____ _____    ______ ____
ROOT
ATOM      4  C   UNL     1      -1.346  -0.137  24.621  0.00  0.00    +0.006 C 
ATOM      5  C   UNL     1      -0.581   0.084  24.409  0.00  0.00    +0.005 C 
ATOM      6  C   UNL     1      -0.454   0.785  23.991  0.00  0.00    +0.027 C 
ATOM     19  C   UNL     1      -1.094   1.264  23.787  0.00  0.00    -0.048 C 
ATOM     20  C   UNL     1      -0.968   1.964  23.369  0.00  0.00    +0.026 C 
ATOM     21  C   UNL     1      -1.861   1.043  23.999  0.00  0.00    -0.033 C 
ATOM     22  C   UNL     1      -1.986   0.342  24.417  0.00  0.00    +0.043 C 
ENDROOT
BRANCH   4   2
ATOM      1  C   UNL     1      -1.414  -0.842  25.862  0.00  0.00    +0.000 C 
ATOM      2  C   UNL     1      -1.472  -0.837  25.038  0.00  0.00    +0.000 C 
ATOM      3  C   UNL     1      -1.655  -1.532  24.633  0.00  0.00    +0.000 C 
ENDBRANCH   4   2
BRANCH   6   7
ATOM      7  C   UNL     1       0.312   1.005  23.779  0.00  0.00    +0.089 C 
BRANCH   7   8
ATOM      8  C   UNL     1       0.770   0.504  23.309  0.00  0.00    +0.226 C 
ATOM      9  O   UNL     1       0.414  -0.121  22.904  0.00  0.00    -0.275 OA
ATOM     10  N   UNL     1       1.583   0.628  23.246  0.00  0.00    -0.274 N 
ATOM     11  C   UNL     1       1.938   1.253  23.651  0.00  0.00    +0.115 C 
BRANCH  10  12
ATOM     12  C   UNL     1       2.041   0.126  22.777  0.00  0.00    +0.122 C 
BRANCH  12  13
ATOM     13  C   UNL     1       2.864   0.155  22.825  0.00  0.00    +0.017 A 
ATOM     14  C   UNL     1       3.277   0.777  22.476  0.00  0.00    +0.001 A 
ATOM     15  C   UNL     1       4.100   0.805  22.525  0.00  0.00    +0.020 A 
ATOM     16  C   UNL     1       4.510   0.210  22.923  0.00  0.00    +0.099 A 
ATOM     17  N   UNL     1       4.097  -0.412  23.273  0.00  0.00    -0.243 NA
ATOM     18  C   UNL     1       3.274  -0.441  23.224  0.00  0.00    +0.096 A 
ENDBRANCH  12  13
ENDBRANCH  10  12
ENDBRANCH   7   8
ENDBRANCH   6   7
BRANCH  22  23
ATOM     23  C   UNL     1      -2.752   0.122  24.629  0.00  0.00    +0.120 C 
BRANCH  23  24
ATOM     24  N   UNL     1      -3.316   0.701  24.796  0.00  0.00    -0.200 NA
ATOM     25  C   UNL     1      -4.120   0.518  24.752  0.00  0.00    +0.284 C 
ATOM     26  O   UNL     1      -4.360  -0.243  24.542  0.00  0.00    -0.267 OA
BRANCH  25  27
ATOM     27  C   UNL     1      -4.684   1.097  24.919  0.00  0.00    +0.155 A 
ATOM     28  C   UNL     1      -5.207   0.993  25.549  0.00  0.00    +0.123 A 
ATOM     29  N   UNL     1      -5.771   1.572  25.716  0.00  0.00    -0.239 NA
ATOM     30  C   UNL     1      -5.811   2.255  25.255  0.00  0.00    +0.120 A 
ATOM     31  C   UNL     1      -5.287   2.359  24.625  0.00  0.00    +0.120 A 
ATOM     32  N   UNL     1      -4.724   1.780  24.458  0.00  0.00    -0.236 NA
ENDBRANCH  25  27
ENDBRANCH  23  24
ENDBRANCH  22  23
TORSDOF 8
ENDMDL
MODEL 4
REMARK VINA RESULT:      -7.6      0.879      6.404
REMARK  Name = 
REMARK  8 active torsions:
REMARK  status: ('A' for Active; 'I' for Inactive)
REMARK    1  A    between atoms: C_2  and  C_4
REMARK    2  A    between atoms: C_6  and  C_7
REMARK    3  A    between atoms: C_7  and  C_8
REMARK    4  A    between atoms: N_10  and  C_12
REMARK    5  A    between atoms: C_12  and  C_13
REMARK    6  A    between atoms: C_22  and  C_23
REMARK    7  A    between atoms: C_23  and  N_24
REMARK    8  A    between atoms: C_25  and  C_27
REMARK                            x       y       z     vdW  Elec       q    Type
REMARK                         _______ _______ _______ _____ _____    ______ ____
ROOT
ATOM      4  C   UNL     1      -1.053   2.162  24.709  0.00  0.00    +0.006 C 
ATOM      5  C   UNL     1      -0.514   1.578  24.487  0.00  0.00    +0.005 C 
ATOM      6  C   UNL     1      -0.786   0.832  24.257  0.00  0.00    +0.027 C 
ATOM     19  C   UNL     1      -1.595   0.672  24.250  0.00  0.00    -0.048 C 
ATOM     20  C   UNL     1      -1.867  -0.072  24.021  0.00  0.00    +0.026 C 
ATOM     21  C   UNL     1      -2.134   1.257  24.472  0.00  0.00    -0.033 C 
ATOM     22  C   UNL     1      -1.862   2.002  24.701  0.00  0.00    +0.043 C 
ENDROOT
BRANCH   4   2
ATOM      1  C   UNL     1      -0.588   3.049  25.728  0.00  0.00    +0.000 C 
ATOM      2  C   UNL     1      -0.781   2.906  24.938  0.00  0.00    +0.000 C 
ATOM      3  C   UNL     1      -0.702   3.507  24.379  0.00  0.00    +0.000 C 
ENDBRANCH   4   2
BRANCH   6   7
ATOM      7  C   UNL     1      -0.247   0.248  24.036  0.00  0.00    +0.089 C 
BRANCH   7   8
ATOM      8  C   UNL     1       0.222   0.354  23.365  0.00  0.00    +0.226 C 
ATOM      9  O   UNL     1      -0.048   0.822  22.742  0.00  0.00    -0.275 OA
ATOM     10  N   UNL     1       0.961  -0.010  23.318  0.00  0.00    -0.274 N 
ATOM     11  C   UNL     1       1.231  -0.478  23.941  0.00  0.00    +0.115 C 
BRANCH  10  12
ATOM     12  C   UNL     1       1.430   0.096  22.646  0.00  0.00    +0.122 C 
BRANCH  12  13
ATOM     13  C   UNL     1       2.247   0.178  22.724  0.00  0.00    +0.017 A 
ATOM     14  C   UNL     1       2.583   0.930  22.779  0.00  0.00    +0.001 A 
ATOM     15  C   UNL     1       3.401   1.011  22.856  0.00  0.00    +0.020 A 
ATOM     16  C   UNL     1       3.882   0.342  22.879  0.00  0.00    +0.099 A 
ATOM     17  N   UNL     1       3.546  -0.409  22.825  0.00  0.00    -0.243 NA
ATOM     18  C   UNL     1       2.729  -0.492  22.747  0.00  0.00    +0.096 A 
ENDBRANCH  12  13
ENDBRANCH  10  12
ENDBRANCH   7   8
ENDBRANCH   6   7
BRANCH  22  23
ATOM     23  C   UNL     1      -2.401   2.586  24.923  0.00  0.00    +0.120 C 
BRANCH  23  24
ATOM     24  N   UNL     1      -3.182   2.382  25.094  0.00  0.00    -0.200 NA
ATOM     25  C   UNL     1      -3.770   2.962  25.088  0.00  0.00    +0.284 C 
ATOM     26  O   UNL     1      -3.577   3.744  24.911  0.00  0.00    -0.267 OA
BRANCH  25  27
ATOM     27  C   UNL     1      -4.551   2.758  25.259  0.00  0.00    +0.155 A 
ATOM     28  C   UNL     1      -4.903   3.026  25.956  0.00  0.00    +0.123 A 
ATOM     29  N   UNL     1      -5.685   2.822  26.127  0.00  0.00    -0.239 NA
ATOM     30  C   UNL     1      -6.113   2.350  25.603  0.00  0.00    +0.120 A 
ATOM     31  C   UNL     1      -5.760   2.082  24.906  0.00  0.00    +0.120 A 
ATOM     32  N   UNL     1      -4.979   2.286  24.735  0.00  0.00    -0.236 NA
ENDBRANCH  25  27
ENDBRANCH  23  24
ENDBRANCH  22  23
TORSDOF 8
ENDMDL
MODEL 5
REMARK VINA RESULT:      -7.6      3.191      5.255
REMARK  Name = 
REMARK  8 active torsions:
REMARK  status: ('A' for Active; 'I' for Inactive)
REMARK    1  A    between atoms: C_2  and  C_4
REMARK    2  A    between atoms: C_6  and  C_7
REMARK    3  A    between atoms: C_7  and  C_8
REMARK    4  A    between atoms: N_10  and  C_12
REMARK    5  A    between atoms: C_12  and  C_13
REMARK    6  A    between atoms: C_22  and  C_23
REMARK    7  A    between atoms: C_23  and  N_24
REMARK    8  A    between atoms: C_25  and  C_27
REMARK                            x       y       z     vdW  Elec       q    Type
REMARK                         _______ _______ _______ _____ _____    ______ ____
ROOT
ATOM      4  C   UNL     1      -4.649   2.253  25.172  0.00  0.00    +0.006 C 
ATOM      5  C   UNL     1      -4.812   1.484  24.921  0.00  0.00    +0.005 C 
ATOM      6  C   UNL     1      -4.261   1.075  24.461  0.00  0.00    +0.027 C 
ATOM     19  C   UNL     1      -3.548   1.435  24.255  0.00  0.00    -0.048 C 
ATOM     20  C   UNL     1      -2.997   1.027  23.796  0.00  0.00    +0.026 C 
ATOM     21  C   UNL     1      -3.385   2.204  24.507  0.00  0.00    -0.033 C 
ATOM     22  C   UNL     1      -3.936   2.612  24.966  0.00  0.00    +0.043 C 
ENDROOT
BRANCH   4   2
ATOM      1  C   UNL     1      -5.238   2.527  26.445  0.00  0.00    +0.000 C 
ATOM      2  C   UNL     1      -5.200   2.661  25.631  0.00  0.00    +0.000 C 
ATOM      3  C   UNL     1      -5.711   3.203  25.277  0.00  0.00    +0.000 C 
ENDBRANCH   4   2
BRANCH   6   7
ATOM      7  C   UNL     1      -4.425   0.307  24.209  0.00  0.00    +0.089 C 
BRANCH   7   8
ATOM      8  C   UNL     1      -4.270  -0.332  24.709  0.00  0.00    +0.226 C 
ATOM      9  O   UNL     1      -4.196  -0.212  25.522  0.00  0.00    -0.275 OA
ATOM     10  N   UNL     1      -4.191  -1.090  24.395  0.00  0.00    -0.274 N 
ATOM     11  C   UNL     1      -4.265  -1.211  23.582  0.00  0.00    +0.115 C 
BRANCH  10  12
ATOM     12  C   UNL     1      -4.037  -1.730  24.894  0.00  0.00    +0.122 C 
BRANCH  12  13
ATOM     13  C   UNL     1      -3.427  -2.255  24.714  0.00  0.00    +0.017 A 
ATOM     14  C   UNL     1      -2.664  -2.114  24.993  0.00  0.00    +0.001 A 
ATOM     15  C   UNL     1      -2.055  -2.641  24.812  0.00  0.00    +0.020 A 
ATOM     16  C   UNL     1      -2.209  -3.308  24.353  0.00  0.00    +0.099 A 
ATOM     17  N   UNL     1      -2.973  -3.449  24.074  0.00  0.00    -0.243 NA
ATOM     18  C   UNL     1      -3.582  -2.924  24.254  0.00  0.00    +0.096 A 
ENDBRANCH  12  13
ENDBRANCH  10  12
ENDBRANCH   7   8
ENDBRANCH   6   7
BRANCH  22  23
ATOM     23  C   UNL     1      -3.772   3.380  25.218  0.00  0.00    +0.120 C 
BRANCH  23  24
ATOM     24  N   UNL     1      -3.067   3.747  24.993  0.00  0.00    -0.200 NA
ATOM     25  C   UNL     1      -2.685   4.260  25.514  0.00  0.00    +0.284 C 
ATOM     26  O   UNL     1      -3.007   4.408  26.259  0.00  0.00    -0.267 OA
BRANCH  25  27
ATOM     27  C   UNL     1      -1.980   4.626  25.289  0.00  0.00    +0.155 A 
ATOM     28  C   UNL     1      -1.966   5.439  25.148  0.00  0.00    +0.123 A 
ATOM     29  N   UNL     1      -1.261   5.805  24.923  0.00  0.00    -0.239 NA
ATOM     30  C   UNL     1      -0.572   5.359  24.839  0.00  0.00    +0.120 A 
ATOM     31  C   UNL     1      -0.587   4.545  24.980  0.00  0.00    +0.120 A 
ATOM     32  N   UNL     1      -1.292   4.180  25.205  0.00  0.00    -0.236 NA
ENDBRANCH  25  27
ENDBRANCH  23  24
ENDBRANCH  22  23
TORSDOF 8
ENDMDL
MODEL 6
REMARK VINA RESULT:      -7.4      1.190      2.036
REMARK  Name = 
REMARK  8 active torsions:
REMARK  status: ('A' for Active; 'I' for Inactive)
REMARK    1  A    between atoms: C_2  and  C_4
REMARK    2  A    between atoms: C_6  and  C_7
REMARK    3  A    between atoms: C_7  and  C_8
REMARK    4  A    between atoms: N_10  and  C_12
REMARK    5  A    between atoms: C_12  and  C_13
REMARK    6  A    between atoms: C_22  and  C_23
REMARK    7  A    between atoms: C_23  and  N_24
REMARK    8  A    between atoms: C_25  and  C_27
REMARK                            x       y       z     vdW  Elec       q    Type
REMARK                         _______ _______ _______ _____ _____    ______ ____
ROOT
ATOM      4  C   UNL     1      -1.217   1.435  24.687  0.00  0.00    +0.006 C 
ATOM      5  C   UNL     1      -1.983   1.158  24.818  0.00  0.00    +0.005 C 
ATOM      6  C   UNL     1      -2.167   0.368  24.664  0.00  0.00    +0.027 C 
ATOM     19  C   UNL     1      -1.586  -0.143  24.380  0.00  0.00    -0.048 C 
ATOM     20  C   UNL     1      -1.769  -0.933  24.226  0.00  0.00    +0.026 C 
ATOM     21  C   UNL     1      -0.819   0.135  24.249  0.00  0.00    -0.033 C 
ATOM     22  C   UNL     1      -0.636   0.924  24.403  0.00  0.00    +0.043 C 
ENDROOT
BRANCH   4   2
ATOM      1  C   UNL     1      -0.774   2.448  25.592  0.00  0.00    +0.000 C 
ATOM      2  C   UNL     1      -1.034   2.225  24.841  0.00  0.00    +0.000 C 
ATOM      3  C   UNL     1      -1.110   2.790  24.245  0.00  0.00    +0.000 C 
ENDBRANCH   4   2
BRANCH   6   7
ATOM      7  C   UNL     1      -2.933   0.091  24.794  0.00  0.00    +0.089 C 
BRANCH   7   8
ATOM      8  C   UNL     1      -3.577   0.486  24.461  0.00  0.00    +0.226 C 
ATOM      9  O   UNL     1      -3.553   0.720  23.670  0.00  0.00    -0.275 OA
ATOM     10  N   UNL     1      -4.244   0.647  24.919  0.00  0.00    -0.274 N 
ATOM     11  C   UNL     1      -4.268   0.413  25.710  0.00  0.00    +0.115 C 
BRANCH  10  12
ATOM     12  C   UNL     1      -4.887   1.042  24.585  0.00  0.00    +0.122 C 
BRANCH  12  13
ATOM     13  C   UNL     1      -5.225   1.684  24.978  0.00  0.00    +0.017 A 
ATOM     14  C   UNL     1      -4.977   2.451  24.805  0.00  0.00    +0.001 A 
ATOM     15  C   UNL     1      -5.316   3.093  25.198  0.00  0.00    +0.020 A 
ATOM     16  C   UNL     1      -5.901   2.967  25.765  0.00  0.00    +0.099 A 
ATOM     17  N   UNL     1      -6.149   2.200  25.939  0.00  0.00    -0.243 NA
ATOM     18  C   UNL     1      -5.811   1.558  25.546  0.00  0.00    +0.096 A 
ENDBRANCH  12  13
ENDBRANCH  10  12
ENDBRANCH   7   8
ENDBRANCH   6   7
BRANCH  22  23
ATOM     23  C   UNL     1       0.130   1.201  24.273  0.00  0.00    +0.120 C 
BRANCH  23  24
ATOM     24  N   UNL     1       0.632   0.798  23.756  0.00  0.00    -0.200 NA
ATOM     25  C   UNL     1       1.388   1.092  23.601  0.00  0.00    +0.284 C 
ATOM     26  O   UNL     1       1.642   1.788  23.963  0.00  0.00    -0.267 OA
BRANCH  25  27
ATOM     27  C   UNL     1       1.889   0.688  23.085  0.00  0.00    +0.155 A 
ATOM     28  C   UNL     1       2.702   0.824  23.111  0.00  0.00    +0.123 A 
ATOM     29  N   UNL     1       3.204   0.420  22.595  0.00  0.00    -0.239 NA
ATOM     30  C   UNL     1       2.892  -0.118  22.053  0.00  0.00    +0.120 A 
ATOM     31  C   UNL     1       2.078  -0.254  22.027  0.00  0.00    +0.120 A 
ATOM     32  N   UNL     1       1.577   0.150  22.543  0.00  0.00    -0.236 NA
ENDBRANCH  25  27
ENDBRANCH  23  24
ENDBRANCH  22  23
TORSDOF 8
ENDMDL
