MODEL 1
REMARK VINA RESULT:     -10.4      0.000      0.000
REMARK  Name = 
REMARK  4 active torsions:
REMARK  status: ('A' for Active; 'I' for Inactive)
REMARK    1  A    between atoms: S_2  and  C_3
REMARK    2  A    between atoms: C_3  and  C_4
REMARK    3  A    between atoms: N_6  and  C_7
REMARK    4  A    between atoms: C_18  and  C_23
REMARK                            x       y       z     vdW  Elec       q    Type
REMARK                         _______ _______ _______ _____ _____    ______ ____
ROOT
ATOM      7  C   UNL     1      -1.739   2.481  25.103  0.00  0.00    +0.124 C 
ATOM      8  C   UNL     1      -0.982   2.157  25.153  0.00  0.00    +0.045 C 
ATOM      9  C   UNL     1      -1.047   1.340  25.064  0.00  0.00    +0.096 C 
ATOM     10  N   UNL     1      -1.845   1.158  24.960  0.00  0.00    -0.268 N 
ATOM     11  C   UNL     1      -2.273   1.864  24.984  0.00  0.00    +0.174 C 
ATOM     12  C   UNL     1      -3.087   1.974  24.907  0.00  0.00    +0.265 C 
ATOM     13  O   UNL     1      -3.347   2.755  24.956  0.00  0.00    -0.271 OA
ATOM     14  N   UNL     1      -3.674   1.408  24.786  0.00  0.00    -0.178 NA
ATOM     15  C   UNL     1      -3.593   0.590  24.713  0.00  0.00    +0.078 A 
ATOM     16  C   UNL     1      -4.323   0.223  24.597  0.00  0.00    +0.017 A 
ATOM     17  C   UNL     1      -4.364  -0.596  24.511  0.00  0.00    +0.002 A 
ATOM     18  C   UNL     1      -3.675  -1.049  24.541  0.00  0.00    +0.006 A 
ATOM     19  C   UNL     1      -2.944  -0.683  24.656  0.00  0.00    +0.006 A 
ATOM     20  C   UNL     1      -2.904   0.137  24.743  0.00  0.00    +0.069 A 
ATOM     21  C   UNL     1      -2.126   0.390  24.852  0.00  0.00    +0.251 C 
ATOM     22  O   UNL     1      -1.554  -0.204  24.855  0.00  0.00    -0.270 OA
ENDROOT
BRANCH  18  23
ATOM     23  C   UNL     1      -3.716  -1.869  24.454  0.00  0.00    +0.029 A 
ATOM     24  C   UNL     1      -4.044  -2.273  23.814  0.00  0.00    +0.007 A 
ATOM     25  C   UNL     1      -3.967  -3.081  23.957  0.00  0.00    +0.007 A 
ATOM     26  C   UNL     1      -3.592  -3.177  24.686  0.00  0.00    +0.035 A 
ATOM     27  S   UNL     1      -3.437  -2.428  24.993  0.00  0.00    -0.086 S 
ENDBRANCH  18  23
BRANCH   7   6
ATOM      4  C   UNL     1      -1.330   3.844  25.229  0.00  0.00    +0.252 C 
ATOM      5  O   UNL     1      -0.540   3.606  25.236  0.00  0.00    -0.272 OA
ATOM      6  N   UNL     1      -1.930   3.282  25.163  0.00  0.00    -0.204 NA
BRANCH   4   3
ATOM      3  C   UNL     1      -1.520   4.645  25.289  0.00  0.00    +0.144 C 
BRANCH   3   2
ATOM      1  C   UNL     1      -1.310   5.993  24.863  0.00  0.00    +0.070 C 
ATOM      2  S   UNL     1      -1.057   5.209  24.902  0.00  0.00    -0.130 S 
ENDBRANCH   3   2
ENDBRANCH   4   3
ENDBRANCH   7   6
TORSDOF 4
ENDMDL
MODEL 2
REMARK VINA RESULT:     -10.0      2.546      3.878
REMARK  Name = 
REMARK  4 active torsions:
REMARK  status: ('A' for Active; 'I' for Inactive)
REMARK    1  A    between atoms: S_2  and  C_3
REMARK    2  A    between atoms: C_3  and  C_4
REMARK    3  A    between atoms: N_6  and  C_7
REMARK    4  A    between atoms: C_18  and  C_23
REMARK                            x       y       z     vdW  Elec       q    Type
REMARK                         _______ _______ _______ _____ _____    ______ ____
ROOT
ATOM      7  C   UNL     1      -0.710   0.546  24.014  0.00  0.00    +0.124 C 
ATOM      8  C   UNL     1      -0.860  -0.171  24.395  0.00  0.00    +0.045 C 
ATOM      9  C   UNL     1      -1.628  -0.144  24.696  0.00  0.00    +0.096 C 
ATOM     10  N   UNL     1      -1.952   0.590  24.501  0.00  0.00    -0.268 N 
ATOM     11  C   UNL     1      -1.384   1.016  24.080  0.00  0.00    +0.174 C 
ATOM     12  C   UNL     1      -1.442   1.776  23.765  0.00  0.00    +0.265 C 
ATOM     13  O   UNL     1      -0.772   2.050  23.369  0.00  0.00    -0.271 OA
ATOM     14  N   UNL     1      -2.080   2.297  23.793  0.00  0.00    -0.178 NA
ATOM     15  C   UNL     1      -2.819   2.188  24.143  0.00  0.00    +0.078 A 
ATOM     16  C   UNL     1      -3.301   2.851  24.044  0.00  0.00    +0.017 A 
ATOM     17  C   UNL     1      -4.065   2.856  24.354  0.00  0.00    +0.002 A 
ATOM     18  C   UNL     1      -4.349   2.197  24.763  0.00  0.00    +0.006 A 
ATOM     19  C   UNL     1      -3.867   1.534  24.862  0.00  0.00    +0.006 A 
ATOM     20  C   UNL     1      -3.102   1.530  24.551  0.00  0.00    +0.069 A 
ATOM     21  C   UNL     1      -2.716   0.819  24.711  0.00  0.00    +0.251 C 
ATOM     22  O   UNL     1      -3.152   0.262  25.136  0.00  0.00    -0.270 OA
ENDROOT
BRANCH  18  23
ATOM     23  C   UNL     1      -5.113   2.202  25.073  0.00  0.00    +0.029 A 
ATOM     24  C   UNL     1      -5.746   1.743  24.808  0.00  0.00    +0.007 A 
ATOM     25  C   UNL     1      -6.402   1.924  25.273  0.00  0.00    +0.007 A 
ATOM     26  C   UNL     1      -6.176   2.494  25.825  0.00  0.00    +0.035 A 
ATOM     27  S   UNL     1      -5.379   2.665  25.701  0.00  0.00    -0.086 S 
ENDBRANCH  18  23
BRANCH   7   6
ATOM      4  C   UNL     1       0.545   0.175  23.441  0.00  0.00    +0.252 C 
ATOM      5  O   UNL     1       0.397  -0.615  23.626  0.00  0.00    -0.272 OA
ATOM      6  N   UNL     1      -0.008   0.756  23.634  0.00  0.00    -0.204 NA
BRANCH   4   3
ATOM      3  C   UNL     1       1.247   0.385  23.061  0.00  0.00    +0.144 C 
BRANCH   3   2
ATOM      1  C   UNL     1       2.439   0.008  22.369  0.00  0.00    +0.070 C 
ATOM      2  S   UNL     1       1.726  -0.199  22.727  0.00  0.00    -0.130 S 
ENDBRANCH   3   2
ENDBRANCH   4   3
ENDBRANCH   7   6
TORSDOF 4
ENDMDL
MODEL 3
REMARK VINA RESULT:      -9.9      0.965      5.457
REMARK  Name = 
REMARK  4 active torsions:
REMARK  status: ('A' for Active; 'I' for Inactive)
REMARK    1  A    between atoms: S_2  and  C_3
REMARK    2  A    between atoms: C_3  and  C_4
REMARK    3  A    between atoms: N_6  and  C_7
REMARK    4  A    between atoms: C_18  and  C_23
REMARK                            x       y       z     vdW  Elec       q    Type
REMARK                         _______ _______ _______ _____ _____    ______ ____
ROOT
ATOM      7  C   UNL     1      -3.339  -0.087  24.745  0.00  0.00    +0.124 C 
ATOM      8  C   UNL     1      -3.998   0.223  24.358  0.00  0.00    +0.045 C 
ATOM      9  C   UNL     1      -3.889   1.037  24.282  0.00  0.00    +0.096 C 
ATOM     10  N   UNL     1      -3.163   1.230  24.622  0.00  0.00    -0.268 N 
ATOM     11  C   UNL     1      -2.823   0.534  24.909  0.00  0.00    +0.174 C 
ATOM     12  C   UNL     1      -2.100   0.437  25.294  0.00  0.00    +0.265 C 
ATOM     13  O   UNL     1      -1.915  -0.337  25.514  0.00  0.00    -0.271 OA
ATOM     14  N   UNL     1      -1.539   1.009  25.489  0.00  0.00    -0.178 NA
ATOM     15  C   UNL     1      -1.562   1.821  25.346  0.00  0.00    +0.078 A 
ATOM     16  C   UNL     1      -0.885   2.197  25.631  0.00  0.00    +0.017 A 
ATOM     17  C   UNL     1      -0.797   3.012  25.544  0.00  0.00    +0.002 A 
ATOM     18  C   UNL     1      -1.387   3.453  25.171  0.00  0.00    +0.006 A 
ATOM     19  C   UNL     1      -2.065   3.077  24.885  0.00  0.00    +0.006 A 
ATOM     20  C   UNL     1      -2.151   2.261  24.973  0.00  0.00    +0.069 A 
ATOM     21  C   UNL     1      -2.864   1.998  24.651  0.00  0.00    +0.251 C 
ATOM     22  O   UNL     1      -3.341   2.580  24.313  0.00  0.00    -0.270 OA
ENDROOT
BRANCH  18  23
ATOM     23  C   UNL     1      -1.300   4.268  25.083  0.00  0.00    +0.029 A 
ATOM     24  C   UNL     1      -1.812   4.845  25.378  0.00  0.00    +0.007 A 
ATOM     25  C   UNL     1      -1.513   5.583  25.163  0.00  0.00    +0.007 A 
ATOM     26  C   UNL     1      -0.818   5.463  24.736  0.00  0.00    +0.035 A 
ATOM     27  S   UNL     1      -0.686   4.650  24.687  0.00  0.00    -0.086 S 
ENDBRANCH  18  23
BRANCH   7   6
ATOM      4  C   UNL     1      -3.738  -1.457  24.655  0.00  0.00    +0.252 C 
ATOM      5  O   UNL     1      -4.380  -1.239  24.184  0.00  0.00    -0.272 OA
ATOM      6  N   UNL     1      -3.218  -0.881  24.936  0.00  0.00    -0.204 NA
BRANCH   4   3
ATOM      3  C   UNL     1      -3.616  -2.251  24.846  0.00  0.00    +0.144 C 
BRANCH   3   2
ATOM      1  C   UNL     1      -3.403  -3.581  24.369  0.00  0.00    +0.070 C 
ATOM      2  S   UNL     1      -3.745  -2.835  24.278  0.00  0.00    -0.130 S 
ENDBRANCH   3   2
ENDBRANCH   4   3
ENDBRANCH   7   6
TORSDOF 4
ENDMDL
MODEL 4
REMARK VINA RESULT:      -8.0      2.591      4.130
REMARK  Name = 
REMARK  4 active torsions:
REMARK  status: ('A' for Active; 'I' for Inactive)
REMARK    1  A    between atoms: S_2  and  C_3
REMARK    2  A    between atoms: C_3  and  C_4
REMARK    3  A    between atoms: N_6  and  C_7
REMARK    4  A    between atoms: C_18  and  C_23
REMARK                            x       y       z     vdW  Elec       q    Type
REMARK                         _______ _______ _______ _____ _____    ______ ____
ROOT
ATOM      7  C   UNL     1      -3.385   1.636  24.434  0.00  0.00    +0.124 C 
ATOM      8  C   UNL     1      -3.302   2.330  23.997  0.00  0.00    +0.045 C 
ATOM      9  C   UNL     1      -2.555   2.323  23.647  0.00  0.00    +0.096 C 
ATOM     10  N   UNL     1      -2.177   1.623  23.868  0.00  0.00    -0.268 N 
ATOM     11  C   UNL     1      -2.691   1.199  24.355  0.00  0.00    +0.174 C 
ATOM     12  C   UNL     1      -2.569   0.467  24.716  0.00  0.00    +0.265 C 
ATOM     13  O   UNL     1      -3.195   0.187  25.174  0.00  0.00    -0.271 OA
ATOM     14  N   UNL     1      -1.905  -0.020  24.680  0.00  0.00    -0.178 NA
ATOM     15  C   UNL     1      -1.197   0.103  24.274  0.00  0.00    +0.078 A 
ATOM     16  C   UNL     1      -0.673  -0.525  24.385  0.00  0.00    +0.017 A 
ATOM     17  C   UNL     1       0.069  -0.511  24.025  0.00  0.00    +0.002 A 
ATOM     18  C   UNL     1       0.287   0.131  23.554  0.00  0.00    +0.006 A 
ATOM     19  C   UNL     1      -0.238   0.759  23.443  0.00  0.00    +0.006 A 
ATOM     20  C   UNL     1      -0.980   0.744  23.804  0.00  0.00    +0.069 A 
ATOM     21  C   UNL     1      -1.416   1.421  23.623  0.00  0.00    +0.251 C 
ATOM     22  O   UNL     1      -1.041   1.968  23.132  0.00  0.00    -0.270 OA
ENDROOT
BRANCH  18  23
ATOM     23  C   UNL     1       1.029   0.145  23.194  0.00  0.00    +0.029 A 
ATOM     24  C   UNL     1       1.675   0.600  23.432  0.00  0.00    +0.007 A 
ATOM     25  C   UNL     1       2.300   0.442  22.918  0.00  0.00    +0.007 A 
ATOM     26  C   UNL     1       2.041  -0.109  22.361  0.00  0.00    +0.035 A 
ATOM     27  S   UNL     1       1.255  -0.292  22.532  0.00  0.00    -0.086 S 
ENDBRANCH  18  23
BRANCH   7   6
ATOM      4  C   UNL     1      -4.713   1.905  24.889  0.00  0.00    +0.252 C 
ATOM      5  O   UNL     1      -4.716   2.611  24.463  0.00  0.00    -0.272 OA
ATOM      6  N   UNL     1      -4.048   1.416  24.875  0.00  0.00    -0.204 NA
BRANCH   4   3
ATOM      3  C   UNL     1      -5.376   1.685  25.329  0.00  0.00    +0.144 C 
BRANCH   3   2
ATOM      1  C   UNL     1      -6.399   2.077  26.246  0.00  0.00    +0.070 C 
ATOM      2  S   UNL     1      -5.877   2.265  25.636  0.00  0.00    -0.130 S 
ENDBRANCH   3   2
ENDBRANCH   4   3
ENDBRANCH   7   6
TORSDOF 4
ENDMDL
MODEL 5
REMARK VINA RESULT:      -7.4     17.600     19.235
REMARK  Name = 
REMARK  4 active torsions:
REMARK  status: ('A' for Active; 'I' for Inactive)
REMARK    1  A    between atoms: S_2  and  C_3
REMARK    2  A    between atoms: C_3  and  C_4
REMARK    3  A    between atoms: N_6  and  C_7
REMARK    4  A    between atoms: C_18  and  C_23
REMARK                            x       y       z     vdW  Elec       q    Type
REMARK                         _______ _______ _______ _____ _____    ______ ____
ROOT
ATOM      7  C   UNL     1      12.404   8.079  18.287  0.00  0.00    +0.124 C 
ATOM      8  C   UNL     1      12.062   8.386  18.972  0.00  0.00    +0.045 C 
ATOM      9  C   UNL     1      12.613   8.321  19.583  0.00  0.00    +0.096 C 
ATOM     10  N   UNL     1      13.296   7.973  19.275  0.00  0.00    -0.268 N 
ATOM     11  C   UNL     1      13.166   7.824  18.473  0.00  0.00    +0.174 C 
ATOM     12  C   UNL     1      13.680   7.483  17.925  0.00  0.00    +0.265 C 
ATOM     13  O   UNL     1      13.384   7.408  17.158  0.00  0.00    -0.271 OA
ATOM     14  N   UNL     1      14.448   7.208  18.041  0.00  0.00    -0.178 NA
ATOM     15  C   UNL     1      14.894   7.205  18.735  0.00  0.00    +0.078 A 
ATOM     16  C   UNL     1      15.642   6.879  18.612  0.00  0.00    +0.017 A 
ATOM     17  C   UNL     1      16.177   6.824  19.238  0.00  0.00    +0.002 A 
ATOM     18  C   UNL     1      15.963   7.096  19.987  0.00  0.00    +0.006 A 
ATOM     19  C   UNL     1      15.216   7.423  20.111  0.00  0.00    +0.006 A 
ATOM     20  C   UNL     1      14.681   7.477  19.484  0.00  0.00    +0.069 A 
ATOM     21  C   UNL     1      13.970   7.819  19.724  0.00  0.00    +0.251 C 
ATOM     22  O   UNL     1      13.927   8.035  20.519  0.00  0.00    -0.270 OA
ENDROOT
BRANCH  18  23
ATOM     23  C   UNL     1      16.498   7.041  20.613  0.00  0.00    +0.029 A 
ATOM     24  C   UNL     1      16.676   6.357  21.040  0.00  0.00    +0.007 A 
ATOM     25  C   UNL     1      17.236   6.554  21.612  0.00  0.00    +0.007 A 
ATOM     26  C   UNL     1      17.405   7.359  21.539  0.00  0.00    +0.035 A 
ATOM     27  S   UNL     1      16.948   7.659  20.922  0.00  0.00    -0.086 S 
ENDBRANCH  18  23
BRANCH   7   6
ATOM      4  C   UNL     1      11.310   8.384  17.421  0.00  0.00    +0.252 C 
ATOM      5  O   UNL     1      10.930   8.778  18.038  0.00  0.00    -0.272 OA
ATOM      6  N   UNL     1      12.047   8.034  17.544  0.00  0.00    -0.204 NA
BRANCH   4   3
ATOM      3  C   UNL     1      10.952   8.340  16.678  0.00  0.00    +0.144 C 
BRANCH   3   2
ATOM      1  C   UNL     1      10.587   9.038  15.486  0.00  0.00    +0.070 C 
ATOM      2  S   UNL     1      10.692   9.028  16.304  0.00  0.00    -0.130 S 
ENDBRANCH   3   2
ENDBRANCH   4   3
ENDBRANCH   7   6
TORSDOF 4
ENDMDL
MODEL 6
REMARK VINA RESULT:      -7.3      1.978      2.502
REMARK  Name = 
REMARK  4 active torsions:
REMARK  status: ('A' for Active; 'I' for Inactive)
REMARK    1  A    between atoms: S_2  and  C_3
REMARK    2  A    between atoms: C_3  and  C_4
REMARK    3  A    between atoms: N_6  and  C_7
REMARK    4  A    between atoms: C_18  and  C_23
REMARK                            x       y       z     vdW  Elec       q    Type
REMARK                         _______ _______ _______ _____ _____    ______ ____
ROOT
ATOM      7  C   UNL     1      -4.154   2.417  24.915  0.00  0.00    +0.124 C 
ATOM      8  C   UNL     1      -3.467   2.793  24.657  0.00  0.00    +0.045 C 
ATOM      9  C   UNL     1      -2.891   2.216  24.533  0.00  0.00    +0.096 C 
ATOM     10  N   UNL     1      -3.223   1.482  24.714  0.00  0.00    -0.268 N 
ATOM     11  C   UNL     1      -4.004   1.607  24.951  0.00  0.00    +0.174 C 
ATOM     12  C   UNL     1      -4.564   1.049  25.187  0.00  0.00    +0.265 C 
ATOM     13  O   UNL     1      -5.304   1.352  25.391  0.00  0.00    -0.271 OA
ATOM     14  N   UNL     1      -4.483   0.231  25.245  0.00  0.00    -0.178 NA
ATOM     15  C   UNL     1      -3.821  -0.233  25.082  0.00  0.00    +0.078 A 
ATOM     16  C   UNL     1      -3.974  -1.034  25.214  0.00  0.00    +0.017 A 
ATOM     17  C   UNL     1      -3.383  -1.594  25.083  0.00  0.00    +0.002 A 
ATOM     18  C   UNL     1      -2.638  -1.354  24.821  0.00  0.00    +0.006 A 
ATOM     19  C   UNL     1      -2.485  -0.553  24.689  0.00  0.00    +0.006 A 
ATOM     20  C   UNL     1      -3.077   0.007  24.820  0.00  0.00    +0.069 A 
ATOM     21  C   UNL     1      -2.811   0.770  24.657  0.00  0.00    +0.251 C 
ATOM     22  O   UNL     1      -2.029   0.829  24.401  0.00  0.00    -0.270 OA
ENDROOT
BRANCH  18  23
ATOM     23  C   UNL     1      -2.047  -1.914  24.690  0.00  0.00    +0.029 A 
ATOM     24  C   UNL     1      -2.104  -2.573  24.196  0.00  0.00    +0.007 A 
ATOM     25  C   UNL     1      -1.387  -2.979  24.232  0.00  0.00    +0.007 A 
ATOM     26  C   UNL     1      -0.888  -2.572  24.746  0.00  0.00    +0.035 A 
ATOM     27  S   UNL     1      -1.295  -1.914  25.030  0.00  0.00    -0.086 S 
ENDBRANCH  18  23
BRANCH   7   6
ATOM      4  C   UNL     1      -4.885   3.598  25.251  0.00  0.00    +0.252 C 
ATOM      5  O   UNL     1      -4.190   4.041  25.209  0.00  0.00    -0.272 OA
ATOM      6  N   UNL     1      -4.868   2.786  25.104  0.00  0.00    -0.204 NA
BRANCH   4   3
ATOM      3  C   UNL     1      -5.599   3.967  25.440  0.00  0.00    +0.144 C 
BRANCH   3   2
ATOM      1  C   UNL     1      -6.364   5.167  25.567  0.00  0.00    +0.070 C 
ATOM      2  S   UNL     1      -5.634   4.790  25.501  0.00  0.00    -0.130 S 
ENDBRANCH   3   2
ENDBRANCH   4   3
ENDBRANCH   7   6
TORSDOF 4
ENDMDL
MODEL 7
REMARK VINA RESULT:      -7.2     14.033     14.642
REMARK  Name = 
REMARK  4 active torsions:
REMARK  status: ('A' for Active; 'I' for Inactive)
REMARK    1  A    between atoms: S_2  and  C_3
REMARK    2  A    between atoms: C_3  and  C_4
REMARK    3  A    between atoms: N_6  and  C_7
REMARK    4  A    between atoms: C_18  and  C_23
REMARK                            x       y       z     vdW  Elec       q    Type
REMARK                         _______ _______ _______ _____ _____    ______ ____
ROOT
ATOM      7  C   UNL     1      -4.266 -10.538  16.094  0.00  0.00    +0.124 C 
ATOM      8  C   UNL     1      -4.523 -10.409  15.321  0.00  0.00    +0.045 C 
ATOM      9  C   UNL     1      -5.337 -10.280  15.341  0.00  0.00    +0.096 C 
ATOM     10  N   UNL     1      -5.584 -10.329  16.127  0.00  0.00    -0.268 N 
ATOM     11  C   UNL     1      -4.921 -10.488  16.592  0.00  0.00    +0.174 C 
ATOM     12  C   UNL     1      -4.879 -10.587  17.410  0.00  0.00    +0.265 C 
ATOM     13  O   UNL     1      -4.128 -10.743  17.713  0.00  0.00    -0.271 OA
ATOM     14  N   UNL     1      -5.489 -10.551  17.964  0.00  0.00    -0.178 NA
ATOM     15  C   UNL     1      -6.291 -10.407  17.838  0.00  0.00    +0.078 A 
ATOM     16  C   UNL     1      -6.715 -10.418  18.547  0.00  0.00    +0.017 A 
ATOM     17  C   UNL     1      -7.529 -10.286  18.543  0.00  0.00    +0.002 A 
ATOM     18  C   UNL     1      -7.920 -10.143  17.830  0.00  0.00    +0.006 A 
ATOM     19  C   UNL     1      -7.496 -10.131  17.122  0.00  0.00    +0.006 A 
ATOM     20  C   UNL     1      -6.682 -10.264  17.126  0.00  0.00    +0.069 A 
ATOM     21  C   UNL     1      -6.367 -10.229  16.365  0.00  0.00    +0.251 C 
ATOM     22  O   UNL     1      -6.907 -10.073  15.761  0.00  0.00    -0.270 OA
ENDROOT
BRANCH  18  23
ATOM     23  C   UNL     1      -8.734 -10.011  17.826  0.00  0.00    +0.029 A 
ATOM     24  C   UNL     1      -9.106  -9.277  17.756  0.00  0.00    +0.007 A 
ATOM     25  C   UNL     1      -9.921  -9.403  17.778  0.00  0.00    +0.007 A 
ATOM     26  C   UNL     1     -10.053 -10.212  17.862  0.00  0.00    +0.035 A 
ATOM     27  S   UNL     1      -9.319 -10.588  17.892  0.00  0.00    -0.086 S 
ENDBRANCH  18  23
BRANCH   7   6
ATOM      4  C   UNL     1      -2.874 -10.629  15.781  0.00  0.00    +0.252 C 
ATOM      5  O   UNL     1      -3.036 -10.417  15.000  0.00  0.00    -0.272 OA
ATOM      6  N   UNL     1      -3.489 -10.690  16.328  0.00  0.00    -0.204 NA
BRANCH   4   3
ATOM      3  C   UNL     1      -2.097 -10.781  16.015  0.00  0.00    +0.144 C 
BRANCH   3   2
ATOM      1  C   UNL     1      -0.699 -10.510  15.900  0.00  0.00    +0.070 C 
ATOM      2  S   UNL     1      -1.470 -10.419  15.620  0.00  0.00    -0.130 S 
ENDBRANCH   3   2
ENDBRANCH   4   3
ENDBRANCH   7   6
TORSDOF 4
ENDMDL
MODEL 8
REMARK VINA RESULT:      -7.0     17.607     19.057
REMARK  Name = 
REMARK  4 active torsions:
REMARK  status: ('A' for Active; 'I' for Inactive)
REMARK    1  A    between atoms: S_2  and  C_3
REMARK    2  A    between atoms: C_3  and  C_4
REMARK    3  A    between atoms: N_6  and  C_7
REMARK    4  A    between atoms: C_18  and  C_23
REMARK                            x       y       z     vdW  Elec       q    Type
REMARK                         _______ _______ _______ _____ _____    ______ ____
ROOT
ATOM      7  C   UNL     1      15.174   7.107  19.439  0.00  0.00    +0.124 C 
ATOM      8  C   UNL     1      15.543   6.837  18.752  0.00  0.00    +0.045 C 
ATOM      9  C   UNL     1      15.042   6.994  18.116  0.00  0.00    +0.096 C 
ATOM     10  N   UNL     1      14.363   7.360  18.409  0.00  0.00    -0.268 N 
ATOM     11  C   UNL     1      14.445   7.429  19.228  0.00  0.00    +0.174 C 
ATOM     12  C   UNL     1      13.917   7.756  19.771  0.00  0.00    +0.265 C 
ATOM     13  O   UNL     1      14.162   7.743  20.559  0.00  0.00    -0.271 OA
ATOM     14  N   UNL     1      13.178   8.093  19.631  0.00  0.00    -0.178 NA
ATOM     15  C   UNL     1      12.783   8.188  18.913  0.00  0.00    +0.078 A 
ATOM     16  C   UNL     1      12.051   8.554  19.017  0.00  0.00    +0.017 A 
ATOM     17  C   UNL     1      11.566   8.701  18.366  0.00  0.00    +0.002 A 
ATOM     18  C   UNL     1      11.814   8.481  17.610  0.00  0.00    +0.006 A 
ATOM     19  C   UNL     1      12.546   8.114  17.505  0.00  0.00    +0.006 A 
ATOM     20  C   UNL     1      13.031   7.968  18.158  0.00  0.00    +0.069 A 
ATOM     21  C   UNL     1      13.734   7.599  17.934  0.00  0.00    +0.251 C 
ATOM     22  O   UNL     1      13.819   7.451  17.127  0.00  0.00    -0.270 OA
ENDROOT
BRANCH  18  23
ATOM     23  C   UNL     1      11.330   8.627  16.958  0.00  0.00    +0.029 A 
ATOM     24  C   UNL     1      10.567   8.333  16.845  0.00  0.00    +0.007 A 
ATOM     25  C   UNL     1      10.289   8.618  16.123  0.00  0.00    +0.007 A 
ATOM     26  C   UNL     1      10.879   9.088  15.790  0.00  0.00    +0.035 A 
ATOM     27  S   UNL     1      11.522   9.094  16.306  0.00  0.00    -0.086 S 
ENDBRANCH  18  23
BRANCH   7   6
ATOM      4  C   UNL     1      16.289   6.942  20.318  0.00  0.00    +0.252 C 
ATOM      5  O   UNL     1      16.791   6.868  19.667  0.00  0.00    -0.272 OA
ATOM      6  N   UNL     1      15.481   7.061  20.204  0.00  0.00    -0.204 NA
BRANCH   4   3
ATOM      3  C   UNL     1      16.596   6.896  21.083  0.00  0.00    +0.144 C 
BRANCH   3   2
ATOM      1  C   UNL     1      17.405   6.081  21.932  0.00  0.00    +0.070 C 
ATOM      2  S   UNL     1      17.298   6.486  21.221  0.00  0.00    -0.130 S 
ENDBRANCH   3   2
ENDBRANCH   4   3
ENDBRANCH   7   6
TORSDOF 4
ENDMDL
MODEL 9
REMARK VINA RESULT:      -6.9     15.697     18.249
REMARK  Name = 
REMARK  4 active torsions:
REMARK  status: ('A' for Active; 'I' for Inactive)
REMARK    1  A    between atoms: S_2  and  C_3
REMARK    2  A    between atoms: C_3  and  C_4
REMARK    3  A    between atoms: N_6  and  C_7
REMARK    4  A    between atoms: C_18  and  C_23
REMARK                            x       y       z     vdW  Elec       q    Type
REMARK                         _______ _______ _______ _____ _____    ______ ____
ROOT
ATOM      7  C   UNL     1      13.015   8.765  17.229  0.00  0.00    +0.124 C 
ATOM      8  C   UNL     1      12.275   8.686  16.873  0.00  0.00    +0.045 C 
ATOM      9  C   UNL     1      11.720   8.545  17.466  0.00  0.00    +0.096 C 
ATOM     10  N   UNL     1      12.116   8.537  18.190  0.00  0.00    -0.268 N 
ATOM     11  C   UNL     1      12.918   8.673  18.043  0.00  0.00    +0.174 C 
ATOM     12  C   UNL     1      13.539   8.716  18.584  0.00  0.00    +0.265 C 
ATOM     13  O   UNL     1      14.284   8.861  18.260  0.00  0.00    -0.271 OA
ATOM     14  N   UNL     1      13.514   8.635  19.404  0.00  0.00    -0.178 NA
ATOM     15  C   UNL     1      12.861   8.489  19.887  0.00  0.00    +0.078 A 
ATOM     16  C   UNL     1      13.078   8.446  20.682  0.00  0.00    +0.017 A 
ATOM     17  C   UNL     1      12.505   8.304  21.259  0.00  0.00    +0.002 A 
ATOM     18  C   UNL     1      11.715   8.205  21.040  0.00  0.00    +0.006 A 
ATOM     19  C   UNL     1      11.499   8.247  20.245  0.00  0.00    +0.006 A 
ATOM     20  C   UNL     1      12.072   8.390  19.668  0.00  0.00    +0.069 A 
ATOM     21  C   UNL     1      11.741   8.411  18.913  0.00  0.00    +0.251 C 
ATOM     22  O   UNL     1      10.926   8.290  18.876  0.00  0.00    -0.270 OA
ENDROOT
BRANCH  18  23
ATOM     23  C   UNL     1      11.143   8.063  21.617  0.00  0.00    +0.029 A 
ATOM     24  C   UNL     1      10.663   7.393  21.669  0.00  0.00    +0.007 A 
ATOM     25  C   UNL     1      10.174   7.482  22.327  0.00  0.00    +0.007 A 
ATOM     26  C   UNL     1      10.350   8.206  22.680  0.00  0.00    +0.035 A 
ATOM     27  S   UNL     1      10.949   8.565  22.242  0.00  0.00    -0.086 S 
ENDBRANCH  18  23
BRANCH   7   6
ATOM      4  C   UNL     1      13.747   8.948  16.016  0.00  0.00    +0.252 C 
ATOM      5  O   UNL     1      13.055   8.839  15.581  0.00  0.00    -0.272 OA
ATOM      6  N   UNL     1      13.728   8.911  16.840  0.00  0.00    -0.204 NA
BRANCH   4   3
ATOM      3  C   UNL     1      14.460   9.094  15.627  0.00  0.00    +0.144 C 
BRANCH   3   2
ATOM      1  C   UNL     1      15.239   9.008  14.432  0.00  0.00    +0.070 C 
ATOM      2  S   UNL     1      14.504   9.020  14.806  0.00  0.00    -0.130 S 
ENDBRANCH   3   2
ENDBRANCH   4   3
ENDBRANCH   7   6
TORSDOF 4
ENDMDL
MODEL 10
REMARK VINA RESULT:      -6.6     15.133     17.495
REMARK  Name = 
REMARK  4 active torsions:
REMARK  status: ('A' for Active; 'I' for Inactive)
REMARK    1  A    between atoms: S_2  and  C_3
REMARK    2  A    between atoms: C_3  and  C_4
REMARK    3  A    between atoms: N_6  and  C_7
REMARK    4  A    between atoms: C_18  and  C_23
REMARK                            x       y       z     vdW  Elec       q    Type
REMARK                         _______ _______ _______ _____ _____    ______ ____
ROOT
ATOM      7  C   UNL     1      -2.731 -10.504  13.028  0.00  0.00    +0.124 C 
ATOM      8  C   UNL     1      -2.074 -10.408  12.539  0.00  0.00    +0.045 C 
ATOM      9  C   UNL     1      -2.345 -10.226  11.781  0.00  0.00    +0.096 C 
ATOM     10  N   UNL     1      -3.170 -10.210  11.803  0.00  0.00    -0.268 N 
ATOM     11  C   UNL     1      -3.408 -10.382  12.575  0.00  0.00    +0.174 C 
ATOM     12  C   UNL     1      -4.174 -10.432  12.876  0.00  0.00    +0.265 C 
ATOM     13  O   UNL     1      -4.230 -10.615  13.679  0.00  0.00    -0.271 OA
ATOM     14  N   UNL     1      -4.890 -10.322  12.483  0.00  0.00    -0.178 NA
ATOM     15  C   UNL     1      -5.019 -10.136  11.690  0.00  0.00    +0.078 A 
ATOM     16  C   UNL     1      -5.824 -10.076  11.520  0.00  0.00    +0.017 A 
ATOM     17  C   UNL     1      -6.073  -9.893  10.755  0.00  0.00    +0.002 A 
ATOM     18  C   UNL     1      -5.515  -9.769  10.159  0.00  0.00    +0.006 A 
ATOM     19  C   UNL     1      -4.709  -9.829  10.328  0.00  0.00    +0.006 A 
ATOM     20  C   UNL     1      -4.461 -10.013  11.094  0.00  0.00    +0.069 A 
ATOM     21  C   UNL     1      -3.639 -10.046  11.145  0.00  0.00    +0.251 C 
ATOM     22  O   UNL     1      -3.231  -9.894  10.444  0.00  0.00    -0.270 OA
ENDROOT
BRANCH  18  23
ATOM     23  C   UNL     1      -5.763  -9.586   9.394  0.00  0.00    +0.029 A 
ATOM     24  C   UNL     1      -5.895  -8.828   9.095  0.00  0.00    +0.007 A 
ATOM     25  C   UNL     1      -6.136  -8.903   8.310  0.00  0.00    +0.007 A 
ATOM     26  C   UNL     1      -6.153  -9.707   8.124  0.00  0.00    +0.035 A 
ATOM     27  S   UNL     1      -5.922 -10.129   8.793  0.00  0.00    -0.086 S 
ENDBRANCH  18  23
BRANCH   7   6
ATOM      4  C   UNL     1      -2.017 -10.590  14.264  0.00  0.00    +0.252 C 
ATOM      5  O   UNL     1      -1.338 -10.304  13.892  0.00  0.00    -0.272 OA
ATOM      6  N   UNL     1      -2.714 -10.690  13.832  0.00  0.00    -0.204 NA
BRANCH   4   3
ATOM      3  C   UNL     1      -2.000 -10.776  15.068  0.00  0.00    +0.144 C 
BRANCH   3   2
ATOM      1  C   UNL     1      -1.346 -10.717  16.337  0.00  0.00    +0.070 C 
ATOM      2  S   UNL     1      -1.374 -10.515  15.538  0.00  0.00    -0.130 S 
ENDBRANCH   3   2
ENDBRANCH   4   3
ENDBRANCH   7   6
TORSDOF 4
ENDMDL
