MODEL 1
REMARK VINA RESULT:     -11.9      0.000      0.000
REMARK  Name = 
REMARK  9 active torsions:
REMARK  status: ('A' for Active; 'I' for Inactive)
REMARK    1  A    between atoms: C_2  and  C_3
REMARK    2  A    between atoms: C_3  and  C_4
REMARK    3  A    between atoms: C_4  and  C_5
REMARK    4  A    between atoms: C_7  and  C_8
REMARK    5  A    between atoms: C_8  and  C_9
REMARK    6  A    between atoms: C_14  and  C_15
REMARK    7  A    between atoms: C_15  and  C_16
REMARK    8  A    between atoms: C_21  and  C_22
REMARK    9  A    between atoms: C_22  and  C_23
REMARK                            x       y       z     vdW  Elec       q    Type
REMARK                         _______ _______ _______ _____ _____    ______ ____
ROOT
ATOM      9  C   UNL     1      -1.291   3.457  25.384  0.00  0.00    +0.024 C 
ATOM     10  C   UNL     1      -1.245   4.247  25.152  0.00  0.00    +0.089 C 
ATOM     11  N   UNL     1      -0.695   4.478  24.581  0.00  0.00    -0.218 NA
ATOM     12  C   UNL     1      -0.192   3.918  24.242  0.00  0.00    +0.089 C 
ATOM     13  C   UNL     1      -0.239   3.127  24.475  0.00  0.00    +0.019 C 
ATOM     14  C   UNL     1      -0.788   2.897  25.046  0.00  0.00    +0.012 C 
ENDROOT
BRANCH   9   8
ATOM      8  C   UNL     1      -1.841   3.227  25.954  0.00  0.00    +0.051 C 
BRANCH   8   7
ATOM      5  C   UNL     1      -3.913   3.652  25.676  0.00  0.00    +0.154 A 
ATOM      6  C   UNL     1      -3.256   3.167  25.563  0.00  0.00    +0.054 A 
ATOM      7  C   UNL     1      -2.609   3.524  25.931  0.00  0.00    +0.100 A 
ATOM     31  N   UNL     1      -2.867   4.230  26.271  0.00  0.00    -0.082 NA
ATOM     32  O   UNL     1      -3.673   4.310  26.113  0.00  0.00    -0.358 OA
BRANCH   5   4
ATOM      4  C   UNL     1      -4.677   3.507  25.400  0.00  0.00    +0.067 C 
BRANCH   4   3
ATOM      3  C   UNL     1      -5.016   2.761  25.500  0.00  0.00    +0.008 C 
BRANCH   3   2
ATOM      1  C   UNL     1      -6.081   1.847  25.229  0.00  0.00    +0.000 C 
ATOM      2  C   UNL     1      -5.778   2.614  25.220  0.00  0.00    +0.000 C 
ENDBRANCH   3   2
ENDBRANCH   4   3
ENDBRANCH   5   4
ENDBRANCH   8   7
ENDBRANCH   9   8
BRANCH  14  15
ATOM     15  C   UNL     1      -0.835   2.107  25.278  0.00  0.00    +0.085 C 
BRANCH  15  16
ATOM     16  C   UNL     1      -0.538   1.514  24.786  0.00  0.00    +0.226 C 
ATOM     17  O   UNL     1      -0.036   1.709  24.161  0.00  0.00    -0.275 OA
ATOM     18  N   UNL     1      -0.745   0.727  24.919  0.00  0.00    -0.280 N 
ATOM     19  C   UNL     1      -0.449   0.134  24.427  0.00  0.00    +0.093 C 
ATOM     20  C   UNL     1      -0.655  -0.654  24.559  0.00  0.00    +0.022 C 
ATOM     21  C   UNL     1      -1.158  -0.849  25.184  0.00  0.00    +0.008 C 
ATOM     29  C   UNL     1      -1.454  -0.256  25.676  0.00  0.00    +0.022 C 
ATOM     30  C   UNL     1      -1.247   0.531  25.543  0.00  0.00    +0.093 C 
BRANCH  21  22
ATOM     22  C   UNL     1      -1.363  -1.637  25.316  0.00  0.00    +0.026 C 
BRANCH  22  23
ATOM     23  C   UNL     1      -2.096  -1.919  25.065  0.00  0.00    -0.022 A 
ATOM     24  C   UNL     1      -2.150  -2.373  24.379  0.00  0.00    -0.004 A 
ATOM     25  C   UNL     1      -2.883  -2.656  24.127  0.00  0.00    -0.000 A 
ATOM     26  C   UNL     1      -3.563  -2.484  24.563  0.00  0.00    -0.000 A 
ATOM     27  C   UNL     1      -3.509  -2.031  25.250  0.00  0.00    -0.000 A 
ATOM     28  C   UNL     1      -2.776  -1.748  25.501  0.00  0.00    -0.004 A 
ENDBRANCH  22  23
ENDBRANCH  21  22
ENDBRANCH  15  16
ENDBRANCH  14  15
TORSDOF 9
ENDMDL
MODEL 2
REMARK VINA RESULT:     -11.5      1.639      4.614
REMARK  Name = 
REMARK  9 active torsions:
REMARK  status: ('A' for Active; 'I' for Inactive)
REMARK    1  A    between atoms: C_2  and  C_3
REMARK    2  A    between atoms: C_3  and  C_4
REMARK    3  A    between atoms: C_4  and  C_5
REMARK    4  A    between atoms: C_7  and  C_8
REMARK    5  A    between atoms: C_8  and  C_9
REMARK    6  A    between atoms: C_14  and  C_15
REMARK    7  A    between atoms: C_15  and  C_16
REMARK    8  A    between atoms: C_21  and  C_22
REMARK    9  A    between atoms: C_22  and  C_23
REMARK                            x       y       z     vdW  Elec       q    Type
REMARK                         _______ _______ _______ _____ _____    ______ ____
ROOT
ATOM      9  C   UNL     1      -2.346  -1.441  25.063  0.00  0.00    +0.024 C 
ATOM     10  C   UNL     1      -2.615  -2.158  24.759  0.00  0.00    +0.089 C 
ATOM     11  N   UNL     1      -2.108  -2.637  24.319  0.00  0.00    -0.218 NA
ATOM     12  C   UNL     1      -1.330  -2.397  24.183  0.00  0.00    +0.089 C 
ATOM     13  C   UNL     1      -1.060  -1.679  24.487  0.00  0.00    +0.019 C 
ATOM     14  C   UNL     1      -1.569  -1.200  24.927  0.00  0.00    +0.012 C 
ENDROOT
BRANCH   9   8
ATOM      8  C   UNL     1      -2.854  -0.962  25.503  0.00  0.00    +0.051 C 
BRANCH   8   7
ATOM      5  C   UNL     1      -4.598   0.086  24.859  0.00  0.00    +0.154 A 
ATOM      6  C   UNL     1      -3.905   0.047  25.303  0.00  0.00    +0.054 A 
ATOM      7  C   UNL     1      -3.557  -0.689  25.169  0.00  0.00    +0.100 A 
ATOM     31  N   UNL     1      -4.037  -1.105  24.641  0.00  0.00    -0.082 NA
ATOM     32  O   UNL     1      -4.681  -0.625  24.450  0.00  0.00    -0.358 OA
BRANCH   5   4
ATOM      4  C   UNL     1      -5.119   0.726  24.829  0.00  0.00    +0.067 C 
BRANCH   4   3
ATOM      3  C   UNL     1      -4.828   1.497  24.875  0.00  0.00    +0.008 C 
BRANCH   3   2
ATOM      1  C   UNL     1      -5.062   2.907  24.914  0.00  0.00    +0.000 C 
ATOM      2  C   UNL     1      -5.349   2.136  24.848  0.00  0.00    +0.000 C 
ENDBRANCH   3   2
ENDBRANCH   4   3
ENDBRANCH   5   4
ENDBRANCH   8   7
ENDBRANCH   9   8
BRANCH  14  15
ATOM     15  C   UNL     1      -1.299  -0.483  25.231  0.00  0.00    +0.085 C 
BRANCH  15  16
ATOM     16  C   UNL     1      -0.770  -0.023  24.795  0.00  0.00    +0.226 C 
ATOM     17  O   UNL     1      -0.392  -0.342  24.135  0.00  0.00    -0.275 OA
ATOM     18  N   UNL     1      -0.620   0.756  25.020  0.00  0.00    -0.280 N 
ATOM     19  C   UNL     1      -0.091   1.217  24.584  0.00  0.00    +0.093 C 
ATOM     20  C   UNL     1       0.060   1.996  24.808  0.00  0.00    +0.022 C 
ATOM     21  C   UNL     1      -0.318   2.316  25.469  0.00  0.00    +0.008 C 
ATOM     29  C   UNL     1      -0.847   1.855  25.904  0.00  0.00    +0.022 C 
ATOM     30  C   UNL     1      -0.997   1.077  25.679  0.00  0.00    +0.093 C 
BRANCH  21  22
ATOM     22  C   UNL     1      -0.167   3.095  25.693  0.00  0.00    +0.026 C 
BRANCH  22  23
ATOM     23  C   UNL     1      -0.691   3.695  25.479  0.00  0.00    -0.022 A 
ATOM     24  C   UNL     1      -1.424   3.755  25.852  0.00  0.00    -0.004 A 
ATOM     25  C   UNL     1      -1.948   4.355  25.638  0.00  0.00    -0.000 A 
ATOM     26  C   UNL     1      -1.738   4.895  25.050  0.00  0.00    -0.000 A 
ATOM     27  C   UNL     1      -1.005   4.835  24.677  0.00  0.00    -0.000 A 
ATOM     28  C   UNL     1      -0.481   4.235  24.891  0.00  0.00    -0.004 A 
ENDBRANCH  22  23
ENDBRANCH  21  22
ENDBRANCH  15  16
ENDBRANCH  14  15
TORSDOF 9
ENDMDL
MODEL 3
REMARK VINA RESULT:     -11.3      2.100      5.924
REMARK  Name = 
REMARK  9 active torsions:
REMARK  status: ('A' for Active; 'I' for Inactive)
REMARK    1  A    between atoms: C_2  and  C_3
REMARK    2  A    between atoms: C_3  and  C_4
REMARK    3  A    between atoms: C_4  and  C_5
REMARK    4  A    between atoms: C_7  and  C_8
REMARK    5  A    between atoms: C_8  and  C_9
REMARK    6  A    between atoms: C_14  and  C_15
REMARK    7  A    between atoms: C_15  and  C_16
REMARK    8  A    between atoms: C_21  and  C_22
REMARK    9  A    between atoms: C_22  and  C_23
REMARK                            x       y       z     vdW  Elec       q    Type
REMARK                         _______ _______ _______ _____ _____    ______ ____
ROOT
ATOM      9  C   UNL     1      -3.167  -1.698  24.727  0.00  0.00    +0.024 C 
ATOM     10  C   UNL     1      -3.239  -2.514  24.632  0.00  0.00    +0.089 C 
ATOM     11  N   UNL     1      -3.857  -2.824  24.181  0.00  0.00    -0.218 NA
ATOM     12  C   UNL     1      -4.402  -2.316  23.824  0.00  0.00    +0.089 C 
ATOM     13  C   UNL     1      -4.329  -1.500  23.919  0.00  0.00    +0.019 C 
ATOM     14  C   UNL     1      -3.711  -1.190  24.371  0.00  0.00    +0.012 C 
ENDROOT
BRANCH   9   8
ATOM      8  C   UNL     1      -2.549  -1.389  25.178  0.00  0.00    +0.051 C 
BRANCH   8   7
ATOM      5  C   UNL     1      -0.518  -1.268  24.535  0.00  0.00    +0.154 A 
ATOM      6  C   UNL     1      -1.232  -0.908  24.736  0.00  0.00    +0.054 A 
ATOM      7  C   UNL     1      -1.767  -1.502  24.940  0.00  0.00    +0.100 A 
ATOM     31  N   UNL     1      -1.383  -2.228  24.865  0.00  0.00    -0.082 NA
ATOM     32  O   UNL     1      -0.610  -2.084  24.615  0.00  0.00    -0.358 OA
BRANCH   5   4
ATOM      4  C   UNL     1       0.171  -0.879  24.295  0.00  0.00    +0.067 C 
BRANCH   4   3
ATOM      3  C   UNL     1       0.227  -0.575  23.530  0.00  0.00    +0.008 C 
BRANCH   3   2
ATOM      1  C   UNL     1       1.206  -0.106  22.601  0.00  0.00    +0.000 C 
ATOM      2  C   UNL     1       0.839  -0.056  23.338  0.00  0.00    +0.000 C 
ENDBRANCH   3   2
ENDBRANCH   4   3
ENDBRANCH   5   4
ENDBRANCH   8   7
ENDBRANCH   9   8
BRANCH  14  15
ATOM     15  C   UNL     1      -3.638  -0.375  24.465  0.00  0.00    +0.085 C 
BRANCH  15  16
ATOM     16  C   UNL     1      -4.302   0.080  24.649  0.00  0.00    +0.226 C 
ATOM     17  O   UNL     1      -5.010  -0.288  24.856  0.00  0.00    -0.275 OA
ATOM     18  N   UNL     1      -4.256   0.903  24.626  0.00  0.00    -0.280 N 
ATOM     19  C   UNL     1      -4.919   1.359  24.811  0.00  0.00    +0.093 C 
ATOM     20  C   UNL     1      -4.874   2.182  24.788  0.00  0.00    +0.022 C 
ATOM     21  C   UNL     1      -4.165   2.551  24.582  0.00  0.00    +0.008 C 
ATOM     29  C   UNL     1      -3.502   2.096  24.398  0.00  0.00    +0.022 C 
ATOM     30  C   UNL     1      -3.548   1.273  24.420  0.00  0.00    +0.093 C 
BRANCH  21  22
ATOM     22  C   UNL     1      -4.120   3.374  24.559  0.00  0.00    +0.026 C 
BRANCH  22  23
ATOM     23  C   UNL     1      -3.559   3.770  25.017  0.00  0.00    -0.022 A 
ATOM     24  C   UNL     1      -2.852   4.021  24.676  0.00  0.00    -0.004 A 
ATOM     25  C   UNL     1      -2.291   4.416  25.133  0.00  0.00    -0.000 A 
ATOM     26  C   UNL     1      -2.438   4.560  25.932  0.00  0.00    -0.000 A 
ATOM     27  C   UNL     1      -3.146   4.309  26.273  0.00  0.00    -0.000 A 
ATOM     28  C   UNL     1      -3.707   3.914  25.816  0.00  0.00    -0.004 A 
ENDBRANCH  22  23
ENDBRANCH  21  22
ENDBRANCH  15  16
ENDBRANCH  14  15
TORSDOF 9
ENDMDL
MODEL 4
REMARK VINA RESULT:     -11.3      1.545      3.543
REMARK  Name = 
REMARK  9 active torsions:
REMARK  status: ('A' for Active; 'I' for Inactive)
REMARK    1  A    between atoms: C_2  and  C_3
REMARK    2  A    between atoms: C_3  and  C_4
REMARK    3  A    between atoms: C_4  and  C_5
REMARK    4  A    between atoms: C_7  and  C_8
REMARK    5  A    between atoms: C_8  and  C_9
REMARK    6  A    between atoms: C_14  and  C_15
REMARK    7  A    between atoms: C_15  and  C_16
REMARK    8  A    between atoms: C_21  and  C_22
REMARK    9  A    between atoms: C_22  and  C_23
REMARK                            x       y       z     vdW  Elec       q    Type
REMARK                         _______ _______ _______ _____ _____    ______ ____
ROOT
ATOM      9  C   UNL     1      -4.557   3.106  24.903  0.00  0.00    +0.024 C 
ATOM     10  C   UNL     1      -4.864   3.781  25.262  0.00  0.00    +0.089 C 
ATOM     11  N   UNL     1      -5.532   3.725  25.744  0.00  0.00    -0.218 NA
ATOM     12  C   UNL     1      -5.892   2.993  25.865  0.00  0.00    +0.089 C 
ATOM     13  C   UNL     1      -5.585   2.317  25.505  0.00  0.00    +0.019 C 
ATOM     14  C   UNL     1      -4.916   2.373  25.024  0.00  0.00    +0.012 C 
ENDROOT
BRANCH   9   8
ATOM      8  C   UNL     1      -3.889   3.162  24.421  0.00  0.00    +0.051 C 
BRANCH   8   7
ATOM      5  C   UNL     1      -2.005   3.864  25.138  0.00  0.00    +0.154 A 
ATOM      6  C   UNL     1      -2.510   3.248  24.925  0.00  0.00    +0.054 A 
ATOM      7  C   UNL     1      -3.226   3.579  24.681  0.00  0.00    +0.100 A 
ATOM     31  N   UNL     1      -3.163   4.399  24.744  0.00  0.00    -0.082 NA
ATOM     32  O   UNL     1      -2.408   4.576  25.026  0.00  0.00    -0.358 OA
BRANCH   5   4
ATOM      4  C   UNL     1      -1.231   3.783  25.414  0.00  0.00    +0.067 C 
BRANCH   4   3
ATOM      3  C   UNL     1      -0.966   3.051  25.686  0.00  0.00    +0.008 C 
BRANCH   3   2
ATOM      1  C   UNL     1       0.079   2.322  26.335  0.00  0.00    +0.000 C 
ATOM      2  C   UNL     1      -0.163   2.934  25.837  0.00  0.00    +0.000 C 
ENDBRANCH   3   2
ENDBRANCH   4   3
ENDBRANCH   5   4
ENDBRANCH   8   7
ENDBRANCH   9   8
BRANCH  14  15
ATOM     15  C   UNL     1      -4.610   1.698  24.665  0.00  0.00    +0.085 C 
BRANCH  15  16
ATOM     16  C   UNL     1      -4.684   0.963  25.034  0.00  0.00    +0.226 C 
ATOM     17  O   UNL     1      -5.259   0.850  25.614  0.00  0.00    -0.275 OA
ATOM     18  N   UNL     1      -4.183   0.344  24.822  0.00  0.00    -0.280 N 
ATOM     19  C   UNL     1      -4.257  -0.391  25.192  0.00  0.00    +0.093 C 
ATOM     20  C   UNL     1      -3.757  -1.012  24.981  0.00  0.00    +0.022 C 
ATOM     21  C   UNL     1      -3.181  -0.898  24.400  0.00  0.00    +0.008 C 
ATOM     29  C   UNL     1      -3.107  -0.164  24.031  0.00  0.00    +0.022 C 
ATOM     30  C   UNL     1      -3.608   0.456  24.242  0.00  0.00    +0.093 C 
BRANCH  21  22
ATOM     22  C   UNL     1      -2.681  -1.519  24.190  0.00  0.00    +0.026 C 
BRANCH  22  23
ATOM     23  C   UNL     1      -1.925  -1.569  24.516  0.00  0.00    -0.022 A 
ATOM     24  C   UNL     1      -1.343  -1.030  24.293  0.00  0.00    -0.004 A 
ATOM     25  C   UNL     1      -0.587  -1.079  24.619  0.00  0.00    -0.000 A 
ATOM     26  C   UNL     1      -0.414  -1.670  25.170  0.00  0.00    -0.000 A 
ATOM     27  C   UNL     1      -0.996  -2.209  25.393  0.00  0.00    -0.000 A 
ATOM     28  C   UNL     1      -1.752  -2.159  25.067  0.00  0.00    -0.004 A 
ENDBRANCH  22  23
ENDBRANCH  21  22
ENDBRANCH  15  16
ENDBRANCH  14  15
TORSDOF 9
ENDMDL
MODEL 5
REMARK VINA RESULT:     -11.2      1.363      4.840
REMARK  Name = 
REMARK  9 active torsions:
REMARK  status: ('A' for Active; 'I' for Inactive)
REMARK    1  A    between atoms: C_2  and  C_3
REMARK    2  A    between atoms: C_3  and  C_4
REMARK    3  A    between atoms: C_4  and  C_5
REMARK    4  A    between atoms: C_7  and  C_8
REMARK    5  A    between atoms: C_8  and  C_9
REMARK    6  A    between atoms: C_14  and  C_15
REMARK    7  A    between atoms: C_15  and  C_16
REMARK    8  A    between atoms: C_21  and  C_22
REMARK    9  A    between atoms: C_22  and  C_23
REMARK                            x       y       z     vdW  Elec       q    Type
REMARK                         _______ _______ _______ _____ _____    ______ ____
ROOT
ATOM      9  C   UNL     1      -0.175  -0.199  24.428  0.00  0.00    +0.024 C 
ATOM     10  C   UNL     1       0.101  -0.750  23.880  0.00  0.00    +0.089 C 
ATOM     11  N   UNL     1       0.516  -0.496  23.213  0.00  0.00    -0.218 NA
ATOM     12  C   UNL     1       0.654   0.310  23.095  0.00  0.00    +0.089 C 
ATOM     13  C   UNL     1       0.377   0.860  23.644  0.00  0.00    +0.019 C 
ATOM     14  C   UNL     1      -0.038   0.606  24.311  0.00  0.00    +0.012 C 
ENDROOT
BRANCH   9   8
ATOM      8  C   UNL     1      -0.590  -0.454  25.094  0.00  0.00    +0.051 C 
BRANCH   8   7
ATOM      5  C   UNL     1      -2.084  -1.975  25.008  0.00  0.00    +0.154 A 
ATOM      6  C   UNL     1      -1.867  -1.181  25.038  0.00  0.00    +0.054 A 
ATOM      7  C   UNL     1      -1.043  -1.143  25.061  0.00  0.00    +0.100 A 
ATOM     31  N   UNL     1      -0.751  -1.914  25.045  0.00  0.00    -0.082 NA
ATOM     32  O   UNL     1      -1.395  -2.430  25.012  0.00  0.00    -0.358 OA
BRANCH   5   4
ATOM      4  C   UNL     1      -2.856  -2.266  24.978  0.00  0.00    +0.067 C 
BRANCH   4   3
ATOM      3  C   UNL     1      -3.263  -2.283  24.261  0.00  0.00    +0.008 C 
BRANCH   3   2
ATOM      1  C   UNL     1      -4.519  -2.415  23.592  0.00  0.00    +0.000 C 
ATOM      2  C   UNL     1      -4.025  -2.599  24.226  0.00  0.00    +0.000 C 
ENDBRANCH   3   2
ENDBRANCH   4   3
ENDBRANCH   5   4
ENDBRANCH   8   7
ENDBRANCH   9   8
BRANCH  14  15
ATOM     15  C   UNL     1      -0.315   1.156  24.858  0.00  0.00    +0.085 C 
BRANCH  15  16
ATOM     16  C   UNL     1      -0.228   1.964  24.712  0.00  0.00    +0.226 C 
ATOM     17  O   UNL     1       0.439   2.241  24.314  0.00  0.00    -0.275 OA
ATOM     18  N   UNL     1      -0.808   2.492  24.965  0.00  0.00    -0.280 N 
ATOM     19  C   UNL     1      -0.721   3.300  24.819  0.00  0.00    +0.093 C 
ATOM     20  C   UNL     1      -1.301   3.830  25.071  0.00  0.00    +0.022 C 
ATOM     21  C   UNL     1      -1.968   3.552  25.470  0.00  0.00    +0.008 C 
ATOM     29  C   UNL     1      -2.055   2.745  25.616  0.00  0.00    +0.022 C 
ATOM     30  C   UNL     1      -1.475   2.216  25.363  0.00  0.00    +0.093 C 
BRANCH  21  22
ATOM     22  C   UNL     1      -2.548   4.083  25.722  0.00  0.00    +0.026 C 
BRANCH  22  23
ATOM     23  C   UNL     1      -3.335   3.968  25.503  0.00  0.00    -0.022 A 
ATOM     24  C   UNL     1      -3.568   4.093  24.722  0.00  0.00    -0.004 A 
ATOM     25  C   UNL     1      -4.355   3.979  24.503  0.00  0.00    -0.000 A 
ATOM     26  C   UNL     1      -4.909   3.740  25.066  0.00  0.00    -0.000 A 
ATOM     27  C   UNL     1      -4.676   3.615  25.847  0.00  0.00    -0.000 A 
ATOM     28  C   UNL     1      -3.889   3.729  26.066  0.00  0.00    -0.004 A 
ENDBRANCH  22  23
ENDBRANCH  21  22
ENDBRANCH  15  16
ENDBRANCH  14  15
TORSDOF 9
ENDMDL
MODEL 6
REMARK VINA RESULT:     -11.1      1.395      3.578
REMARK  Name = 
REMARK  9 active torsions:
REMARK  status: ('A' for Active; 'I' for Inactive)
REMARK    1  A    between atoms: C_2  and  C_3
REMARK    2  A    between atoms: C_3  and  C_4
REMARK    3  A    between atoms: C_4  and  C_5
REMARK    4  A    between atoms: C_7  and  C_8
REMARK    5  A    between atoms: C_8  and  C_9
REMARK    6  A    between atoms: C_14  and  C_15
REMARK    7  A    between atoms: C_15  and  C_16
REMARK    8  A    between atoms: C_21  and  C_22
REMARK    9  A    between atoms: C_22  and  C_23
REMARK                            x       y       z     vdW  Elec       q    Type
REMARK                         _______ _______ _______ _____ _____    ______ ____
ROOT
ATOM      9  C   UNL     1      -2.266   3.622  24.839  0.00  0.00    +0.024 C 
ATOM     10  C   UNL     1      -1.876   4.206  25.271  0.00  0.00    +0.089 C 
ATOM     11  N   UNL     1      -2.225   4.521  25.950  0.00  0.00    -0.218 NA
ATOM     12  C   UNL     1      -2.964   4.250  26.196  0.00  0.00    +0.089 C 
ATOM     13  C   UNL     1      -3.355   3.665  25.764  0.00  0.00    +0.019 C 
ATOM     14  C   UNL     1      -3.006   3.351  25.085  0.00  0.00    +0.012 C 
ENDROOT
BRANCH   9   8
ATOM      8  C   UNL     1      -1.917   3.308  24.161  0.00  0.00    +0.051 C 
BRANCH   8   7
ATOM      5  C   UNL     1      -0.137   2.132  24.202  0.00  0.00    +0.154 A 
ATOM      6  C   UNL     1      -0.956   2.196  24.140  0.00  0.00    +0.054 A 
ATOM      7  C   UNL     1      -1.155   2.995  24.195  0.00  0.00    +0.100 A 
ATOM     31  N   UNL     1      -0.458   3.425  24.292  0.00  0.00    -0.082 NA
ATOM     32  O   UNL     1       0.172   2.891  24.296  0.00  0.00    -0.358 OA
BRANCH   5   4
ATOM      4  C   UNL     1       0.299   1.431  24.175  0.00  0.00    +0.067 C 
BRANCH   4   3
ATOM      3  C   UNL     1      -0.076   0.720  23.992  0.00  0.00    +0.008 C 
BRANCH   3   2
ATOM      1  C   UNL     1       0.018  -0.703  23.900  0.00  0.00    +0.000 C 
ATOM      2  C   UNL     1       0.372   0.040  23.858  0.00  0.00    +0.000 C 
ENDBRANCH   3   2
ENDBRANCH   4   3
ENDBRANCH   5   4
ENDBRANCH   8   7
ENDBRANCH   9   8
BRANCH  14  15
ATOM     15  C   UNL     1      -3.396   2.767  24.654  0.00  0.00    +0.085 C 
BRANCH  15  16
ATOM     16  C   UNL     1      -4.054   2.386  24.976  0.00  0.00    +0.226 C 
ATOM     17  O   UNL     1      -4.569   2.800  25.469  0.00  0.00    -0.275 OA
ATOM     18  N   UNL     1      -4.196   1.593  24.803  0.00  0.00    -0.280 N 
ATOM     19  C   UNL     1      -4.854   1.212  25.125  0.00  0.00    +0.093 C 
ATOM     20  C   UNL     1      -4.997   0.418  24.952  0.00  0.00    +0.022 C 
ATOM     21  C   UNL     1      -4.482   0.004  24.458  0.00  0.00    +0.008 C 
ATOM     29  C   UNL     1      -3.824   0.385  24.137  0.00  0.00    +0.022 C 
ATOM     30  C   UNL     1      -3.682   1.178  24.309  0.00  0.00    +0.093 C 
BRANCH  21  22
ATOM     22  C   UNL     1      -4.625  -0.790  24.286  0.00  0.00    +0.026 C 
BRANCH  22  23
ATOM     23  C   UNL     1      -4.082  -1.367  24.517  0.00  0.00    -0.022 A 
ATOM     24  C   UNL     1      -3.861  -1.431  25.309  0.00  0.00    -0.004 A 
ATOM     25  C   UNL     1      -3.318  -2.007  25.540  0.00  0.00    -0.000 A 
ATOM     26  C   UNL     1      -2.998  -2.521  24.979  0.00  0.00    -0.000 A 
ATOM     27  C   UNL     1      -3.219  -2.457  24.187  0.00  0.00    -0.000 A 
ATOM     28  C   UNL     1      -3.762  -1.880  23.956  0.00  0.00    -0.004 A 
ENDBRANCH  22  23
ENDBRANCH  21  22
ENDBRANCH  15  16
ENDBRANCH  14  15
TORSDOF 9
ENDMDL
MODEL 7
REMARK VINA RESULT:     -10.9      1.789      4.737
REMARK  Name = 
REMARK  9 active torsions:
REMARK  status: ('A' for Active; 'I' for Inactive)
REMARK    1  A    between atoms: C_2  and  C_3
REMARK    2  A    between atoms: C_3  and  C_4
REMARK    3  A    between atoms: C_4  and  C_5
REMARK    4  A    between atoms: C_7  and  C_8
REMARK    5  A    between atoms: C_8  and  C_9
REMARK    6  A    between atoms: C_14  and  C_15
REMARK    7  A    between atoms: C_15  and  C_16
REMARK    8  A    between atoms: C_21  and  C_22
REMARK    9  A    between atoms: C_22  and  C_23
REMARK                            x       y       z     vdW  Elec       q    Type
REMARK                         _______ _______ _______ _____ _____    ______ ____
ROOT
ATOM      9  C   UNL     1      -0.794  -0.518  24.351  0.00  0.00    +0.024 C 
ATOM     10  C   UNL     1      -0.069  -0.833  24.583  0.00  0.00    +0.089 C 
ATOM     11  N   UNL     1      -0.045  -1.507  25.059  0.00  0.00    -0.218 NA
ATOM     12  C   UNL     1      -0.748  -1.865  25.303  0.00  0.00    +0.089 C 
ATOM     13  C   UNL     1      -1.474  -1.548  25.070  0.00  0.00    +0.019 C 
ATOM     14  C   UNL     1      -1.497  -0.874  24.594  0.00  0.00    +0.012 C 
ENDROOT
BRANCH   9   8
ATOM      8  C   UNL     1      -0.817   0.156  23.875  0.00  0.00    +0.051 C 
BRANCH   8   7
ATOM      5  C   UNL     1      -0.008   2.007  24.563  0.00  0.00    +0.154 A 
ATOM      6  C   UNL     1      -0.638   1.481  24.485  0.00  0.00    +0.054 A 
ATOM      7  C   UNL     1      -0.368   0.818  24.075  0.00  0.00    +0.100 A 
ATOM     31  N   UNL     1       0.429   0.935  23.899  0.00  0.00    -0.082 NA
ATOM     32  O   UNL     1       0.652   1.670  24.202  0.00  0.00    -0.358 OA
BRANCH   5   4
ATOM      4  C   UNL     1      -0.033   2.742  24.939  0.00  0.00    +0.067 C 
BRANCH   4   3
ATOM      3  C   UNL     1      -0.694   3.228  24.849  0.00  0.00    +0.008 C 
BRANCH   3   2
ATOM      1  C   UNL     1      -1.183   4.554  25.060  0.00  0.00    +0.000 C 
ATOM      2  C   UNL     1      -0.793   3.884  25.340  0.00  0.00    +0.000 C 
ENDBRANCH   3   2
ENDBRANCH   4   3
ENDBRANCH   5   4
ENDBRANCH   8   7
ENDBRANCH   9   8
BRANCH  14  15
ATOM     15  C   UNL     1      -2.222  -0.559  24.362  0.00  0.00    +0.085 C 
BRANCH  15  16
ATOM     16  C   UNL     1      -2.888  -0.657  24.841  0.00  0.00    +0.226 C 
ATOM     17  O   UNL     1      -2.933  -1.298  25.357  0.00  0.00    -0.275 OA
ATOM     18  N   UNL     1      -3.507  -0.113  24.802  0.00  0.00    -0.280 N 
ATOM     19  C   UNL     1      -4.172  -0.212  25.281  0.00  0.00    +0.093 C 
ATOM     20  C   UNL     1      -4.792   0.331  25.243  0.00  0.00    +0.022 C 
ATOM     21  C   UNL     1      -4.747   0.973  24.726  0.00  0.00    +0.008 C 
ATOM     29  C   UNL     1      -4.081   1.071  24.247  0.00  0.00    +0.022 C 
ATOM     30  C   UNL     1      -3.462   0.528  24.286  0.00  0.00    +0.093 C 
BRANCH  21  22
ATOM     22  C   UNL     1      -5.367   1.516  24.688  0.00  0.00    +0.026 C 
BRANCH  22  23
ATOM     23  C   UNL     1      -5.279   2.267  25.019  0.00  0.00    -0.022 A 
ATOM     24  C   UNL     1      -4.878   2.856  24.605  0.00  0.00    -0.004 A 
ATOM     25  C   UNL     1      -4.790   3.606  24.935  0.00  0.00    -0.000 A 
ATOM     26  C   UNL     1      -5.104   3.767  25.682  0.00  0.00    -0.000 A 
ATOM     27  C   UNL     1      -5.504   3.177  26.097  0.00  0.00    -0.000 A 
ATOM     28  C   UNL     1      -5.592   2.427  25.766  0.00  0.00    -0.004 A 
ENDBRANCH  22  23
ENDBRANCH  21  22
ENDBRANCH  15  16
ENDBRANCH  14  15
TORSDOF 9
ENDMDL
MODEL 8
REMARK VINA RESULT:     -10.8      1.171      4.536
REMARK  Name = 
REMARK  9 active torsions:
REMARK  status: ('A' for Active; 'I' for Inactive)
REMARK    1  A    between atoms: C_2  and  C_3
REMARK    2  A    between atoms: C_3  and  C_4
REMARK    3  A    between atoms: C_4  and  C_5
REMARK    4  A    between atoms: C_7  and  C_8
REMARK    5  A    between atoms: C_8  and  C_9
REMARK    6  A    between atoms: C_14  and  C_15
REMARK    7  A    between atoms: C_15  and  C_16
REMARK    8  A    between atoms: C_21  and  C_22
REMARK    9  A    between atoms: C_22  and  C_23
REMARK                            x       y       z     vdW  Elec       q    Type
REMARK                         _______ _______ _______ _____ _____    ______ ____
ROOT
ATOM      9  C   UNL     1      -0.286   1.895  24.670  0.00  0.00    +0.024 C 
ATOM     10  C   UNL     1       0.397   1.704  25.089  0.00  0.00    +0.089 C 
ATOM     11  N   UNL     1       0.643   2.180  25.717  0.00  0.00    -0.218 NA
ATOM     12  C   UNL     1       0.203   2.846  25.926  0.00  0.00    +0.089 C 
ATOM     13  C   UNL     1      -0.481   3.037  25.506  0.00  0.00    +0.019 C 
ATOM     14  C   UNL     1      -0.726   2.561  24.878  0.00  0.00    +0.012 C 
ENDROOT
BRANCH   9   8
ATOM      8  C   UNL     1      -0.531   1.419  24.042  0.00  0.00    +0.051 C 
BRANCH   8   7
ATOM      5  C   UNL     1      -0.614  -0.691  24.344  0.00  0.00    +0.154 A 
ATOM      6  C   UNL     1      -0.932   0.063  24.443  0.00  0.00    +0.054 A 
ATOM      7  C   UNL     1      -0.425   0.602  24.077  0.00  0.00    +0.100 A 
ATOM     31  N   UNL     1       0.205   0.180  23.753  0.00  0.00    -0.082 NA
ATOM     32  O   UNL     1       0.089  -0.620  23.918  0.00  0.00    -0.358 OA
BRANCH   5   4
ATOM      4  C   UNL     1      -0.942  -1.396  24.624  0.00  0.00    +0.067 C 
BRANCH   4   3
ATOM      3  C   UNL     1      -1.731  -1.575  24.465  0.00  0.00    +0.008 C 
BRANCH   3   2
ATOM      1  C   UNL     1      -2.837  -2.464  24.633  0.00  0.00    +0.000 C 
ATOM      2  C   UNL     1      -2.024  -2.329  24.627  0.00  0.00    +0.000 C 
ENDBRANCH   3   2
ENDBRANCH   4   3
ENDBRANCH   5   4
ENDBRANCH   8   7
ENDBRANCH   9   8
BRANCH  14  15
ATOM     15  C   UNL     1      -1.410   2.752  24.459  0.00  0.00    +0.085 C 
BRANCH  15  16
ATOM     16  C   UNL     1      -1.884   3.381  24.707  0.00  0.00    +0.226 C 
ATOM     17  O   UNL     1      -1.537   4.074  24.986  0.00  0.00    -0.275 OA
ATOM     18  N   UNL     1      -2.706   3.314  24.676  0.00  0.00    -0.280 N 
ATOM     19  C   UNL     1      -3.180   3.942  24.924  0.00  0.00    +0.093 C 
ATOM     20  C   UNL     1      -4.002   3.876  24.893  0.00  0.00    +0.022 C 
ATOM     21  C   UNL     1      -4.350   3.181  24.614  0.00  0.00    +0.008 C 
ATOM     29  C   UNL     1      -3.875   2.553  24.366  0.00  0.00    +0.022 C 
ATOM     30  C   UNL     1      -3.054   2.620  24.397  0.00  0.00    +0.093 C 
BRANCH  21  22
ATOM     22  C   UNL     1      -5.172   3.116  24.583  0.00  0.00    +0.026 C 
BRANCH  22  23
ATOM     23  C   UNL     1      -5.565   2.608  25.101  0.00  0.00    -0.022 A 
ATOM     24  C   UNL     1      -5.810   1.864  24.844  0.00  0.00    -0.004 A 
ATOM     25  C   UNL     1      -6.203   1.357  25.361  0.00  0.00    -0.000 A 
ATOM     26  C   UNL     1      -6.351   1.594  26.138  0.00  0.00    -0.000 A 
ATOM     27  C   UNL     1      -6.106   2.338  26.396  0.00  0.00    -0.000 A 
ATOM     28  C   UNL     1      -5.713   2.846  25.878  0.00  0.00    -0.004 A 
ENDBRANCH  22  23
ENDBRANCH  21  22
ENDBRANCH  15  16
ENDBRANCH  14  15
TORSDOF 9
ENDMDL
MODEL 9
REMARK VINA RESULT:     -10.8      2.403      5.919
REMARK  Name = 
REMARK  9 active torsions:
REMARK  status: ('A' for Active; 'I' for Inactive)
REMARK    1  A    between atoms: C_2  and  C_3
REMARK    2  A    between atoms: C_3  and  C_4
REMARK    3  A    between atoms: C_4  and  C_5
REMARK    4  A    between atoms: C_7  and  C_8
REMARK    5  A    between atoms: C_8  and  C_9
REMARK    6  A    between atoms: C_14  and  C_15
REMARK    7  A    between atoms: C_15  and  C_16
REMARK    8  A    between atoms: C_21  and  C_22
REMARK    9  A    between atoms: C_22  and  C_23
REMARK                            x       y       z     vdW  Elec       q    Type
REMARK                         _______ _______ _______ _____ _____    ______ ____
ROOT
ATOM      9  C   UNL     1       0.196   0.020  23.752  0.00  0.00    +0.024 C 
ATOM     10  C   UNL     1       0.458  -0.754  23.860  0.00  0.00    +0.089 C 
ATOM     11  N   UNL     1       0.108  -1.232  24.436  0.00  0.00    -0.218 NA
ATOM     12  C   UNL     1      -0.504  -0.933  24.903  0.00  0.00    +0.089 C 
ATOM     13  C   UNL     1      -0.766  -0.158  24.794  0.00  0.00    +0.019 C 
ATOM     14  C   UNL     1      -0.416   0.319  24.218  0.00  0.00    +0.012 C 
ENDROOT
BRANCH   9   8
ATOM      8  C   UNL     1       0.546   0.497  23.177  0.00  0.00    +0.051 C 
BRANCH   8   7
ATOM      5  C   UNL     1       2.636   0.439  22.749  0.00  0.00    +0.154 A 
ATOM      6  C   UNL     1       1.986   0.789  23.115  0.00  0.00    +0.054 A 
ATOM      7  C   UNL     1       1.317   0.344  22.926  0.00  0.00    +0.100 A 
ATOM     31  N   UNL     1       1.554  -0.281  22.443  0.00  0.00    -0.082 NA
ATOM     32  O   UNL     1       2.370  -0.223  22.333  0.00  0.00    -0.358 OA
BRANCH   5   4
ATOM      4  C   UNL     1       3.417   0.703  22.790  0.00  0.00    +0.067 C 
BRANCH   4   3
ATOM      3  C   UNL     1       4.004   0.210  23.095  0.00  0.00    +0.008 C 
BRANCH   3   2
ATOM      1  C   UNL     1       5.355   0.022  23.519  0.00  0.00    +0.000 C 
ATOM      2  C   UNL     1       4.786   0.469  23.123  0.00  0.00    +0.000 C 
ENDBRANCH   3   2
ENDBRANCH   4   3
ENDBRANCH   5   4
ENDBRANCH   8   7
ENDBRANCH   9   8
BRANCH  14  15
ATOM     15  C   UNL     1      -0.677   1.093  24.110  0.00  0.00    +0.085 C 
BRANCH  15  16
ATOM     16  C   UNL     1      -0.963   1.526  24.752  0.00  0.00    +0.226 C 
ATOM     17  O   UNL     1      -0.558   1.515  25.470  0.00  0.00    -0.275 OA
ATOM     18  N   UNL     1      -1.655   1.969  24.676  0.00  0.00    -0.280 N 
ATOM     19  C   UNL     1      -1.940   2.402  25.318  0.00  0.00    +0.093 C 
ATOM     20  C   UNL     1      -2.632   2.845  25.242  0.00  0.00    +0.022 C 
ATOM     21  C   UNL     1      -3.038   2.856  24.523  0.00  0.00    +0.008 C 
ATOM     29  C   UNL     1      -2.752   2.423  23.881  0.00  0.00    +0.022 C 
ATOM     30  C   UNL     1      -2.061   1.980  23.958  0.00  0.00    +0.093 C 
BRANCH  21  22
ATOM     22  C   UNL     1      -3.729   3.300  24.447  0.00  0.00    +0.026 C 
BRANCH  22  23
ATOM     23  C   UNL     1      -4.436   3.020  24.767  0.00  0.00    -0.022 A 
ATOM     24  C   UNL     1      -4.763   3.387  25.429  0.00  0.00    -0.004 A 
ATOM     25  C   UNL     1      -5.470   3.107  25.749  0.00  0.00    -0.000 A 
ATOM     26  C   UNL     1      -5.850   2.459  25.406  0.00  0.00    -0.000 A 
ATOM     27  C   UNL     1      -5.523   2.093  24.744  0.00  0.00    -0.000 A 
ATOM     28  C   UNL     1      -4.816   2.372  24.424  0.00  0.00    -0.004 A 
ENDBRANCH  22  23
ENDBRANCH  21  22
ENDBRANCH  15  16
ENDBRANCH  14  15
TORSDOF 9
ENDMDL
