MODEL 1
REMARK VINA RESULT:     -17.7      0.000      0.000
REMARK  Name = 
REMARK  4 active torsions:
REMARK  status: ('A' for Active; 'I' for Inactive)
REMARK    1  A    between atoms: C_5  and  N_6
REMARK    2  A    between atoms: C_18  and  N_19
REMARK    3  A    between atoms: C_20  and  C_22
REMARK    4  A    between atoms: C_22  and  C_23
REMARK                            x       y       z     vdW  Elec       q    Type
REMARK                         _______ _______ _______ _____ _____    ______ ____
ROOT
ATOM      6  N   UNL     1      -3.475   3.004  25.083  0.00  0.00    -0.162 NA
ATOM      7  C   UNL     1      -3.419   3.822  25.179  0.00  0.00    +0.327 C 
ATOM      8  O   UNL     1      -4.103   4.279  25.236  0.00  0.00    -0.250 OA
ATOM      9  N   UNL     1      -2.678   4.184  25.217  0.00  0.00    -0.262 N 
ATOM     10  C   UNL     1      -2.111   4.793  25.285  0.00  0.00    +0.097 C 
ATOM     11  C   UNL     1      -1.283   4.258  25.218  0.00  0.00    +0.043 C 
ATOM     12  C   UNL     1      -0.523   3.968  25.180  0.00  0.00    +0.011 C 
ATOM     13  C   UNL     1      -1.177   3.715  25.154  0.00  0.00    +0.058 C 
ATOM     14  C   UNL     1      -1.968   4.246  25.220  0.00  0.00    +0.101 C 
ATOM     15  C   UNL     1      -1.642   2.927  25.064  0.00  0.00    +0.041 A 
ATOM     16  C   UNL     1      -1.518   2.117  24.969  0.00  0.00    +0.014 A 
ATOM     17  C   UNL     1      -2.163   1.606  24.912  0.00  0.00    +0.023 A 
ATOM     18  C   UNL     1      -2.931   1.904  24.951  0.00  0.00    +0.129 A 
ATOM     29  C   UNL     1      -3.055   2.713  25.047  0.00  0.00    +0.276 A 
ATOM     30  O   UNL     1      -3.853   2.506  25.027  0.00  0.00    -0.266 OA
ATOM     31  N   UNL     1      -2.411   3.225  25.103  0.00  0.00    -0.298 N 
ATOM     32  C   UNL     1      -1.778   3.441  25.125  0.00  0.00    +0.110 C 
ENDROOT
BRANCH   6   5
ATOM      1  F   UNL     1      -6.439   1.561  24.932  0.00  0.00    -0.204 F 
ATOM      2  C   UNL     1      -5.698   1.922  24.970  0.00  0.00    +0.140 A 
ATOM      3  C   UNL     1      -5.335   2.044  25.701  0.00  0.00    +0.031 A 
ATOM      4  C   UNL     1      -4.594   2.405  25.738  0.00  0.00    +0.019 A 
ATOM      5  C   UNL     1      -4.215   2.644  25.045  0.00  0.00    +0.075 A 
ATOM     33  C   UNL     1      -4.579   2.522  24.315  0.00  0.00    +0.019 A 
ATOM     34  C   UNL     1      -5.319   2.161  24.276  0.00  0.00    +0.031 A 
ENDBRANCH   6   5
BRANCH  18  19
ATOM     19  N   UNL     1      -3.575   1.391  24.894  0.00  0.00    -0.174 NA
ATOM     20  C   UNL     1      -3.451   0.581  24.801  0.00  0.00    +0.250 C 
ATOM     21  O   UNL     1      -2.683   0.283  24.764  0.00  0.00    -0.273 OA
BRANCH  20  22
ATOM     22  C   UNL     1      -4.096   0.069  24.744  0.00  0.00    +0.113 C 
BRANCH  22  23
ATOM     23  C   UNL     1      -3.972  -0.744  24.674  0.00  0.00    -0.013 A 
ATOM     24  C   UNL     1      -4.119  -1.122  23.956  0.00  0.00    -0.004 A 
ATOM     25  C   UNL     1      -3.995  -1.935  23.885  0.00  0.00    -0.000 A 
ATOM     26  C   UNL     1      -3.724  -2.369  24.533  0.00  0.00    -0.000 A 
ATOM     27  C   UNL     1      -3.578  -1.990  25.251  0.00  0.00    -0.000 A 
ATOM     28  C   UNL     1      -3.702  -1.178  25.322  0.00  0.00    -0.004 A 
ENDBRANCH  22  23
ENDBRANCH  20  22
ENDBRANCH  18  19
TORSDOF 4
ENDMDL
MODEL 2
REMARK VINA RESULT:     -16.7      1.595      2.722
REMARK  Name = 
REMARK  4 active torsions:
REMARK  status: ('A' for Active; 'I' for Inactive)
REMARK    1  A    between atoms: C_5  and  N_6
REMARK    2  A    between atoms: C_18  and  N_19
REMARK    3  A    between atoms: C_20  and  C_22
REMARK    4  A    between atoms: C_22  and  C_23
REMARK                            x       y       z     vdW  Elec       q    Type
REMARK                         _______ _______ _______ _____ _____    ______ ____
ROOT
ATOM      6  N   UNL     1      -3.316   2.308  24.740  0.00  0.00    -0.162 NA
ATOM      7  C   UNL     1      -3.243   3.126  24.821  0.00  0.00    +0.327 C 
ATOM      8  O   UNL     1      -2.528   3.496  24.641  0.00  0.00    -0.250 OA
ATOM      9  N   UNL     1      -3.885   3.575  25.081  0.00  0.00    -0.262 N 
ATOM     10  C   UNL     1      -4.324   4.248  25.306  0.00  0.00    +0.097 C 
ATOM     11  C   UNL     1      -5.187   3.818  25.524  0.00  0.00    +0.043 C 
ATOM     12  C   UNL     1      -5.947   3.622  25.740  0.00  0.00    +0.011 C 
ATOM     13  C   UNL     1      -5.370   3.292  25.515  0.00  0.00    +0.058 C 
ATOM     14  C   UNL     1      -4.543   3.722  25.308  0.00  0.00    +0.101 C 
ATOM     15  C   UNL     1      -5.054   2.454  25.309  0.00  0.00    +0.041 A 
ATOM     16  C   UNL     1      -5.295   1.666  25.285  0.00  0.00    +0.014 A 
ATOM     17  C   UNL     1      -4.767   1.080  25.044  0.00  0.00    +0.023 A 
ATOM     18  C   UNL     1      -3.998   1.282  24.826  0.00  0.00    +0.129 A 
ATOM     29  C   UNL     1      -3.756   2.070  24.849  0.00  0.00    +0.276 A 
ATOM     30  O   UNL     1      -3.037   1.767  24.583  0.00  0.00    -0.266 OA
ATOM     31  N   UNL     1      -4.284   2.656  25.091  0.00  0.00    -0.298 N 
ATOM     32  C   UNL     1      -4.847   2.947  25.306  0.00  0.00    +0.110 C 
ENDROOT
BRANCH   6   5
ATOM      1  F   UNL     1      -0.746   0.516  23.702  0.00  0.00    -0.204 F 
ATOM      2  C   UNL     1      -1.389   0.964  23.961  0.00  0.00    +0.140 A 
ATOM      3  C   UNL     1      -1.493   1.107  24.767  0.00  0.00    +0.031 A 
ATOM      4  C   UNL     1      -2.136   1.555  25.027  0.00  0.00    +0.019 A 
ATOM      5  C   UNL     1      -2.674   1.860  24.480  0.00  0.00    +0.075 A 
ATOM     33  C   UNL     1      -2.569   1.717  23.675  0.00  0.00    +0.019 A 
ATOM     34  C   UNL     1      -1.927   1.270  23.415  0.00  0.00    +0.031 A 
ENDBRANCH   6   5
BRANCH  18  19
ATOM     19  N   UNL     1      -3.471   0.696  24.584  0.00  0.00    -0.174 NA
ATOM     20  C   UNL     1      -3.707  -0.094  24.576  0.00  0.00    +0.250 C 
ATOM     21  O   UNL     1      -4.472  -0.298  24.809  0.00  0.00    -0.273 OA
BRANCH  20  22
ATOM     22  C   UNL     1      -3.179  -0.681  24.334  0.00  0.00    +0.113 C 
BRANCH  22  23
ATOM     23  C   UNL     1      -3.404  -1.474  24.359  0.00  0.00    -0.013 A 
ATOM     24  C   UNL     1      -3.142  -1.958  24.974  0.00  0.00    -0.004 A 
ATOM     25  C   UNL     1      -3.367  -2.751  25.000  0.00  0.00    -0.000 A 
ATOM     26  C   UNL     1      -3.854  -3.061  24.410  0.00  0.00    -0.000 A 
ATOM     27  C   UNL     1      -4.116  -2.577  23.795  0.00  0.00    -0.000 A 
ATOM     28  C   UNL     1      -3.891  -1.784  23.770  0.00  0.00    -0.004 A 
ENDBRANCH  22  23
ENDBRANCH  20  22
ENDBRANCH  18  19
TORSDOF 4
ENDMDL
MODEL 3
REMARK VINA RESULT:     -16.1      1.960      4.953
REMARK  Name = 
REMARK  4 active torsions:
REMARK  status: ('A' for Active; 'I' for Inactive)
REMARK    1  A    between atoms: C_5  and  N_6
REMARK    2  A    between atoms: C_18  and  N_19
REMARK    3  A    between atoms: C_20  and  C_22
REMARK    4  A    between atoms: C_22  and  C_23
REMARK                            x       y       z     vdW  Elec       q    Type
REMARK                         _______ _______ _______ _____ _____    ______ ____
ROOT
ATOM      6  N   UNL     1      -1.834  -0.538  24.708  0.00  0.00    -0.162 NA
ATOM      7  C   UNL     1      -1.449  -1.268  24.684  0.00  0.00    +0.327 C 
ATOM      8  O   UNL     1      -0.628  -1.305  24.750  0.00  0.00    -0.250 OA
ATOM      9  N   UNL     1      -1.887  -1.962  24.595  0.00  0.00    -0.262 N 
ATOM     10  C   UNL     1      -2.046  -2.779  24.519  0.00  0.00    +0.097 C 
ATOM     11  C   UNL     1      -3.031  -2.749  24.439  0.00  0.00    +0.043 C 
ATOM     12  C   UNL     1      -3.828  -2.894  24.362  0.00  0.00    +0.011 C 
ATOM     13  C   UNL     1      -3.407  -2.338  24.439  0.00  0.00    +0.058 C 
ATOM     14  C   UNL     1      -2.456  -2.383  24.515  0.00  0.00    +0.101 C 
ATOM     15  C   UNL     1      -3.428  -1.422  24.508  0.00  0.00    +0.041 A 
ATOM     16  C   UNL     1      -3.961  -0.792  24.512  0.00  0.00    +0.014 A 
ATOM     17  C   UNL     1      -3.684  -0.019  24.594  0.00  0.00    +0.023 A 
ATOM     18  C   UNL     1      -2.875   0.124  24.672  0.00  0.00    +0.129 A 
ATOM     29  C   UNL     1      -2.343  -0.506  24.668  0.00  0.00    +0.276 A 
ATOM     30  O   UNL     1      -1.776   0.085  24.761  0.00  0.00    -0.266 OA
ATOM     31  N   UNL     1      -2.619  -1.279  24.586  0.00  0.00    -0.298 N 
ATOM     32  C   UNL     1      -3.043  -1.792  24.512  0.00  0.00    +0.110 C 
ENDROOT
BRANCH   6   5
ATOM      1  F   UNL     1      -0.082   2.235  25.069  0.00  0.00    -0.204 F 
ATOM      2  C   UNL     1      -0.520   1.542  24.979  0.00  0.00    +0.140 A 
ATOM      3  C   UNL     1      -0.794   1.138  25.644  0.00  0.00    +0.031 A 
ATOM      4  C   UNL     1      -1.233   0.445  25.553  0.00  0.00    +0.019 A 
ATOM      5  C   UNL     1      -1.396   0.155  24.798  0.00  0.00    +0.075 A 
ATOM     33  C   UNL     1      -1.121   0.559  24.134  0.00  0.00    +0.019 A 
ATOM     34  C   UNL     1      -0.683   1.252  24.223  0.00  0.00    +0.031 A 
ENDBRANCH   6   5
BRANCH  18  19
ATOM     19  N   UNL     1      -2.600   0.897  24.754  0.00  0.00    -0.174 NA
ATOM     20  C   UNL     1      -3.132   1.526  24.758  0.00  0.00    +0.250 C 
ATOM     21  O   UNL     1      -3.941   1.383  24.680  0.00  0.00    -0.273 OA
BRANCH  20  22
ATOM     22  C   UNL     1      -2.856   2.300  24.841  0.00  0.00    +0.113 C 
BRANCH  22  23
ATOM     23  C   UNL     1      -3.390   2.927  24.876  0.00  0.00    -0.013 A 
ATOM     24  C   UNL     1      -3.625   3.309  24.184  0.00  0.00    -0.004 A 
ATOM     25  C   UNL     1      -4.159   3.936  24.219  0.00  0.00    -0.000 A 
ATOM     26  C   UNL     1      -4.459   4.182  24.948  0.00  0.00    -0.000 A 
ATOM     27  C   UNL     1      -4.225   3.800  25.640  0.00  0.00    -0.000 A 
ATOM     28  C   UNL     1      -3.690   3.173  25.605  0.00  0.00    -0.004 A 
ENDBRANCH  22  23
ENDBRANCH  20  22
ENDBRANCH  18  19
TORSDOF 4
ENDMDL
MODEL 4
REMARK VINA RESULT:     -15.2      1.387      4.392
REMARK  Name = 
REMARK  4 active torsions:
REMARK  status: ('A' for Active; 'I' for Inactive)
REMARK    1  A    between atoms: C_5  and  N_6
REMARK    2  A    between atoms: C_18  and  N_19
REMARK    3  A    between atoms: C_20  and  C_22
REMARK    4  A    between atoms: C_22  and  C_23
REMARK                            x       y       z     vdW  Elec       q    Type
REMARK                         _______ _______ _______ _____ _____    ______ ____
ROOT
ATOM      6  N   UNL     1      -3.432  -0.154  24.587  0.00  0.00    -0.162 NA
ATOM      7  C   UNL     1      -3.792  -0.883  24.444  0.00  0.00    +0.327 C 
ATOM      8  O   UNL     1      -4.598  -0.918  24.271  0.00  0.00    -0.250 OA
ATOM      9  N   UNL     1      -3.347  -1.577  24.476  0.00  0.00    -0.262 N 
ATOM     10  C   UNL     1      -3.172  -2.393  24.440  0.00  0.00    +0.097 C 
ATOM     11  C   UNL     1      -2.206  -2.365  24.647  0.00  0.00    +0.043 C 
ATOM     12  C   UNL     1      -1.420  -2.511  24.800  0.00  0.00    +0.011 C 
ATOM     13  C   UNL     1      -1.846  -1.955  24.760  0.00  0.00    +0.058 C 
ATOM     14  C   UNL     1      -2.779  -1.999  24.559  0.00  0.00    +0.101 C 
ATOM     15  C   UNL     1      -1.846  -1.040  24.843  0.00  0.00    +0.041 A 
ATOM     16  C   UNL     1      -1.338  -0.412  25.007  0.00  0.00    +0.014 A 
ATOM     17  C   UNL     1      -1.627   0.361  25.016  0.00  0.00    +0.023 A 
ATOM     18  C   UNL     1      -2.424   0.505  24.860  0.00  0.00    +0.129 A 
ATOM     29  C   UNL     1      -2.933  -0.123  24.695  0.00  0.00    +0.276 A 
ATOM     30  O   UNL     1      -3.503   0.469  24.628  0.00  0.00    -0.266 OA
ATOM     31  N   UNL     1      -2.644  -0.896  24.687  0.00  0.00    -0.298 N 
ATOM     32  C   UNL     1      -2.217  -1.409  24.731  0.00  0.00    +0.110 C 
ENDROOT
BRANCH   6   5
ATOM      1  F   UNL     1      -5.216   2.619  24.461  0.00  0.00    -0.204 F 
ATOM      2  C   UNL     1      -4.770   1.926  24.493  0.00  0.00    +0.140 A 
ATOM      3  C   UNL     1      -4.726   1.495  25.194  0.00  0.00    +0.031 A 
ATOM      4  C   UNL     1      -4.280   0.801  25.226  0.00  0.00    +0.019 A 
ATOM      5  C   UNL     1      -3.877   0.539  24.555  0.00  0.00    +0.075 A 
ATOM     33  C   UNL     1      -3.922   0.970  23.853  0.00  0.00    +0.019 A 
ATOM     34  C   UNL     1      -4.367   1.663  23.821  0.00  0.00    +0.031 A 
ENDBRANCH   6   5
BRANCH  18  19
ATOM     19  N   UNL     1      -2.713   1.278  24.868  0.00  0.00    -0.174 NA
ATOM     20  C   UNL     1      -2.205   1.906  25.037  0.00  0.00    +0.250 C 
ATOM     21  O   UNL     1      -1.409   1.761  25.198  0.00  0.00    -0.273 OA
BRANCH  20  22
ATOM     22  C   UNL     1      -2.494   2.679  25.046  0.00  0.00    +0.113 C 
BRANCH  22  23
ATOM     23  C   UNL     1      -1.970   3.315  25.059  0.00  0.00    -0.013 A 
ATOM     24  C   UNL     1      -2.008   3.869  25.670  0.00  0.00    -0.004 A 
ATOM     25  C   UNL     1      -1.483   4.505  25.683  0.00  0.00    -0.000 A 
ATOM     26  C   UNL     1      -0.920   4.588  25.086  0.00  0.00    -0.000 A 
ATOM     27  C   UNL     1      -0.882   4.035  24.475  0.00  0.00    -0.000 A 
ATOM     28  C   UNL     1      -1.406   3.398  24.462  0.00  0.00    -0.004 A 
ENDBRANCH  22  23
ENDBRANCH  20  22
ENDBRANCH  18  19
TORSDOF 4
ENDMDL
