MODEL 1
REMARK VINA RESULT:      -9.7      0.000      0.000
REMARK  Name = 
REMARK  8 active torsions:
REMARK  status: ('A' for Active; 'I' for Inactive)
REMARK    1  A    between atoms: C_2  and  O_3
REMARK    2  A    between atoms: O_3  and  C_4
REMARK    3  A    between atoms: C_4  and  C_6
REMARK    4  A    between atoms: C_9  and  N_10
REMARK    5  A    between atoms: C_18  and  C_19
REMARK    6  A    between atoms: C_21  and  C_24
REMARK    7  A    between atoms: C_27  and  O_28
REMARK    8  A    between atoms: O_28  and  C_29
REMARK                            x       y       z     vdW  Elec       q    Type
REMARK                         _______ _______ _______ _____ _____    ______ ____
ROOT
ATOM     10  N   UNL     1      -1.141   1.901  23.128  0.00  0.00    -0.162 NA
ATOM     11  C   UNL     1      -0.625   1.263  23.220  0.00  0.00    +0.328 C 
ATOM     12  O   UNL     1       0.045   1.204  22.742  0.00  0.00    -0.250 OA
ATOM     13  N   UNL     1      -0.780   0.687  23.788  0.00  0.00    -0.249 N 
ATOM     14  C   UNL     1      -1.449   0.747  24.265  0.00  0.00    +0.143 C 
ATOM     15  C   UNL     1      -1.605   0.170  24.834  0.00  0.00    +0.094 A 
ATOM     16  C   UNL     1      -1.089  -0.468  24.926  0.00  0.00    +0.078 A 
ATOM     17  C   UNL     1      -0.418  -0.528  24.449  0.00  0.00    +0.077 C 
ATOM     18  C   UNL     1      -0.264   0.049  23.880  0.00  0.00    +0.162 C 
ATOM     35  N   UNL     1      -1.382  -0.948  25.528  0.00  0.00    -0.227 NA
ATOM     36  C   UNL     1      -2.079  -0.609  25.809  0.00  0.00    +0.198 A 
ATOM     37  N   UNL     1      -2.216   0.082  25.380  0.00  0.00    -0.225 NA
ENDROOT
BRANCH  10   9
ATOM      6  C   UNL     1      -3.152   2.083  24.560  0.00  0.00    +0.076 A 
ATOM      7  C   UNL     1      -2.439   2.419  24.804  0.00  0.00    +0.008 A 
ATOM      8  C   UNL     1      -1.768   2.358  24.327  0.00  0.00    +0.017 A 
ATOM      9  C   UNL     1      -1.811   1.961  23.605  0.00  0.00    +0.075 A 
ATOM     38  C   UNL     1      -2.524   1.626  23.360  0.00  0.00    +0.017 A 
ATOM     39  C   UNL     1      -3.194   1.687  23.837  0.00  0.00    +0.008 A 
BRANCH   6   4
ATOM      4  C   UNL     1      -3.821   2.145  25.037  0.00  0.00    +0.341 C 
ATOM      5  O   UNL     1      -3.782   2.552  25.753  0.00  0.00    -0.245 OA
BRANCH   4   3
ATOM      3  O   UNL     1      -4.531   1.798  24.798  0.00  0.00    -0.445 OA
BRANCH   3   2
ATOM      1  C   UNL     1      -5.930   1.580  24.994  0.00  0.00    +0.051 C 
ATOM      2  C   UNL     1      -5.222   1.932  25.229  0.00  0.00    +0.209 C 
ENDBRANCH   3   2
ENDBRANCH   4   3
ENDBRANCH   6   4
ENDBRANCH  10   9
BRANCH  18  19
ATOM     19  C   UNL     1       0.406  -0.011  23.403  0.00  0.00    +0.255 A 
ATOM     20  N   UNL     1       1.180   0.167  23.627  0.00  0.00    -0.189 NA
ATOM     21  C   UNL     1       1.673   0.028  22.980  0.00  0.00    +0.203 A 
ATOM     22  N   UNL     1       1.204  -0.238  22.356  0.00  0.00    -0.056 NA
ATOM     23  O   UNL     1       0.421  -0.262  22.617  0.00  0.00    -0.335 OA
BRANCH  21  24
ATOM     24  C   UNL     1       2.490   0.134  22.962  0.00  0.00    +0.039 A 
ATOM     25  C   UNL     1       2.993  -0.496  23.135  0.00  0.00    +0.006 A 
ATOM     26  C   UNL     1       3.811  -0.389  23.116  0.00  0.00    +0.037 A 
ATOM     27  C   UNL     1       4.126   0.349  22.925  0.00  0.00    +0.147 A 
ATOM     33  C   UNL     1       3.623   0.980  22.752  0.00  0.00    +0.037 A 
ATOM     34  C   UNL     1       2.805   0.873  22.771  0.00  0.00    +0.006 A 
BRANCH  27  28
ATOM     28  O   UNL     1       4.944   0.457  22.906  0.00  0.00    -0.404 OA
BRANCH  28  29
ATOM     29  C   UNL     1       5.407   0.205  23.540  0.00  0.00    +0.575 C 
ATOM     30  F   UNL     1       5.870  -0.047  24.174  0.00  0.00    -0.133 F 
ATOM     31  F   UNL     1       5.595  -0.484  23.128  0.00  0.00    -0.133 F 
ATOM     32  F   UNL     1       5.219   0.894  23.952  0.00  0.00    -0.133 F 
ENDBRANCH  28  29
ENDBRANCH  27  28
ENDBRANCH  21  24
ENDBRANCH  18  19
TORSDOF 8
ENDMDL
MODEL 2
REMARK VINA RESULT:      -9.0      1.183      1.579
REMARK  Name = 
REMARK  8 active torsions:
REMARK  status: ('A' for Active; 'I' for Inactive)
REMARK    1  A    between atoms: C_2  and  O_3
REMARK    2  A    between atoms: O_3  and  C_4
REMARK    3  A    between atoms: C_4  and  C_6
REMARK    4  A    between atoms: C_9  and  N_10
REMARK    5  A    between atoms: C_18  and  C_19
REMARK    6  A    between atoms: C_21  and  C_24
REMARK    7  A    between atoms: C_27  and  O_28
REMARK    8  A    between atoms: O_28  and  C_29
REMARK                            x       y       z     vdW  Elec       q    Type
REMARK                         _______ _______ _______ _____ _____    ______ ____
ROOT
ATOM     10  N   UNL     1      -2.122   1.109  23.004  0.00  0.00    -0.162 NA
ATOM     11  C   UNL     1      -1.358   1.062  23.313  0.00  0.00    +0.328 C 
ATOM     12  O   UNL     1      -0.787   0.603  22.933  0.00  0.00    -0.250 OA
ATOM     13  N   UNL     1      -1.166   1.473  24.001  0.00  0.00    -0.249 N 
ATOM     14  C   UNL     1      -1.737   1.932  24.380  0.00  0.00    +0.143 C 
ATOM     15  C   UNL     1      -1.545   2.344  25.069  0.00  0.00    +0.094 A 
ATOM     16  C   UNL     1      -0.782   2.297  25.378  0.00  0.00    +0.078 A 
ATOM     17  C   UNL     1      -0.210   1.838  24.999  0.00  0.00    +0.077 C 
ATOM     18  C   UNL     1      -0.403   1.426  24.311  0.00  0.00    +0.162 C 
ATOM     35  N   UNL     1      -0.754   2.760  26.060  0.00  0.00    -0.227 NA
ATOM     36  C   UNL     1      -1.500   3.094  26.172  0.00  0.00    +0.198 A 
ATOM     37  N   UNL     1      -1.988   2.837  25.559  0.00  0.00    -0.225 NA
ENDROOT
BRANCH  10   9
ATOM      6  C   UNL     1      -3.836   2.487  24.139  0.00  0.00    +0.076 A 
ATOM      7  C   UNL     1      -3.353   2.823  23.560  0.00  0.00    +0.008 A 
ATOM      8  C   UNL     1      -2.781   2.363  23.181  0.00  0.00    +0.017 A 
ATOM      9  C   UNL     1      -2.693   1.568  23.382  0.00  0.00    +0.075 A 
ATOM     38  C   UNL     1      -3.175   1.232  23.961  0.00  0.00    +0.017 A 
ATOM     39  C   UNL     1      -3.746   1.691  24.339  0.00  0.00    +0.008 A 
BRANCH   6   4
ATOM      4  C   UNL     1      -4.407   2.946  24.517  0.00  0.00    +0.341 C 
ATOM      5  O   UNL     1      -4.440   3.759  24.380  0.00  0.00    -0.245 OA
BRANCH   4   3
ATOM      3  O   UNL     1      -4.945   2.593  25.032  0.00  0.00    -0.445 OA
BRANCH   3   2
ATOM      1  C   UNL     1      -5.946   2.716  26.045  0.00  0.00    +0.051 C 
ATOM      2  C   UNL     1      -5.467   3.060  25.469  0.00  0.00    +0.209 C 
ENDBRANCH   3   2
ENDBRANCH   4   3
ENDBRANCH   6   4
ENDBRANCH  10   9
BRANCH  18  19
ATOM     19  C   UNL     1       0.168   0.967  23.932  0.00  0.00    +0.255 A 
ATOM     20  N   UNL     1       0.960   1.170  23.824  0.00  0.00    -0.189 NA
ATOM     21  C   UNL     1       1.330   0.552  23.420  0.00  0.00    +0.203 A 
ATOM     22  N   UNL     1       0.766  -0.032  23.278  0.00  0.00    -0.056 NA
ATOM     23  O   UNL     1       0.047   0.224  23.594  0.00  0.00    -0.335 OA
BRANCH  21  24
ATOM     24  C   UNL     1       2.124   0.525  23.197  0.00  0.00    +0.039 A 
ATOM     25  C   UNL     1       2.554   1.224  23.118  0.00  0.00    +0.006 A 
ATOM     26  C   UNL     1       3.349   1.195  22.895  0.00  0.00    +0.037 A 
ATOM     27  C   UNL     1       3.711   0.469  22.751  0.00  0.00    +0.147 A 
ATOM     33  C   UNL     1       3.280  -0.230  22.830  0.00  0.00    +0.037 A 
ATOM     34  C   UNL     1       2.486  -0.203  23.053  0.00  0.00    +0.006 A 
BRANCH  27  28
ATOM     28  O   UNL     1       4.505   0.441  22.528  0.00  0.00    -0.404 OA
BRANCH  28  29
ATOM     29  C   UNL     1       5.092   0.365  23.103  0.00  0.00    +0.575 C 
ATOM     30  F   UNL     1       5.678   0.289  23.678  0.00  0.00    -0.133 F 
ATOM     31  F   UNL     1       5.111  -0.450  22.976  0.00  0.00    -0.133 F 
ATOM     32  F   UNL     1       5.073   1.179  23.230  0.00  0.00    -0.133 F 
ENDBRANCH  28  29
ENDBRANCH  27  28
ENDBRANCH  21  24
ENDBRANCH  18  19
TORSDOF 8
ENDMDL
MODEL 3
REMARK VINA RESULT:      -9.0      0.969      1.891
REMARK  Name = 
REMARK  8 active torsions:
REMARK  status: ('A' for Active; 'I' for Inactive)
REMARK    1  A    between atoms: C_2  and  O_3
REMARK    2  A    between atoms: O_3  and  C_4
REMARK    3  A    between atoms: C_4  and  C_6
REMARK    4  A    between atoms: C_9  and  N_10
REMARK    5  A    between atoms: C_18  and  C_19
REMARK    6  A    between atoms: C_21  and  C_24
REMARK    7  A    between atoms: C_27  and  O_28
REMARK    8  A    between atoms: O_28  and  C_29
REMARK                            x       y       z     vdW  Elec       q    Type
REMARK                         _______ _______ _______ _____ _____    ______ ____
ROOT
ATOM     10  N   UNL     1      -0.991  -1.249  24.071  0.00  0.00    -0.162 NA
ATOM     11  C   UNL     1      -0.447  -0.702  23.779  0.00  0.00    +0.328 C 
ATOM     12  O   UNL     1       0.248  -0.965  23.420  0.00  0.00    -0.250 OA
ATOM     13  N   UNL     1      -0.596   0.105  23.847  0.00  0.00    -0.249 N 
ATOM     14  C   UNL     1      -1.291   0.367  24.207  0.00  0.00    +0.143 C 
ATOM     15  C   UNL     1      -1.441   1.176  24.275  0.00  0.00    +0.094 A 
ATOM     16  C   UNL     1      -0.896   1.722  23.983  0.00  0.00    +0.078 A 
ATOM     17  C   UNL     1      -0.201   1.460  23.623  0.00  0.00    +0.077 C 
ATOM     18  C   UNL     1      -0.052   0.652  23.556  0.00  0.00    +0.162 C 
ATOM     35  N   UNL     1      -1.191   2.478  24.127  0.00  0.00    -0.227 NA
ATOM     36  C   UNL     1      -1.918   2.400  24.508  0.00  0.00    +0.198 A 
ATOM     37  N   UNL     1      -2.072   1.595  24.599  0.00  0.00    -0.225 NA
ENDROOT
BRANCH  10   9
ATOM      6  C   UNL     1      -3.076  -0.465  25.151  0.00  0.00    +0.076 A 
ATOM      7  C   UNL     1      -2.393  -0.572  25.601  0.00  0.00    +0.008 A 
ATOM      8  C   UNL     1      -1.697  -0.834  25.241  0.00  0.00    +0.017 A 
ATOM      9  C   UNL     1      -1.686  -0.988  24.431  0.00  0.00    +0.075 A 
ATOM     38  C   UNL     1      -2.369  -0.880  23.980  0.00  0.00    +0.017 A 
ATOM     39  C   UNL     1      -3.063  -0.619  24.341  0.00  0.00    +0.008 A 
BRANCH   6   4
ATOM      4  C   UNL     1      -3.770  -0.204  25.511  0.00  0.00    +0.341 C 
ATOM      5  O   UNL     1      -3.942  -0.426  26.287  0.00  0.00    -0.245 OA
BRANCH   4   3
ATOM      3  O   UNL     1      -4.293   0.280  25.096  0.00  0.00    -0.445 OA
BRANCH   3   2
ATOM      1  C   UNL     1      -5.405   1.179  25.116  0.00  0.00    +0.051 C 
ATOM      2  C   UNL     1      -4.969   0.573  25.468  0.00  0.00    +0.209 C 
ENDBRANCH   3   2
ENDBRANCH   4   3
ENDBRANCH   6   4
ENDBRANCH  10   9
BRANCH  18  19
ATOM     19  C   UNL     1       0.643   0.391  23.196  0.00  0.00    +0.255 A 
ATOM     20  N   UNL     1       1.412   0.572  23.434  0.00  0.00    -0.189 NA
ATOM     21  C   UNL     1       1.935   0.195  22.920  0.00  0.00    +0.203 A 
ATOM     22  N   UNL     1       1.490  -0.220  22.363  0.00  0.00    -0.056 NA
ATOM     23  O   UNL     1       0.691  -0.100  22.534  0.00  0.00    -0.335 OA
BRANCH  21  24
ATOM     24  C   UNL     1       2.759   0.228  22.956  0.00  0.00    +0.039 A 
ATOM     25  C   UNL     1       3.152   0.932  22.781  0.00  0.00    +0.006 A 
ATOM     26  C   UNL     1       3.976   0.963  22.818  0.00  0.00    +0.037 A 
ATOM     27  C   UNL     1       4.405   0.292  23.029  0.00  0.00    +0.147 A 
ATOM     33  C   UNL     1       4.012  -0.411  23.204  0.00  0.00    +0.037 A 
ATOM     34  C   UNL     1       3.189  -0.444  23.168  0.00  0.00    +0.006 A 
BRANCH  27  28
ATOM     28  O   UNL     1       5.230   0.324  23.066  0.00  0.00    -0.404 OA
BRANCH  28  29
ATOM     29  C   UNL     1       5.618   0.129  23.767  0.00  0.00    +0.575 C 
ATOM     30  F   UNL     1       6.007  -0.066  24.467  0.00  0.00    -0.133 F 
ATOM     31  F   UNL     1       5.749  -0.633  23.481  0.00  0.00    -0.133 F 
ATOM     32  F   UNL     1       5.487   0.892  24.052  0.00  0.00    -0.133 F 
ENDBRANCH  28  29
ENDBRANCH  27  28
ENDBRANCH  21  24
ENDBRANCH  18  19
TORSDOF 8
ENDMDL
