MODEL 1
REMARK VINA RESULT:      -8.5      0.000      0.000
REMARK  Name = 
REMARK  7 active torsions:
REMARK  status: ('A' for Active; 'I' for Inactive)
REMARK    1  A    between atoms: O_2  and  C_3
REMARK    2  A    between atoms: C_6  and  C_7
REMARK    3  A    between atoms: C_7  and  N_8
REMARK    4  A    between atoms: N_8  and  C_9
REMARK    5  A    between atoms: C_12  and  C_13
REMARK    6  A    between atoms: C_13  and  N_14
REMARK    7  A    between atoms: C_15  and  C_17
REMARK                            x       y       z     vdW  Elec       q    Type
REMARK                         _______ _______ _______ _____ _____    ______ ____
ROOT
ATOM      9  C   UNL     1      -0.982   0.192  25.036  0.00  0.00    +0.135 C 
ATOM     10  C   UNL     1      -0.832   0.445  25.806  0.00  0.00    +0.162 C 
ATOM     11  O   UNL     1      -0.591   1.234  25.774  0.00  0.00    -0.350 OA
ATOM     12  C   UNL     1      -0.593   1.469  24.983  0.00  0.00    +0.169 C 
ATOM     22  C   UNL     1      -0.835   0.825  24.526  0.00  0.00    +0.199 C 
ATOM     23  O   UNL     1      -0.915   0.816  23.706  0.00  0.00    -0.219 OA
ENDROOT
BRANCH   9   8
ATOM      8  N   UNL     1      -1.235  -0.560  24.813  0.00  0.00    -0.209 NA
BRANCH   8   7
ATOM      7  C   UNL     1      -1.640  -1.035  25.351  0.00  0.00    +0.115 C 
BRANCH   7   6
ATOM      3  C   UNL     1      -3.350  -2.634  24.549  0.00  0.00    +0.139 A 
ATOM      4  C   UNL     1      -3.573  -1.998  25.025  0.00  0.00    +0.037 A 
ATOM      5  C   UNL     1      -3.002  -1.465  25.293  0.00  0.00    +0.000 A 
ATOM      6  C   UNL     1      -2.210  -1.568  25.084  0.00  0.00    -0.005 A 
ATOM     24  C   UNL     1      -1.990  -2.205  24.608  0.00  0.00    +0.000 A 
ATOM     25  C   UNL     1      -2.560  -2.738  24.340  0.00  0.00    +0.037 A 
BRANCH   3   2
ATOM      1  C   UNL     1      -4.421  -2.959  23.660  0.00  0.00    +0.252 C 
ATOM      2  O   UNL     1      -3.921  -3.167  24.281  0.00  0.00    -0.471 OA
ENDBRANCH   3   2
ENDBRANCH   7   6
ENDBRANCH   8   7
ENDBRANCH   9   8
BRANCH  12  13
ATOM     13  C   UNL     1      -0.390   2.216  24.698  0.00  0.00    +0.148 C 
BRANCH  13  14
ATOM     14  N   UNL     1      -0.821   2.878  24.933  0.00  0.00    -0.199 NA
ATOM     15  C   UNL     1      -0.625   3.624  24.638  0.00  0.00    +0.271 C 
ATOM     16  O   UNL     1       0.002   3.705  24.108  0.00  0.00    -0.268 OA
BRANCH  15  17
ATOM     17  C   UNL     1      -1.056   4.286  24.873  0.00  0.00    +0.084 A 
ATOM     18  C   UNL     1      -0.828   5.073  24.775  0.00  0.00    +0.012 A 
ATOM     19  C   UNL     1      -1.422   5.552  25.089  0.00  0.00    +0.008 A 
ATOM     20  C   UNL     1      -2.017   5.061  25.381  0.00  0.00    +0.036 A 
ATOM     21  S   UNL     1      -1.791   4.279  25.248  0.00  0.00    -0.082 S 
ENDBRANCH  15  17
ENDBRANCH  13  14
ENDBRANCH  12  13
TORSDOF 7
ENDMDL
MODEL 2
REMARK VINA RESULT:      -8.3      2.458      6.202
REMARK  Name = 
REMARK  7 active torsions:
REMARK  status: ('A' for Active; 'I' for Inactive)
REMARK    1  A    between atoms: O_2  and  C_3
REMARK    2  A    between atoms: C_6  and  C_7
REMARK    3  A    between atoms: C_7  and  N_8
REMARK    4  A    between atoms: N_8  and  C_9
REMARK    5  A    between atoms: C_12  and  C_13
REMARK    6  A    between atoms: C_13  and  N_14
REMARK    7  A    between atoms: C_15  and  C_17
REMARK                            x       y       z     vdW  Elec       q    Type
REMARK                         _______ _______ _______ _____ _____    ______ ____
ROOT
ATOM      9  C   UNL     1      -4.021   1.878  24.750  0.00  0.00    +0.135 C 
ATOM     10  C   UNL     1      -4.540   1.608  25.332  0.00  0.00    +0.162 C 
ATOM     11  O   UNL     1      -4.711   0.816  25.173  0.00  0.00    -0.350 OA
ATOM     12  C   UNL     1      -4.298   0.597  24.493  0.00  0.00    +0.169 C 
ATOM     22  C   UNL     1      -3.871   1.254  24.232  0.00  0.00    +0.199 C 
ATOM     23  O   UNL     1      -3.381   1.281  23.569  0.00  0.00    -0.219 OA
ENDROOT
BRANCH   9   8
ATOM      8  N   UNL     1      -3.707   2.639  24.697  0.00  0.00    -0.209 NA
BRANCH   8   7
ATOM      7  C   UNL     1      -3.476   3.039  25.380  0.00  0.00    +0.115 C 
BRANCH   7   6
ATOM      3  C   UNL     1      -1.732   4.791  25.258  0.00  0.00    +0.139 A 
ATOM      4  C   UNL     1      -2.469   4.918  24.910  0.00  0.00    +0.037 A 
ATOM      5  C   UNL     1      -3.050   4.334  24.950  0.00  0.00    +0.000 A 
ATOM      6  C   UNL     1      -2.895   3.623  25.339  0.00  0.00    -0.005 A 
ATOM     24  C   UNL     1      -2.157   3.496  25.687  0.00  0.00    +0.000 A 
ATOM     25  C   UNL     1      -1.576   4.080  25.646  0.00  0.00    +0.037 A 
BRANCH   3   2
ATOM      1  C   UNL     1      -0.559   5.329  24.645  0.00  0.00    +0.252 C 
ATOM      2  O   UNL     1      -1.151   5.375  25.217  0.00  0.00    -0.471 OA
ENDBRANCH   3   2
ENDBRANCH   7   6
ENDBRANCH   8   7
ENDBRANCH   9   8
BRANCH  12  13
ATOM     13  C   UNL     1      -4.309  -0.146  24.137  0.00  0.00    +0.148 C 
BRANCH  13  14
ATOM     14  N   UNL     1      -3.838  -0.754  24.435  0.00  0.00    -0.199 NA
ATOM     15  C   UNL     1      -3.882  -1.510  24.106  0.00  0.00    +0.271 C 
ATOM     16  O   UNL     1      -4.397  -1.657  23.479  0.00  0.00    -0.268 OA
BRANCH  15  17
ATOM     17  C   UNL     1      -3.410  -2.116  24.405  0.00  0.00    +0.084 A 
ATOM     18  C   UNL     1      -3.677  -2.779  24.817  0.00  0.00    +0.012 A 
ATOM     19  C   UNL     1      -3.021  -3.241  25.012  0.00  0.00    +0.008 A 
ATOM     20  C   UNL     1      -2.348  -2.863  24.720  0.00  0.00    +0.036 A 
ATOM     21  S   UNL     1      -2.589  -2.168  24.345  0.00  0.00    -0.082 S 
ENDBRANCH  15  17
ENDBRANCH  13  14
ENDBRANCH  12  13
TORSDOF 7
ENDMDL
MODEL 3
REMARK VINA RESULT:      -8.3      1.807      5.842
REMARK  Name = 
REMARK  7 active torsions:
REMARK  status: ('A' for Active; 'I' for Inactive)
REMARK    1  A    between atoms: O_2  and  C_3
REMARK    2  A    between atoms: C_6  and  C_7
REMARK    3  A    between atoms: C_7  and  N_8
REMARK    4  A    between atoms: N_8  and  C_9
REMARK    5  A    between atoms: C_12  and  C_13
REMARK    6  A    between atoms: C_13  and  N_14
REMARK    7  A    between atoms: C_15  and  C_17
REMARK                            x       y       z     vdW  Elec       q    Type
REMARK                         _______ _______ _______ _____ _____    ______ ____
ROOT
ATOM      9  C   UNL     1      -0.879   1.111  25.217  0.00  0.00    +0.135 C 
ATOM     10  C   UNL     1      -0.914   0.749  25.957  0.00  0.00    +0.162 C 
ATOM     11  O   UNL     1      -1.066  -0.054  25.842  0.00  0.00    -0.350 OA
ATOM     12  C   UNL     1      -1.124  -0.189  25.030  0.00  0.00    +0.169 C 
ATOM     22  C   UNL     1      -1.008   0.531  24.643  0.00  0.00    +0.199 C 
ATOM     23  O   UNL     1      -1.020   0.650  23.828  0.00  0.00    -0.219 OA
ENDROOT
BRANCH   9   8
ATOM      8  N   UNL     1      -0.738   1.911  25.074  0.00  0.00    -0.209 NA
BRANCH   8   7
ATOM      7  C   UNL     1      -0.837   2.461  25.680  0.00  0.00    +0.115 C 
BRANCH   7   6
ATOM      3  C   UNL     1      -1.232   4.843  25.135  0.00  0.00    +0.139 A 
ATOM      4  C   UNL     1      -1.830   4.396  25.488  0.00  0.00    +0.037 A 
ATOM      5  C   UNL     1      -1.698   3.602  25.670  0.00  0.00    +0.000 A 
ATOM      6  C   UNL     1      -0.969   3.255  25.498  0.00  0.00    -0.005 A 
ATOM     24  C   UNL     1      -0.372   3.703  25.145  0.00  0.00    +0.000 A 
ATOM     25  C   UNL     1      -0.504   4.497  24.964  0.00  0.00    +0.037 A 
BRANCH   3   2
ATOM      1  C   UNL     1      -2.109   5.971  25.076  0.00  0.00    +0.252 C 
ATOM      2  O   UNL     1      -1.364   5.637  24.954  0.00  0.00    -0.471 OA
ENDBRANCH   3   2
ENDBRANCH   7   6
ENDBRANCH   8   7
ENDBRANCH   9   8
BRANCH  12  13
ATOM     13  C   UNL     1      -1.272  -0.915  24.669  0.00  0.00    +0.148 C 
BRANCH  13  14
ATOM     14  N   UNL     1      -2.043  -1.201  24.617  0.00  0.00    -0.199 NA
ATOM     15  C   UNL     1      -2.180  -1.977  24.373  0.00  0.00    +0.271 C 
ATOM     16  O   UNL     1      -1.545  -2.466  24.180  0.00  0.00    -0.268 OA
BRANCH  15  17
ATOM     17  C   UNL     1      -2.952  -2.262  24.322  0.00  0.00    +0.084 A 
ATOM     18  C   UNL     1      -3.593  -1.867  23.985  0.00  0.00    +0.012 A 
ATOM     19  C   UNL     1      -4.257  -2.352  24.053  0.00  0.00    +0.008 A 
ATOM     20  C   UNL     1      -4.027  -3.048  24.431  0.00  0.00    +0.036 A 
ATOM     21  S   UNL     1      -3.220  -2.992  24.597  0.00  0.00    -0.082 S 
ENDBRANCH  15  17
ENDBRANCH  13  14
ENDBRANCH  12  13
TORSDOF 7
ENDMDL
MODEL 4
REMARK VINA RESULT:      -8.3      2.150      2.492
REMARK  Name = 
REMARK  7 active torsions:
REMARK  status: ('A' for Active; 'I' for Inactive)
REMARK    1  A    between atoms: O_2  and  C_3
REMARK    2  A    between atoms: C_6  and  C_7
REMARK    3  A    between atoms: C_7  and  N_8
REMARK    4  A    between atoms: N_8  and  C_9
REMARK    5  A    between atoms: C_12  and  C_13
REMARK    6  A    between atoms: C_13  and  N_14
REMARK    7  A    between atoms: C_15  and  C_17
REMARK                            x       y       z     vdW  Elec       q    Type
REMARK                         _______ _______ _______ _____ _____    ______ ____
ROOT
ATOM      9  C   UNL     1      -4.330   1.164  24.615  0.00  0.00    +0.135 C 
ATOM     10  C   UNL     1      -4.710   1.464  25.282  0.00  0.00    +0.162 C 
ATOM     11  O   UNL     1      -4.552   2.273  25.324  0.00  0.00    -0.350 OA
ATOM     12  C   UNL     1      -4.073   2.473  24.682  0.00  0.00    +0.169 C 
ATOM     22  C   UNL     1      -3.936   1.787  24.244  0.00  0.00    +0.199 C 
ATOM     23  O   UNL     1      -3.485   1.734  23.556  0.00  0.00    -0.219 OA
ENDROOT
BRANCH   9   8
ATOM      8  N   UNL     1      -4.341   0.378  24.363  0.00  0.00    -0.209 NA
BRANCH   8   7
ATOM      7  C   UNL     1      -4.447  -0.229  24.910  0.00  0.00    +0.115 C 
BRANCH   7   6
ATOM      3  C   UNL     1      -3.523  -2.479  24.455  0.00  0.00    +0.139 A 
ATOM      4  C   UNL     1      -3.306  -2.076  25.141  0.00  0.00    +0.037 A 
ATOM      5  C   UNL     1      -3.614  -1.326  25.293  0.00  0.00    +0.000 A 
ATOM      6  C   UNL     1      -4.139  -0.979  24.758  0.00  0.00    -0.005 A 
ATOM     24  C   UNL     1      -4.355  -1.383  24.073  0.00  0.00    +0.000 A 
ATOM     25  C   UNL     1      -4.047  -2.134  23.921  0.00  0.00    +0.037 A 
BRANCH   3   2
ATOM      1  C   UNL     1      -2.411  -3.322  24.144  0.00  0.00    +0.252 C 
ATOM      2  O   UNL     1      -3.215  -3.230  24.303  0.00  0.00    -0.471 OA
ENDBRANCH   3   2
ENDBRANCH   7   6
ENDBRANCH   8   7
ENDBRANCH   9   8
BRANCH  12  13
ATOM     13  C   UNL     1      -3.783   3.225  24.509  0.00  0.00    +0.148 C 
BRANCH  13  14
ATOM     14  N   UNL     1      -3.002   3.418  24.688  0.00  0.00    -0.199 NA
ATOM     15  C   UNL     1      -2.776   4.209  24.751  0.00  0.00    +0.271 C 
ATOM     16  O   UNL     1      -3.332   4.807  24.634  0.00  0.00    -0.268 OA
BRANCH  15  17
ATOM     17  C   UNL     1      -1.994   4.401  24.930  0.00  0.00    +0.084 A 
ATOM     18  C   UNL     1      -1.646   5.144  24.846  0.00  0.00    +0.012 A 
ATOM     19  C   UNL     1      -0.860   5.087  25.089  0.00  0.00    +0.008 A 
ATOM     20  C   UNL     1      -0.721   4.307  25.323  0.00  0.00    +0.036 A 
ATOM     21  S   UNL     1      -1.423   3.884  25.225  0.00  0.00    -0.082 S 
ENDBRANCH  15  17
ENDBRANCH  13  14
ENDBRANCH  12  13
TORSDOF 7
ENDMDL
MODEL 5
REMARK VINA RESULT:      -7.9      3.168      4.577
REMARK  Name = 
REMARK  7 active torsions:
REMARK  status: ('A' for Active; 'I' for Inactive)
REMARK    1  A    between atoms: O_2  and  C_3
REMARK    2  A    between atoms: C_6  and  C_7
REMARK    3  A    between atoms: C_7  and  N_8
REMARK    4  A    between atoms: N_8  and  C_9
REMARK    5  A    between atoms: C_12  and  C_13
REMARK    6  A    between atoms: C_13  and  N_14
REMARK    7  A    between atoms: C_15  and  C_17
REMARK                            x       y       z     vdW  Elec       q    Type
REMARK                         _______ _______ _______ _____ _____    ______ ____
ROOT
ATOM      9  C   UNL     1      -1.239   1.352  23.837  0.00  0.00    +0.135 C 
ATOM     10  C   UNL     1      -1.400   1.220  24.635  0.00  0.00    +0.162 C 
ATOM     11  O   UNL     1      -2.126   1.572  24.811  0.00  0.00    -0.350 OA
ATOM     12  C   UNL     1      -2.413   1.922  24.121  0.00  0.00    +0.169 C 
ATOM     22  C   UNL     1      -1.865   1.786  23.519  0.00  0.00    +0.199 C 
ATOM     23  O   UNL     1      -1.930   2.040  22.737  0.00  0.00    -0.219 OA
ENDROOT
BRANCH   9   8
ATOM      8  N   UNL     1      -0.569   1.096  23.429  0.00  0.00    -0.209 NA
BRANCH   8   7
ATOM      7  C   UNL     1       0.006   0.652  23.818  0.00  0.00    +0.115 C 
BRANCH   7   6
ATOM      3  C   UNL     1       2.189   0.230  22.729  0.00  0.00    +0.139 A 
ATOM      4  C   UNL     1       1.559  -0.289  22.605  0.00  0.00    +0.037 A 
ATOM      5  C   UNL     1       0.832  -0.148  22.968  0.00  0.00    +0.000 A 
ATOM      6  C   UNL     1       0.734   0.512  23.455  0.00  0.00    -0.005 A 
ATOM     24  C   UNL     1       1.364   1.030  23.578  0.00  0.00    +0.000 A 
ATOM     25  C   UNL     1       2.091   0.889  23.215  0.00  0.00    +0.037 A 
BRANCH   3   2
ATOM      1  C   UNL     1       3.585   0.509  22.606  0.00  0.00    +0.252 C 
ATOM      2  O   UNL     1       2.916   0.090  22.367  0.00  0.00    -0.471 OA
ENDBRANCH   3   2
ENDBRANCH   7   6
ENDBRANCH   8   7
ENDBRANCH   9   8
BRANCH  12  13
ATOM     13  C   UNL     1      -3.123   2.335  24.046  0.00  0.00    +0.148 C 
BRANCH  13  14
ATOM     14  N   UNL     1      -3.759   2.155  24.539  0.00  0.00    -0.199 NA
ATOM     15  C   UNL     1      -4.441   2.620  24.518  0.00  0.00    +0.271 C 
ATOM     16  O   UNL     1      -4.486   3.263  24.005  0.00  0.00    -0.268 OA
BRANCH  15  17
ATOM     17  C   UNL     1      -5.077   2.439  25.011  0.00  0.00    +0.084 A 
ATOM     18  C   UNL     1      -5.595   1.803  24.920  0.00  0.00    +0.012 A 
ATOM     19  C   UNL     1      -6.145   1.832  25.534  0.00  0.00    +0.008 A 
ATOM     20  C   UNL     1      -5.967   2.487  26.005  0.00  0.00    +0.036 A 
ATOM     21  S   UNL     1      -5.307   2.861  25.681  0.00  0.00    -0.082 S 
ENDBRANCH  15  17
ENDBRANCH  13  14
ENDBRANCH  12  13
TORSDOF 7
ENDMDL
MODEL 6
REMARK VINA RESULT:      -7.8      3.281      5.030
REMARK  Name = 
REMARK  7 active torsions:
REMARK  status: ('A' for Active; 'I' for Inactive)
REMARK    1  A    between atoms: O_2  and  C_3
REMARK    2  A    between atoms: C_6  and  C_7
REMARK    3  A    between atoms: C_7  and  N_8
REMARK    4  A    between atoms: N_8  and  C_9
REMARK    5  A    between atoms: C_12  and  C_13
REMARK    6  A    between atoms: C_13  and  N_14
REMARK    7  A    between atoms: C_15  and  C_17
REMARK                            x       y       z     vdW  Elec       q    Type
REMARK                         _______ _______ _______ _____ _____    ______ ____
ROOT
ATOM      9  C   UNL     1      -0.738   1.902  24.309  0.00  0.00    +0.135 C 
ATOM     10  C   UNL     1      -0.053   2.295  24.547  0.00  0.00    +0.162 C 
ATOM     11  O   UNL     1       0.596   1.887  24.241  0.00  0.00    -0.350 OA
ATOM     12  C   UNL     1       0.311   1.241  23.814  0.00  0.00    +0.169 C 
ATOM     22  C   UNL     1      -0.513   1.250  23.856  0.00  0.00    +0.199 C 
ATOM     23  O   UNL     1      -1.022   0.704  23.506  0.00  0.00    -0.219 OA
ENDROOT
BRANCH   9   8
ATOM      8  N   UNL     1      -1.512   2.122  24.492  0.00  0.00    -0.209 NA
BRANCH   8   7
ATOM      7  C   UNL     1      -1.699   2.917  24.601  0.00  0.00    +0.115 C 
BRANCH   7   6
ATOM      3  C   UNL     1      -4.017   3.575  25.167  0.00  0.00    +0.139 A 
ATOM      4  C   UNL     1      -3.850   3.252  24.426  0.00  0.00    +0.037 A 
ATOM      5  C   UNL     1      -3.077   3.032  24.237  0.00  0.00    +0.000 A 
ATOM      6  C   UNL     1      -2.472   3.136  24.789  0.00  0.00    -0.005 A 
ATOM     24  C   UNL     1      -2.640   3.460  25.529  0.00  0.00    +0.000 A 
ATOM     25  C   UNL     1      -3.413   3.679  25.718  0.00  0.00    +0.037 A 
BRANCH   3   2
ATOM      1  C   UNL     1      -5.318   3.233  25.649  0.00  0.00    +0.252 C 
ATOM      2  O   UNL     1      -4.790   3.794  25.356  0.00  0.00    -0.471 OA
ENDBRANCH   3   2
ENDBRANCH   7   6
ENDBRANCH   8   7
ENDBRANCH   9   8
BRANCH  12  13
ATOM     13  C   UNL     1       0.770   0.683  23.415  0.00  0.00    +0.148 C 
BRANCH  13  14
ATOM     14  N   UNL     1       1.590   0.761  23.396  0.00  0.00    -0.199 NA
ATOM     15  C   UNL     1       2.037   0.298  22.879  0.00  0.00    +0.271 C 
ATOM     16  O   UNL     1       1.662  -0.242  22.381  0.00  0.00    -0.268 OA
BRANCH  15  17
ATOM     17  C   UNL     1       2.858   0.377  22.861  0.00  0.00    +0.084 A 
ATOM     18  C   UNL     1       3.275   1.051  22.633  0.00  0.00    +0.012 A 
ATOM     19  C   UNL     1       4.081   0.887  22.698  0.00  0.00    +0.008 A 
ATOM     20  C   UNL     1       4.162   0.111  22.966  0.00  0.00    +0.036 A 
ATOM     21  S   UNL     1       3.406  -0.204  23.066  0.00  0.00    -0.082 S 
ENDBRANCH  15  17
ENDBRANCH  13  14
ENDBRANCH  12  13
TORSDOF 7
ENDMDL
MODEL 7
REMARK VINA RESULT:      -7.7      3.509      5.715
REMARK  Name = 
REMARK  7 active torsions:
REMARK  status: ('A' for Active; 'I' for Inactive)
REMARK    1  A    between atoms: O_2  and  C_3
REMARK    2  A    between atoms: C_6  and  C_7
REMARK    3  A    between atoms: C_7  and  N_8
REMARK    4  A    between atoms: N_8  and  C_9
REMARK    5  A    between atoms: C_12  and  C_13
REMARK    6  A    between atoms: C_13  and  N_14
REMARK    7  A    between atoms: C_15  and  C_17
REMARK                            x       y       z     vdW  Elec       q    Type
REMARK                         _______ _______ _______ _____ _____    ______ ____
ROOT
ATOM      9  C   UNL     1       0.833   0.441  23.419  0.00  0.00    +0.135 C 
ATOM     10  C   UNL     1       0.467  -0.251  23.158  0.00  0.00    +0.162 C 
ATOM     11  O   UNL     1      -0.312  -0.247  23.430  0.00  0.00    -0.350 OA
ATOM     12  C   UNL     1      -0.428   0.448  23.859  0.00  0.00    +0.169 C 
ATOM     22  C   UNL     1       0.279   0.873  23.853  0.00  0.00    +0.199 C 
ATOM     23  O   UNL     1       0.410   1.602  24.215  0.00  0.00    -0.219 OA
ENDROOT
BRANCH   9   8
ATOM      8  N   UNL     1       1.614   0.662  23.273  0.00  0.00    -0.209 NA
BRANCH   8   7
ATOM      7  C   UNL     1       2.095   0.188  22.800  0.00  0.00    +0.115 C 
BRANCH   7   6
ATOM      3  C   UNL     1       4.557   0.317  23.017  0.00  0.00    +0.139 A 
ATOM      4  C   UNL     1       4.162  -0.381  23.213  0.00  0.00    +0.037 A 
ATOM      5  C   UNL     1       3.341  -0.424  23.141  0.00  0.00    +0.000 A 
ATOM      6  C   UNL     1       2.915   0.231  22.872  0.00  0.00    -0.005 A 
ATOM     24  C   UNL     1       3.311   0.927  22.677  0.00  0.00    +0.000 A 
ATOM     25  C   UNL     1       4.132   0.971  22.749  0.00  0.00    +0.037 A 
BRANCH   3   2
ATOM      1  C   UNL     1       5.740   0.167  23.805  0.00  0.00    +0.252 C 
ATOM      2  O   UNL     1       5.377   0.360  23.090  0.00  0.00    -0.471 OA
ENDBRANCH   3   2
ENDBRANCH   7   6
ENDBRANCH   8   7
ENDBRANCH   9   8
BRANCH  12  13
ATOM     13  C   UNL     1      -1.128   0.678  24.230  0.00  0.00    +0.148 C 
BRANCH  13  14
ATOM     14  N   UNL     1      -1.762   0.153  24.275  0.00  0.00    -0.199 NA
ATOM     15  C   UNL     1      -2.457   0.378  24.661  0.00  0.00    +0.271 C 
ATOM     16  O   UNL     1      -2.516   1.127  25.000  0.00  0.00    -0.268 OA
BRANCH  15  17
ATOM     17  C   UNL     1      -3.091  -0.148  24.706  0.00  0.00    +0.084 A 
ATOM     18  C   UNL     1      -3.697  -0.224  24.151  0.00  0.00    +0.012 A 
ATOM     19  C   UNL     1      -4.212  -0.812  24.415  0.00  0.00    +0.008 A 
ATOM     20  C   UNL     1      -3.924  -1.100  25.133  0.00  0.00    +0.036 A 
ATOM     21  S   UNL     1      -3.231  -0.689  25.312  0.00  0.00    -0.082 S 
ENDBRANCH  15  17
ENDBRANCH  13  14
ENDBRANCH  12  13
TORSDOF 7
ENDMDL
MODEL 8
REMARK VINA RESULT:      -7.7      3.479      4.574
REMARK  Name = 
REMARK  7 active torsions:
REMARK  status: ('A' for Active; 'I' for Inactive)
REMARK    1  A    between atoms: O_2  and  C_3
REMARK    2  A    between atoms: C_6  and  C_7
REMARK    3  A    between atoms: C_7  and  N_8
REMARK    4  A    between atoms: N_8  and  C_9
REMARK    5  A    between atoms: C_12  and  C_13
REMARK    6  A    between atoms: C_13  and  N_14
REMARK    7  A    between atoms: C_15  and  C_17
REMARK                            x       y       z     vdW  Elec       q    Type
REMARK                         _______ _______ _______ _____ _____    ______ ____
ROOT
ATOM      9  C   UNL     1      -0.766   1.051  24.082  0.00  0.00    +0.135 C 
ATOM     10  C   UNL     1      -0.203   1.616  24.287  0.00  0.00    +0.162 C 
ATOM     11  O   UNL     1       0.517   1.395  23.950  0.00  0.00    -0.350 OA
ATOM     12  C   UNL     1       0.398   0.692  23.535  0.00  0.00    +0.169 C 
ATOM     22  C   UNL     1      -0.395   0.479  23.616  0.00  0.00    +0.199 C 
ATOM     23  O   UNL     1      -0.754  -0.188  23.290  0.00  0.00    -0.219 OA
ENDROOT
BRANCH   9   8
ATOM      8  N   UNL     1      -1.562   1.055  24.302  0.00  0.00    -0.209 NA
BRANCH   8   7
ATOM      7  C   UNL     1      -1.926   1.763  24.516  0.00  0.00    +0.115 C 
BRANCH   7   6
ATOM      3  C   UNL     1      -4.395   1.928  24.533  0.00  0.00    +0.139 A 
ATOM      4  C   UNL     1      -3.946   2.501  24.143  0.00  0.00    +0.037 A 
ATOM      5  C   UNL     1      -3.123   2.446  24.137  0.00  0.00    +0.000 A 
ATOM      6  C   UNL     1      -2.749   1.818  24.522  0.00  0.00    -0.005 A 
ATOM     24  C   UNL     1      -3.198   1.247  24.911  0.00  0.00    +0.000 A 
ATOM     25  C   UNL     1      -4.021   1.302  24.917  0.00  0.00    +0.037 A 
BRANCH   3   2
ATOM      1  C   UNL     1      -5.615   2.169  25.237  0.00  0.00    +0.252 C 
ATOM      2  O   UNL     1      -5.218   1.983  24.538  0.00  0.00    -0.471 OA
ENDBRANCH   3   2
ENDBRANCH   7   6
ENDBRANCH   8   7
ENDBRANCH   9   8
BRANCH  12  13
ATOM     13  C   UNL     1       0.971   0.275  23.113  0.00  0.00    +0.148 C 
BRANCH  13  14
ATOM     14  N   UNL     1       1.770   0.445  23.223  0.00  0.00    -0.199 NA
ATOM     15  C   UNL     1       2.328   0.177  22.676  0.00  0.00    +0.271 C 
ATOM     16  O   UNL     1       2.085  -0.261  22.021  0.00  0.00    -0.268 OA
BRANCH  15  17
ATOM     17  C   UNL     1       3.127   0.348  22.787  0.00  0.00    +0.084 A 
ATOM     18  C   UNL     1       3.496   1.066  22.618  0.00  0.00    +0.012 A 
ATOM     19  C   UNL     1       4.295   0.994  22.812  0.00  0.00    +0.008 A 
ATOM     20  C   UNL     1       4.419   0.231  23.102  0.00  0.00    +0.036 A 
ATOM     21  S   UNL     1       3.697  -0.167  23.086  0.00  0.00    -0.082 S 
ENDBRANCH  15  17
ENDBRANCH  13  14
ENDBRANCH  12  13
TORSDOF 7
ENDMDL
MODEL 9
REMARK VINA RESULT:      -7.4      3.651      4.500
REMARK  Name = 
REMARK  7 active torsions:
REMARK  status: ('A' for Active; 'I' for Inactive)
REMARK    1  A    between atoms: O_2  and  C_3
REMARK    2  A    between atoms: C_6  and  C_7
REMARK    3  A    between atoms: C_7  and  N_8
REMARK    4  A    between atoms: N_8  and  C_9
REMARK    5  A    between atoms: C_12  and  C_13
REMARK    6  A    between atoms: C_13  and  N_14
REMARK    7  A    between atoms: C_15  and  C_17
REMARK                            x       y       z     vdW  Elec       q    Type
REMARK                         _______ _______ _______ _____ _____    ______ ____
ROOT
ATOM      9  C   UNL     1       0.255   0.414  23.628  0.00  0.00    +0.135 C 
ATOM     10  C   UNL     1       0.579   1.075  24.000  0.00  0.00    +0.162 C 
ATOM     11  O   UNL     1       1.346   1.179  23.714  0.00  0.00    -0.350 OA
ATOM     12  C   UNL     1       1.496   0.581  23.165  0.00  0.00    +0.169 C 
ATOM     22  C   UNL     1       0.822   0.108  23.112  0.00  0.00    +0.199 C 
ATOM     23  O   UNL     1       0.731  -0.553  22.628  0.00  0.00    -0.219 OA
ENDROOT
BRANCH   9   8
ATOM      8  N   UNL     1      -0.502   0.111  23.750  0.00  0.00    -0.209 NA
BRANCH   8   7
ATOM      7  C   UNL     1      -0.942   0.352  24.405  0.00  0.00    +0.115 C 
BRANCH   7   6
ATOM      3  C   UNL     1      -3.237  -0.510  24.740  0.00  0.00    +0.139 A 
ATOM      4  C   UNL     1      -2.594  -0.916  25.060  0.00  0.00    +0.037 A 
ATOM      5  C   UNL     1      -1.829  -0.628  24.948  0.00  0.00    +0.000 A 
ATOM      6  C   UNL     1      -1.707   0.065  24.517  0.00  0.00    -0.005 A 
ATOM     24  C   UNL     1      -2.351   0.469  24.197  0.00  0.00    +0.000 A 
ATOM     25  C   UNL     1      -3.116   0.182  24.308  0.00  0.00    +0.037 A 
BRANCH   3   2
ATOM      1  C   UNL     1      -4.347  -1.286  24.283  0.00  0.00    +0.252 C 
ATOM      2  O   UNL     1      -4.003  -0.797  24.851  0.00  0.00    -0.471 OA
ENDBRANCH   3   2
ENDBRANCH   7   6
ENDBRANCH   8   7
ENDBRANCH   9   8
BRANCH  12  13
ATOM     13  C   UNL     1       2.197   0.475  22.743  0.00  0.00    +0.148 C 
BRANCH  13  14
ATOM     14  N   UNL     1       2.905   0.345  23.145  0.00  0.00    -0.199 NA
ATOM     15  C   UNL     1       3.623   0.382  22.739  0.00  0.00    +0.271 C 
ATOM     16  O   UNL     1       3.632   0.548  21.932  0.00  0.00    -0.268 OA
BRANCH  15  17
ATOM     17  C   UNL     1       4.331   0.252  23.142  0.00  0.00    +0.084 A 
ATOM     18  C   UNL     1       4.910   0.817  23.298  0.00  0.00    +0.012 A 
ATOM     19  C   UNL     1       5.522   0.450  23.712  0.00  0.00    +0.008 A 
ATOM     20  C   UNL     1       5.320  -0.344  23.813  0.00  0.00    +0.036 A 
ATOM     21  S   UNL     1       4.584  -0.466  23.461  0.00  0.00    -0.082 S 
ENDBRANCH  15  17
ENDBRANCH  13  14
ENDBRANCH  12  13
TORSDOF 7
ENDMDL
