MODEL 1
REMARK VINA RESULT:      -8.4      0.000      0.000
REMARK  Name = 
REMARK  8 active torsions:
REMARK  status: ('A' for Active; 'I' for Inactive)
REMARK    1  A    between atoms: O_2  and  C_3
REMARK    2  A    between atoms: C_6  and  C_11
REMARK    3  A    between atoms: C_8  and  O_9
REMARK    4  A    between atoms: C_15  and  C_17
REMARK    5  A    between atoms: C_24  and  C_25
REMARK    6  A    between atoms: C_25  and  N_26
REMARK    7  A    between atoms: N_26  and  S_27
REMARK    8  A    between atoms: S_27  and  C_30
REMARK                            x       y       z     vdW  Elec       q    Type
REMARK                         _______ _______ _______ _____ _____    ______ ____
ROOT
ATOM     17  C   UNL     1      -1.392   1.366  23.709  0.00  0.00    +0.056 C 
ATOM     18  C   UNL     1      -0.888   1.907  23.466  0.00  0.00    +0.078 C 
ATOM     19  N   UNL     1      -0.700   1.145  23.721  0.00  0.00    -0.272 NA
ATOM     20  C   UNL     1      -1.600   0.673  23.978  0.00  0.00    +0.072 C 
ATOM     21  C   UNL     1      -1.926   0.151  24.197  0.00  0.00    +0.018 C 
ATOM     22  C   UNL     1      -1.200   0.620  23.958  0.00  0.00    +0.010 C 
ATOM     23  C   UNL     1      -0.430   0.205  24.032  0.00  0.00    +0.018 C 
ATOM     24  C   UNL     1       0.097   0.707  23.801  0.00  0.00    +0.077 C 
ENDROOT
BRANCH  17  15
ATOM     11  C   UNL     1      -3.429   1.848  24.130  0.00  0.00    +0.102 A 
ATOM     12  N   UNL     1      -3.415   1.922  23.309  0.00  0.00    -0.170 NA
ATOM     13  N   UNL     1      -2.650   1.750  23.051  0.00  0.00    -0.253 N 
ATOM     14  C   UNL     1      -2.389   1.757  22.268  0.00  0.00    +0.153 C 
ATOM     15  C   UNL     1      -2.193   1.571  23.713  0.00  0.00    +0.058 A 
ATOM     16  C   UNL     1      -2.674   1.631  24.381  0.00  0.00    +0.035 A 
BRANCH  11   6
ATOM      3  C   UNL     1      -5.395   2.215  25.589  0.00  0.00    +0.172 A 
ATOM      4  C   UNL     1      -5.222   1.457  25.313  0.00  0.00    +0.040 A 
ATOM      5  C   UNL     1      -4.567   1.335  24.827  0.00  0.00    +0.005 A 
ATOM      6  C   UNL     1      -4.085   1.970  24.616  0.00  0.00    +0.023 A 
ATOM      7  C   UNL     1      -4.258   2.728  24.892  0.00  0.00    +0.042 A 
ATOM      8  C   UNL     1      -4.914   2.851  25.378  0.00  0.00    +0.172 A 
BRANCH   3   2
ATOM      1  C   UNL     1      -6.460   1.691  26.385  0.00  0.00    +0.253 C 
ATOM      2  O   UNL     1      -6.050   2.337  26.075  0.00  0.00    -0.468 OA
ENDBRANCH   3   2
BRANCH   8   9
ATOM      9  O   UNL     1      -5.087   3.609  25.654  0.00  0.00    -0.468 OA
ATOM     10  C   UNL     1      -4.545   4.221  25.546  0.00  0.00    +0.253 C 
ENDBRANCH   8   9
ENDBRANCH  11   6
ENDBRANCH  17  15
BRANCH  24  25
ATOM     25  C   UNL     1       0.908   0.799  23.689  0.00  0.00    +0.131 C 
BRANCH  25  26
ATOM     26  N   UNL     1       1.276   0.451  23.037  0.00  0.00    -0.076 NA
BRANCH  26  27
ATOM     27  S   UNL     1       2.098   0.467  22.970  0.00  0.00    +0.083 S 
ATOM     28  O   UNL     1       2.070  -0.200  22.485  0.00  0.00    -0.151 OA
ATOM     29  O   UNL     1       2.126   1.133  23.456  0.00  0.00    -0.151 OA
BRANCH  27  30
ATOM     30  C   UNL     1       2.920   0.481  22.903  0.00  0.00    +0.153 A 
ATOM     31  C   UNL     1       3.384   1.149  22.765  0.00  0.00    +0.027 A 
ATOM     32  C   UNL     1       4.174   0.911  22.738  0.00  0.00    +0.009 A 
ATOM     33  C   UNL     1       4.198   0.096  22.860  0.00  0.00    +0.037 A 
ATOM     34  S   UNL     1       3.424  -0.171  22.962  0.00  0.00    -0.067 S 
ENDBRANCH  27  30
ENDBRANCH  26  27
ENDBRANCH  25  26
ENDBRANCH  24  25
TORSDOF 8
ENDMDL
MODEL 2
REMARK VINA RESULT:      -8.2      1.193      1.560
REMARK  Name = 
REMARK  8 active torsions:
REMARK  status: ('A' for Active; 'I' for Inactive)
REMARK    1  A    between atoms: O_2  and  C_3
REMARK    2  A    between atoms: C_6  and  C_11
REMARK    3  A    between atoms: C_8  and  O_9
REMARK    4  A    between atoms: C_15  and  C_17
REMARK    5  A    between atoms: C_24  and  C_25
REMARK    6  A    between atoms: C_25  and  N_26
REMARK    7  A    between atoms: N_26  and  S_27
REMARK    8  A    between atoms: S_27  and  C_30
REMARK                            x       y       z     vdW  Elec       q    Type
REMARK                         _______ _______ _______ _____ _____    ______ ____
ROOT
ATOM     17  C   UNL     1      -0.478   0.734  24.300  0.00  0.00    +0.056 C 
ATOM     18  C   UNL     1       0.081   1.174  24.614  0.00  0.00    +0.078 C 
ATOM     19  N   UNL     1       0.161   0.678  23.959  0.00  0.00    -0.272 NA
ATOM     20  C   UNL     1      -0.773   0.231  23.793  0.00  0.00    +0.072 C 
ATOM     21  C   UNL     1      -1.157  -0.172  23.451  0.00  0.00    +0.018 C 
ATOM     22  C   UNL     1      -0.392   0.250  23.656  0.00  0.00    +0.010 C 
ATOM     23  C   UNL     1       0.296   0.072  23.142  0.00  0.00    +0.018 C 
ATOM     24  C   UNL     1       0.873   0.488  23.420  0.00  0.00    +0.077 C 
ENDROOT
BRANCH  17  15
ATOM     11  C   UNL     1      -2.503   1.061  24.895  0.00  0.00    +0.102 A 
ATOM     12  N   UNL     1      -2.240   0.557  25.493  0.00  0.00    -0.170 NA
ATOM     13  N   UNL     1      -1.450   0.373  25.343  0.00  0.00    -0.253 N 
ATOM     14  C   UNL     1      -0.970  -0.115  25.803  0.00  0.00    +0.153 C 
ATOM     15  C   UNL     1      -1.225   0.764  24.652  0.00  0.00    +0.058 A 
ATOM     16  C   UNL     1      -1.875   1.189  24.375  0.00  0.00    +0.035 A 
BRANCH  11   6
ATOM      3  C   UNL     1      -4.775   2.022  24.696  0.00  0.00    +0.172 A 
ATOM      4  C   UNL     1      -4.675   1.203  24.734  0.00  0.00    +0.040 A 
ATOM      5  C   UNL     1      -3.918   0.884  24.801  0.00  0.00    +0.005 A 
ATOM      6  C   UNL     1      -3.260   1.380  24.829  0.00  0.00    +0.023 A 
ATOM      7  C   UNL     1      -3.360   2.199  24.790  0.00  0.00    +0.042 A 
ATOM      8  C   UNL     1      -4.119   2.519  24.724  0.00  0.00    +0.172 A 
BRANCH   3   2
ATOM      1  C   UNL     1      -6.171   1.970  24.998  0.00  0.00    +0.253 C 
ATOM      2  O   UNL     1      -5.533   2.342  24.629  0.00  0.00    -0.468 OA
ENDBRANCH   3   2
BRANCH   8   9
ATOM      9  O   UNL     1      -4.219   3.337  24.685  0.00  0.00    -0.468 OA
ATOM     10  C   UNL     1      -3.560   3.831  24.626  0.00  0.00    +0.253 C 
ENDBRANCH   8   9
ENDBRANCH  11   6
ENDBRANCH  17  15
BRANCH  24  25
ATOM     25  C   UNL     1       1.670   0.662  23.302  0.00  0.00    +0.131 C 
BRANCH  25  26
ATOM     26  N   UNL     1       2.142   0.153  22.858  0.00  0.00    -0.076 NA
BRANCH  26  27
ATOM     27  S   UNL     1       2.960   0.152  22.960  0.00  0.00    +0.083 S 
ATOM     28  O   UNL     1       2.980   0.961  22.797  0.00  0.00    -0.151 OA
ATOM     29  O   UNL     1       2.940  -0.656  23.124  0.00  0.00    -0.151 OA
BRANCH  27  30
ATOM     30  C   UNL     1       3.779   0.153  23.063  0.00  0.00    +0.153 A 
ATOM     31  C   UNL     1       4.214  -0.397  23.498  0.00  0.00    +0.027 A 
ATOM     32  C   UNL     1       5.010  -0.187  23.453  0.00  0.00    +0.009 A 
ATOM     33  C   UNL     1       5.068   0.493  22.990  0.00  0.00    +0.037 A 
ATOM     34  S   UNL     1       4.307   0.704  22.749  0.00  0.00    -0.067 S 
ENDBRANCH  27  30
ENDBRANCH  26  27
ENDBRANCH  25  26
ENDBRANCH  24  25
TORSDOF 8
ENDMDL
