MODEL 1
REMARK VINA RESULT:     -10.2      0.000      0.000
REMARK  Name = 
REMARK  7 active torsions:
REMARK  status: ('A' for Active; 'I' for Inactive)
REMARK    1  A    between atoms: O_2  and  C_3
REMARK    2  A    between atoms: C_3  and  C_5
REMARK    3  A    between atoms: C_5  and  C_6
REMARK    4  A    between atoms: C_5  and  N_13
REMARK    5  A    between atoms: C_6  and  C_7
REMARK    6  A    between atoms: C_14  and  C_16
REMARK    7  A    between atoms: N_24  and  C_25
REMARK                            x       y       z     vdW  Elec       q    Type
REMARK                         _______ _______ _______ _____ _____    ______ ____
ROOT
ATOM     13  N   UNL     1      -2.730   0.184  24.281  0.00  0.00    -0.194 NA
ATOM     14  C   UNL     1      -2.871   0.973  24.476  0.00  0.00    +0.261 C 
ATOM     15  O   UNL     1      -2.919   1.199  25.268  0.00  0.00    -0.271 OA
ENDROOT
BRANCH  14  16
ATOM     16  C   UNL     1      -2.963   1.535  23.880  0.00  0.00    +0.172 C 
ATOM     17  C   UNL     1      -2.426   1.565  23.254  0.00  0.00    +0.118 C 
ATOM     18  N   UNL     1      -2.518   2.127  22.657  0.00  0.00    -0.214 NA
ATOM     19  C   UNL     1      -3.147   2.660  22.687  0.00  0.00    +0.110 C 
ATOM     20  C   UNL     1      -3.684   2.631  23.312  0.00  0.00    +0.114 C 
ATOM     21  N   UNL     1      -3.592   2.069  23.908  0.00  0.00    -0.253 N 
ATOM     22  C   UNL     1      -4.129   2.039  24.534  0.00  0.00    +0.324 C 
ATOM     23  O   UNL     1      -4.037   1.477  25.131  0.00  0.00    -0.251 OA
ATOM     24  N   UNL     1      -4.758   2.572  24.563  0.00  0.00    -0.190 NA
BRANCH  24  25
ATOM     25  C   UNL     1      -5.295   2.543  25.189  0.00  0.00    +0.097 C 
ATOM     26  C   UNL     1      -5.211   3.057  25.829  0.00  0.00    +0.023 C 
ATOM     27  C   UNL     1      -5.915   2.000  25.175  0.00  0.00    +0.023 C 
ENDBRANCH  24  25
ENDBRANCH  14  16
BRANCH  13   5
ATOM      5  C   UNL     1      -2.637  -0.379  24.877  0.00  0.00    +0.198 C 
BRANCH   5   3
ATOM      3  C   UNL     1      -1.887  -0.539  25.181  0.00  0.00    +0.337 C 
ATOM      4  O   UNL     1      -1.759  -0.518  25.995  0.00  0.00    -0.248 OA
BRANCH   3   2
ATOM      1  C   UNL     1      -0.526  -0.921  24.975  0.00  0.00    +0.256 C 
ATOM      2  O   UNL     1      -1.265  -0.720  24.670  0.00  0.00    -0.443 OA
ENDBRANCH   3   2
ENDBRANCH   5   3
BRANCH   5   6
ATOM      6  C   UNL     1      -3.296  -0.781  25.169  0.00  0.00    +0.061 C 
BRANCH   6   7
ATOM      7  C   UNL     1      -3.540  -1.483  24.812  0.00  0.00    -0.001 A 
ATOM      8  C   UNL     1      -3.985  -1.460  24.117  0.00  0.00    -0.001 A 
ATOM      9  C   UNL     1      -4.229  -2.163  23.761  0.00  0.00    +0.020 A 
ATOM     10  C   UNL     1      -4.030  -2.888  24.098  0.00  0.00    +0.099 A 
ATOM     11  N   UNL     1      -3.585  -2.911  24.793  0.00  0.00    -0.243 NA
ATOM     12  C   UNL     1      -3.341  -2.209  25.150  0.00  0.00    +0.095 A 
ENDBRANCH   6   7
ENDBRANCH   5   6
ENDBRANCH  13   5
TORSDOF 7
ENDMDL
MODEL 2
REMARK VINA RESULT:      -9.3      2.026      4.612
REMARK  Name = 
REMARK  7 active torsions:
REMARK  status: ('A' for Active; 'I' for Inactive)
REMARK    1  A    between atoms: O_2  and  C_3
REMARK    2  A    between atoms: C_3  and  C_5
REMARK    3  A    between atoms: C_5  and  C_6
REMARK    4  A    between atoms: C_5  and  N_13
REMARK    5  A    between atoms: C_6  and  C_7
REMARK    6  A    between atoms: C_14  and  C_16
REMARK    7  A    between atoms: N_24  and  C_25
REMARK                            x       y       z     vdW  Elec       q    Type
REMARK                         _______ _______ _______ _____ _____    ______ ____
ROOT
ATOM     13  N   UNL     1      -1.787   1.833  24.421  0.00  0.00    -0.194 NA
ATOM     14  C   UNL     1      -1.720   1.131  24.850  0.00  0.00    +0.261 C 
ATOM     15  O   UNL     1      -2.160   1.027  25.541  0.00  0.00    -0.271 OA
ENDROOT
BRANCH  14  16
ATOM     16  C   UNL     1      -1.214   0.535  24.589  0.00  0.00    +0.172 C 
ATOM     17  C   UNL     1      -0.448   0.722  24.345  0.00  0.00    +0.118 C 
ATOM     18  N   UNL     1       0.059   0.125  24.083  0.00  0.00    -0.214 NA
ATOM     19  C   UNL     1      -0.201  -0.658  24.067  0.00  0.00    +0.110 C 
ATOM     20  C   UNL     1      -0.966  -0.845  24.311  0.00  0.00    +0.114 C 
ATOM     21  N   UNL     1      -1.472  -0.249  24.572  0.00  0.00    -0.253 N 
ATOM     22  C   UNL     1      -2.238  -0.435  24.817  0.00  0.00    +0.324 C 
ATOM     23  O   UNL     1      -2.745   0.162  25.078  0.00  0.00    -0.251 OA
ATOM     24  N   UNL     1      -2.497  -1.218  24.800  0.00  0.00    -0.190 NA
BRANCH  24  25
ATOM     25  C   UNL     1      -3.263  -1.405  25.044  0.00  0.00    +0.097 C 
ATOM     26  C   UNL     1      -3.885  -1.382  24.503  0.00  0.00    +0.023 C 
ATOM     27  C   UNL     1      -3.405  -1.614  25.829  0.00  0.00    +0.023 C 
ENDBRANCH  24  25
ENDBRANCH  14  16
BRANCH  13   5
ATOM      5  C   UNL     1      -2.293   2.430  24.683  0.00  0.00    +0.198 C 
BRANCH   5   3
ATOM      3  C   UNL     1      -3.010   2.561  24.296  0.00  0.00    +0.337 C 
ATOM      4  O   UNL     1      -3.706   2.637  24.732  0.00  0.00    -0.248 OA
BRANCH   3   2
ATOM      1  C   UNL     1      -3.751   2.724  23.085  0.00  0.00    +0.256 C 
ATOM      2  O   UNL     1      -3.031   2.616  23.473  0.00  0.00    -0.443 OA
ENDBRANCH   3   2
ENDBRANCH   5   3
BRANCH   5   6
ATOM      6  C   UNL     1      -2.082   2.895  25.330  0.00  0.00    +0.061 C 
BRANCH   6   7
ATOM      7  C   UNL     1      -1.707   3.620  25.211  0.00  0.00    -0.001 A 
ATOM      8  C   UNL     1      -2.077   4.320  25.444  0.00  0.00    -0.001 A 
ATOM      9  C   UNL     1      -1.701   5.044  25.324  0.00  0.00    +0.020 A 
ATOM     10  C   UNL     1      -0.956   5.069  24.972  0.00  0.00    +0.099 A 
ATOM     11  N   UNL     1      -0.586   4.370  24.739  0.00  0.00    -0.243 NA
ATOM     12  C   UNL     1      -0.961   3.645  24.858  0.00  0.00    +0.095 A 
ENDBRANCH   6   7
ENDBRANCH   5   6
ENDBRANCH  13   5
TORSDOF 7
ENDMDL
MODEL 3
REMARK VINA RESULT:      -9.2      1.871      3.135
REMARK  Name = 
REMARK  7 active torsions:
REMARK  status: ('A' for Active; 'I' for Inactive)
REMARK    1  A    between atoms: O_2  and  C_3
REMARK    2  A    between atoms: C_3  and  C_5
REMARK    3  A    between atoms: C_5  and  C_6
REMARK    4  A    between atoms: C_5  and  N_13
REMARK    5  A    between atoms: C_6  and  C_7
REMARK    6  A    between atoms: C_14  and  C_16
REMARK    7  A    between atoms: N_24  and  C_25
REMARK                            x       y       z     vdW  Elec       q    Type
REMARK                         _______ _______ _______ _____ _____    ______ ____
ROOT
ATOM     13  N   UNL     1      -2.342   0.090  24.257  0.00  0.00    -0.194 NA
ATOM     14  C   UNL     1      -1.676   0.302  24.695  0.00  0.00    +0.261 C 
ATOM     15  O   UNL     1      -1.753   0.505  25.491  0.00  0.00    -0.271 OA
ENDROOT
BRANCH  14  16
ATOM     16  C   UNL     1      -0.933   0.310  24.337  0.00  0.00    +0.172 C 
ATOM     17  C   UNL     1      -0.724  -0.287  23.808  0.00  0.00    +0.118 C 
ATOM     18  N   UNL     1       0.020  -0.280  23.449  0.00  0.00    -0.214 NA
ATOM     19  C   UNL     1       0.553   0.326  23.621  0.00  0.00    +0.110 C 
ATOM     20  C   UNL     1       0.344   0.923  24.150  0.00  0.00    +0.114 C 
ATOM     21  N   UNL     1      -0.399   0.915  24.508  0.00  0.00    -0.253 N 
ATOM     22  C   UNL     1      -0.608   1.512  25.037  0.00  0.00    +0.324 C 
ATOM     23  O   UNL     1      -1.352   1.504  25.395  0.00  0.00    -0.251 OA
ATOM     24  N   UNL     1      -0.074   2.117  25.208  0.00  0.00    -0.190 NA
BRANCH  24  25
ATOM     25  C   UNL     1      -0.283   2.715  25.738  0.00  0.00    +0.097 C 
ATOM     26  C   UNL     1      -0.704   3.373  25.471  0.00  0.00    +0.023 C 
ATOM     27  C   UNL     1      -0.072   2.654  26.532  0.00  0.00    +0.023 C 
ENDBRANCH  24  25
ENDBRANCH  14  16
BRANCH  13   5
ATOM      5  C   UNL     1      -3.086   0.082  24.615  0.00  0.00    +0.198 C 
BRANCH   5   3
ATOM      3  C   UNL     1      -3.618   0.698  24.476  0.00  0.00    +0.337 C 
ATOM      4  O   UNL     1      -3.708   1.000  23.715  0.00  0.00    -0.248 OA
BRANCH   3   2
ATOM      1  C   UNL     1      -4.580   1.635  24.964  0.00  0.00    +0.256 C 
ATOM      2  O   UNL     1      -4.058   1.010  25.100  0.00  0.00    -0.443 OA
ENDBRANCH   3   2
ENDBRANCH   5   3
BRANCH   5   6
ATOM      6  C   UNL     1      -3.298  -0.542  25.111  0.00  0.00    +0.061 C 
BRANCH   6   7
ATOM      7  C   UNL     1      -3.532  -1.264  24.787  0.00  0.00    -0.001 A 
ATOM      8  C   UNL     1      -3.268  -1.971  25.121  0.00  0.00    -0.001 A 
ATOM      9  C   UNL     1      -3.503  -2.692  24.796  0.00  0.00    +0.020 A 
ATOM     10  C   UNL     1      -4.000  -2.707  24.139  0.00  0.00    +0.099 A 
ATOM     11  N   UNL     1      -4.263  -1.999  23.805  0.00  0.00    -0.243 NA
ATOM     12  C   UNL     1      -4.029  -1.278  24.129  0.00  0.00    +0.095 A 
ENDBRANCH   6   7
ENDBRANCH   5   6
ENDBRANCH  13   5
TORSDOF 7
ENDMDL
MODEL 4
REMARK VINA RESULT:      -8.9      1.106      4.363
REMARK  Name = 
REMARK  7 active torsions:
REMARK  status: ('A' for Active; 'I' for Inactive)
REMARK    1  A    between atoms: O_2  and  C_3
REMARK    2  A    between atoms: C_3  and  C_5
REMARK    3  A    between atoms: C_5  and  C_6
REMARK    4  A    between atoms: C_5  and  N_13
REMARK    5  A    between atoms: C_6  and  C_7
REMARK    6  A    between atoms: C_14  and  C_16
REMARK    7  A    between atoms: N_24  and  C_25
REMARK                            x       y       z     vdW  Elec       q    Type
REMARK                         _______ _______ _______ _____ _____    ______ ____
ROOT
ATOM     13  N   UNL     1      -3.609   0.819  24.235  0.00  0.00    -0.194 NA
ATOM     14  C   UNL     1      -3.234   0.191  24.616  0.00  0.00    +0.261 C 
ATOM     15  O   UNL     1      -2.636   0.340  25.165  0.00  0.00    -0.271 OA
ENDROOT
BRANCH  14  16
ATOM     16  C   UNL     1      -3.457  -0.585  24.449  0.00  0.00    +0.172 C 
ATOM     17  C   UNL     1      -4.245  -0.760  24.279  0.00  0.00    +0.118 C 
ATOM     18  N   UNL     1      -4.469  -1.537  24.112  0.00  0.00    -0.214 NA
ATOM     19  C   UNL     1      -3.904  -2.138  24.114  0.00  0.00    +0.110 C 
ATOM     20  C   UNL     1      -3.116  -1.963  24.284  0.00  0.00    +0.114 C 
ATOM     21  N   UNL     1      -2.893  -1.187  24.451  0.00  0.00    -0.253 N 
ATOM     22  C   UNL     1      -2.105  -1.012  24.621  0.00  0.00    +0.324 C 
ATOM     23  O   UNL     1      -1.881  -0.235  24.789  0.00  0.00    -0.251 OA
ATOM     24  N   UNL     1      -1.540  -1.613  24.624  0.00  0.00    -0.190 NA
BRANCH  24  25
ATOM     25  C   UNL     1      -0.752  -1.438  24.793  0.00  0.00    +0.097 C 
ATOM     26  C   UNL     1      -0.267  -1.112  24.210  0.00  0.00    +0.023 C 
ATOM     27  C   UNL     1      -0.449  -1.589  25.545  0.00  0.00    +0.023 C 
ENDBRANCH  24  25
ENDBRANCH  14  16
BRANCH  13   5
ATOM      5  C   UNL     1      -3.386   1.596  24.402  0.00  0.00    +0.198 C 
BRANCH   5   3
ATOM      3  C   UNL     1      -2.978   2.039  23.838  0.00  0.00    +0.337 C 
ATOM      4  O   UNL     1      -2.332   2.498  24.063  0.00  0.00    -0.248 OA
BRANCH   3   2
ATOM      1  C   UNL     1      -2.721   2.314  22.460  0.00  0.00    +0.256 C 
ATOM      2  O   UNL     1      -3.219   2.022  23.049  0.00  0.00    -0.443 OA
ENDBRANCH   3   2
ENDBRANCH   5   3
BRANCH   5   6
ATOM      6  C   UNL     1      -3.571   1.929  25.134  0.00  0.00    +0.061 C 
BRANCH   6   7
ATOM      7  C   UNL     1      -4.249   2.391  25.216  0.00  0.00    -0.001 A 
ATOM      8  C   UNL     1      -4.995   2.041  25.176  0.00  0.00    -0.001 A 
ATOM      9  C   UNL     1      -5.672   2.505  25.258  0.00  0.00    +0.020 A 
ATOM     10  C   UNL     1      -5.605   3.317  25.380  0.00  0.00    +0.099 A 
ATOM     11  N   UNL     1      -4.859   3.667  25.420  0.00  0.00    -0.243 NA
ATOM     12  C   UNL     1      -4.181   3.205  25.338  0.00  0.00    +0.095 A 
ENDBRANCH   6   7
ENDBRANCH   5   6
ENDBRANCH  13   5
TORSDOF 7
ENDMDL
MODEL 5
REMARK VINA RESULT:      -8.8      1.017      2.003
REMARK  Name = 
REMARK  7 active torsions:
REMARK  status: ('A' for Active; 'I' for Inactive)
REMARK    1  A    between atoms: O_2  and  C_3
REMARK    2  A    between atoms: C_3  and  C_5
REMARK    3  A    between atoms: C_5  and  C_6
REMARK    4  A    between atoms: C_5  and  N_13
REMARK    5  A    between atoms: C_6  and  C_7
REMARK    6  A    between atoms: C_14  and  C_16
REMARK    7  A    between atoms: N_24  and  C_25
REMARK                            x       y       z     vdW  Elec       q    Type
REMARK                         _______ _______ _______ _____ _____    ______ ____
ROOT
ATOM     13  N   UNL     1      -2.922   0.235  24.191  0.00  0.00    -0.194 NA
ATOM     14  C   UNL     1      -3.195   0.968  24.452  0.00  0.00    +0.261 C 
ATOM     15  O   UNL     1      -3.398   1.073  25.245  0.00  0.00    -0.271 OA
ENDROOT
BRANCH  14  16
ATOM     16  C   UNL     1      -3.265   1.595  23.921  0.00  0.00    +0.172 C 
ATOM     17  C   UNL     1      -2.714   1.684  23.313  0.00  0.00    +0.118 C 
ATOM     18  N   UNL     1      -2.784   2.312  22.782  0.00  0.00    -0.214 NA
ATOM     19  C   UNL     1      -3.404   2.850  22.859  0.00  0.00    +0.110 C 
ATOM     20  C   UNL     1      -3.955   2.761  23.467  0.00  0.00    +0.114 C 
ATOM     21  N   UNL     1      -3.885   2.134  23.998  0.00  0.00    -0.253 N 
ATOM     22  C   UNL     1      -4.436   2.045  24.606  0.00  0.00    +0.324 C 
ATOM     23  O   UNL     1      -4.366   1.417  25.138  0.00  0.00    -0.251 OA
ATOM     24  N   UNL     1      -5.056   2.583  24.683  0.00  0.00    -0.190 NA
BRANCH  24  25
ATOM     25  C   UNL     1      -5.606   2.495  25.291  0.00  0.00    +0.097 C 
ATOM     26  C   UNL     1      -6.226   1.955  25.211  0.00  0.00    +0.023 C 
ATOM     27  C   UNL     1      -5.537   2.945  25.978  0.00  0.00    +0.023 C 
ENDBRANCH  24  25
ENDBRANCH  14  16
BRANCH  13   5
ATOM      5  C   UNL     1      -2.852  -0.393  24.722  0.00  0.00    +0.198 C 
BRANCH   5   3
ATOM      3  C   UNL     1      -3.391  -1.017  24.697  0.00  0.00    +0.337 C 
ATOM      4  O   UNL     1      -3.719  -1.307  25.395  0.00  0.00    -0.248 OA
BRANCH   3   2
ATOM      1  C   UNL     1      -4.187  -1.931  23.939  0.00  0.00    +0.256 C 
ATOM      2  O   UNL     1      -3.602  -1.351  23.972  0.00  0.00    -0.443 OA
ENDBRANCH   3   2
ENDBRANCH   5   3
BRANCH   5   6
ATOM      6  C   UNL     1      -2.243  -0.396  25.278  0.00  0.00    +0.061 C 
BRANCH   6   7
ATOM      7  C   UNL     1      -1.525  -0.760  25.099  0.00  0.00    -0.001 A 
ATOM      8  C   UNL     1      -1.294  -1.441  25.505  0.00  0.00    -0.001 A 
ATOM      9  C   UNL     1      -0.576  -1.804  25.325  0.00  0.00    +0.020 A 
ATOM     10  C   UNL     1      -0.088  -1.488  24.741  0.00  0.00    +0.099 A 
ATOM     11  N   UNL     1      -0.318  -0.807  24.335  0.00  0.00    -0.243 NA
ATOM     12  C   UNL     1      -1.036  -0.443  24.514  0.00  0.00    +0.095 A 
ENDBRANCH   6   7
ENDBRANCH   5   6
ENDBRANCH  13   5
TORSDOF 7
ENDMDL
MODEL 6
REMARK VINA RESULT:      -8.8      2.055      4.284
REMARK  Name = 
REMARK  7 active torsions:
REMARK  status: ('A' for Active; 'I' for Inactive)
REMARK    1  A    between atoms: O_2  and  C_3
REMARK    2  A    between atoms: C_3  and  C_5
REMARK    3  A    between atoms: C_5  and  C_6
REMARK    4  A    between atoms: C_5  and  N_13
REMARK    5  A    between atoms: C_6  and  C_7
REMARK    6  A    between atoms: C_14  and  C_16
REMARK    7  A    between atoms: N_24  and  C_25
REMARK                            x       y       z     vdW  Elec       q    Type
REMARK                         _______ _______ _______ _____ _____    ______ ____
ROOT
ATOM     13  N   UNL     1      -2.764   2.432  24.503  0.00  0.00    -0.194 NA
ATOM     14  C   UNL     1      -3.174   1.883  24.962  0.00  0.00    +0.261 C 
ATOM     15  O   UNL     1      -2.761   1.367  25.456  0.00  0.00    -0.271 OA
ENDROOT
BRANCH  14  16
ATOM     16  C   UNL     1      -3.997   1.851  24.928  0.00  0.00    +0.172 C 
ATOM     17  C   UNL     1      -4.436   2.548  24.894  0.00  0.00    +0.118 C 
ATOM     18  N   UNL     1      -5.261   2.516  24.860  0.00  0.00    -0.214 NA
ATOM     19  C   UNL     1      -5.645   1.786  24.858  0.00  0.00    +0.110 C 
ATOM     20  C   UNL     1      -5.205   1.088  24.892  0.00  0.00    +0.114 C 
ATOM     21  N   UNL     1      -4.383   1.121  24.926  0.00  0.00    -0.253 N 
ATOM     22  C   UNL     1      -3.943   0.423  24.960  0.00  0.00    +0.324 C 
ATOM     23  O   UNL     1      -3.119   0.455  24.995  0.00  0.00    -0.251 OA
ATOM     24  N   UNL     1      -4.327  -0.307  24.959  0.00  0.00    -0.190 NA
BRANCH  24  25
ATOM     25  C   UNL     1      -3.888  -1.004  24.992  0.00  0.00    +0.097 C 
ATOM     26  C   UNL     1      -3.606  -1.280  25.717  0.00  0.00    +0.023 C 
ATOM     27  C   UNL     1      -3.732  -1.426  24.301  0.00  0.00    +0.023 C 
ENDBRANCH  24  25
ENDBRANCH  14  16
BRANCH  13   5
ATOM      5  C   UNL     1      -1.939   2.465  24.538  0.00  0.00    +0.198 C 
BRANCH   5   3
ATOM      3  C   UNL     1      -1.487   2.108  23.947  0.00  0.00    +0.337 C 
ATOM      4  O   UNL     1      -1.663   2.246  23.154  0.00  0.00    -0.248 OA
BRANCH   3   2
ATOM      1  C   UNL     1      -0.463   1.188  23.566  0.00  0.00    +0.256 C 
ATOM      2  O   UNL     1      -0.859   1.614  24.151  0.00  0.00    -0.443 OA
ENDBRANCH   3   2
ENDBRANCH   5   3
BRANCH   5   6
ATOM      6  C   UNL     1      -1.568   2.854  25.164  0.00  0.00    +0.061 C 
BRANCH   6   7
ATOM      7  C   UNL     1      -1.426   3.665  25.117  0.00  0.00    -0.001 A 
ATOM      8  C   UNL     1      -1.987   4.200  25.400  0.00  0.00    -0.001 A 
ATOM      9  C   UNL     1      -1.843   5.011  25.353  0.00  0.00    +0.020 A 
ATOM     10  C   UNL     1      -1.140   5.287  25.023  0.00  0.00    +0.099 A 
ATOM     11  N   UNL     1      -0.579   4.752  24.740  0.00  0.00    -0.243 NA
ATOM     12  C   UNL     1      -0.722   3.941  24.786  0.00  0.00    +0.095 A 
ENDBRANCH   6   7
ENDBRANCH   5   6
ENDBRANCH  13   5
TORSDOF 7
ENDMDL
MODEL 7
REMARK VINA RESULT:      -8.8      1.253      2.023
REMARK  Name = 
REMARK  7 active torsions:
REMARK  status: ('A' for Active; 'I' for Inactive)
REMARK    1  A    between atoms: O_2  and  C_3
REMARK    2  A    between atoms: C_3  and  C_5
REMARK    3  A    between atoms: C_5  and  C_6
REMARK    4  A    between atoms: C_5  and  N_13
REMARK    5  A    between atoms: C_6  and  C_7
REMARK    6  A    between atoms: C_14  and  C_16
REMARK    7  A    between atoms: N_24  and  C_25
REMARK                            x       y       z     vdW  Elec       q    Type
REMARK                         _______ _______ _______ _____ _____    ______ ____
ROOT
ATOM     13  N   UNL     1      -3.537   0.483  25.082  0.00  0.00    -0.194 NA
ATOM     14  C   UNL     1      -3.738   1.201  24.728  0.00  0.00    +0.261 C 
ATOM     15  O   UNL     1      -3.320   1.466  24.068  0.00  0.00    -0.271 OA
ENDROOT
BRANCH  14  16
ATOM     16  C   UNL     1      -4.356   1.652  25.035  0.00  0.00    +0.172 C 
ATOM     17  C   UNL     1      -5.104   1.317  25.129  0.00  0.00    +0.118 C 
ATOM     18  N   UNL     1      -5.724   1.769  25.436  0.00  0.00    -0.214 NA
ATOM     19  C   UNL     1      -5.594   2.555  25.647  0.00  0.00    +0.110 C 
ATOM     20  C   UNL     1      -4.846   2.890  25.553  0.00  0.00    +0.114 C 
ATOM     21  N   UNL     1      -4.228   2.439  25.247  0.00  0.00    -0.253 N 
ATOM     22  C   UNL     1      -3.480   2.774  25.152  0.00  0.00    +0.324 C 
ATOM     23  O   UNL     1      -2.860   2.322  24.846  0.00  0.00    -0.251 OA
ATOM     24  N   UNL     1      -3.350   3.561  25.364  0.00  0.00    -0.190 NA
BRANCH  24  25
ATOM     25  C   UNL     1      -2.602   3.896  25.270  0.00  0.00    +0.097 C 
ATOM     26  C   UNL     1      -2.030   3.799  25.857  0.00  0.00    +0.023 C 
ATOM     27  C   UNL     1      -2.426   4.327  24.589  0.00  0.00    +0.023 C 
ENDBRANCH  24  25
ENDBRANCH  14  16
BRANCH  13   5
ATOM      5  C   UNL     1      -2.918   0.030  24.776  0.00  0.00    +0.198 C 
BRANCH   5   3
ATOM      3  C   UNL     1      -2.182   0.033  25.148  0.00  0.00    +0.337 C 
ATOM      4  O   UNL     1      -2.130  -0.103  25.959  0.00  0.00    -0.248 OA
BRANCH   3   2
ATOM      1  C   UNL     1      -0.761   0.166  25.078  0.00  0.00    +0.256 C 
ATOM      2  O   UNL     1      -1.498   0.171  24.707  0.00  0.00    -0.443 OA
ENDBRANCH   3   2
ENDBRANCH   5   3
BRANCH   5   6
ATOM      6  C   UNL     1      -3.037  -0.424  24.097  0.00  0.00    +0.061 C 
BRANCH   6   7
ATOM      7  C   UNL     1      -3.350  -1.184  24.161  0.00  0.00    -0.001 A 
ATOM      8  C   UNL     1      -4.035  -1.384  23.747  0.00  0.00    -0.001 A 
ATOM      9  C   UNL     1      -4.348  -2.145  23.812  0.00  0.00    +0.020 A 
ATOM     10  C   UNL     1      -3.976  -2.705  24.289  0.00  0.00    +0.099 A 
ATOM     11  N   UNL     1      -3.291  -2.505  24.703  0.00  0.00    -0.243 NA
ATOM     12  C   UNL     1      -2.978  -1.744  24.639  0.00  0.00    +0.095 A 
ENDBRANCH   6   7
ENDBRANCH   5   6
ENDBRANCH  13   5
TORSDOF 7
ENDMDL
MODEL 8
REMARK VINA RESULT:      -8.6      1.825      4.062
REMARK  Name = 
REMARK  7 active torsions:
REMARK  status: ('A' for Active; 'I' for Inactive)
REMARK    1  A    between atoms: O_2  and  C_3
REMARK    2  A    between atoms: C_3  and  C_5
REMARK    3  A    between atoms: C_5  and  C_6
REMARK    4  A    between atoms: C_5  and  N_13
REMARK    5  A    between atoms: C_6  and  C_7
REMARK    6  A    between atoms: C_14  and  C_16
REMARK    7  A    between atoms: N_24  and  C_25
REMARK                            x       y       z     vdW  Elec       q    Type
REMARK                         _______ _______ _______ _____ _____    ______ ____
ROOT
ATOM     13  N   UNL     1      -2.765   1.414  25.129  0.00  0.00    -0.194 NA
ATOM     14  C   UNL     1      -2.101   1.618  24.685  0.00  0.00    +0.261 C 
ATOM     15  O   UNL     1      -2.107   1.520  23.865  0.00  0.00    -0.271 OA
ENDROOT
BRANCH  14  16
ATOM     16  C   UNL     1      -1.431   1.920  25.060  0.00  0.00    +0.172 C 
ATOM     17  C   UNL     1      -1.502   2.557  25.580  0.00  0.00    +0.118 C 
ATOM     18  N   UNL     1      -0.832   2.859  25.955  0.00  0.00    -0.214 NA
ATOM     19  C   UNL     1      -0.092   2.524  25.810  0.00  0.00    +0.110 C 
ATOM     20  C   UNL     1      -0.022   1.888  25.290  0.00  0.00    +0.114 C 
ATOM     21  N   UNL     1      -0.691   1.586  24.915  0.00  0.00    -0.253 N 
ATOM     22  C   UNL     1      -0.620   0.949  24.395  0.00  0.00    +0.324 C 
ATOM     23  O   UNL     1      -1.291   0.647  24.020  0.00  0.00    -0.251 OA
ATOM     24  N   UNL     1       0.119   0.614  24.250  0.00  0.00    -0.190 NA
BRANCH  24  25
ATOM     25  C   UNL     1       0.190  -0.022  23.730  0.00  0.00    +0.097 C 
ATOM     26  C   UNL     1       0.503   0.095  22.976  0.00  0.00    +0.023 C 
ATOM     27  C   UNL     1      -0.053  -0.774  23.964  0.00  0.00    +0.023 C 
ENDBRANCH  24  25
ENDBRANCH  14  16
BRANCH  13   5
ATOM      5  C   UNL     1      -3.436   1.112  24.754  0.00  0.00    +0.198 C 
BRANCH   5   3
ATOM      3  C   UNL     1      -3.595   0.303  24.781  0.00  0.00    +0.337 C 
ATOM      4  O   UNL     1      -3.783  -0.104  24.089  0.00  0.00    -0.248 OA
BRANCH   3   2
ATOM      1  C   UNL     1      -3.681  -0.915  25.524  0.00  0.00    +0.256 C 
ATOM      2  O   UNL     1      -3.566  -0.098  25.502  0.00  0.00    -0.443 OA
ENDBRANCH   3   2
ENDBRANCH   5   3
BRANCH   5   6
ATOM      6  C   UNL     1      -3.947   1.620  24.351  0.00  0.00    +0.061 C 
BRANCH   6   7
ATOM      7  C   UNL     1      -4.569   1.981  24.754  0.00  0.00    -0.001 A 
ATOM      8  C   UNL     1      -5.326   1.653  24.725  0.00  0.00    -0.001 A 
ATOM      9  C   UNL     1      -5.948   2.015  25.129  0.00  0.00    +0.020 A 
ATOM     10  C   UNL     1      -5.814   2.704  25.561  0.00  0.00    +0.099 A 
ATOM     11  N   UNL     1      -5.058   3.032  25.590  0.00  0.00    -0.243 NA
ATOM     12  C   UNL     1      -4.435   2.671  25.187  0.00  0.00    +0.095 A 
ENDBRANCH   6   7
ENDBRANCH   5   6
ENDBRANCH  13   5
TORSDOF 7
ENDMDL
MODEL 9
REMARK VINA RESULT:      -8.5      1.282      4.135
REMARK  Name = 
REMARK  7 active torsions:
REMARK  status: ('A' for Active; 'I' for Inactive)
REMARK    1  A    between atoms: O_2  and  C_3
REMARK    2  A    between atoms: C_3  and  C_5
REMARK    3  A    between atoms: C_5  and  C_6
REMARK    4  A    between atoms: C_5  and  N_13
REMARK    5  A    between atoms: C_6  and  C_7
REMARK    6  A    between atoms: C_14  and  C_16
REMARK    7  A    between atoms: N_24  and  C_25
REMARK                            x       y       z     vdW  Elec       q    Type
REMARK                         _______ _______ _______ _____ _____    ______ ____
ROOT
ATOM     13  N   UNL     1      -2.677   1.371  24.526  0.00  0.00    -0.194 NA
ATOM     14  C   UNL     1      -2.397   0.605  24.400  0.00  0.00    +0.261 C 
ATOM     15  O   UNL     1      -2.578   0.211  23.698  0.00  0.00    -0.271 OA
ENDROOT
BRANCH  14  16
ATOM     16  C   UNL     1      -1.937   0.234  24.975  0.00  0.00    +0.172 C 
ATOM     17  C   UNL     1      -1.345   0.657  25.365  0.00  0.00    +0.118 C 
ATOM     18  N   UNL     1      -0.884   0.286  25.941  0.00  0.00    -0.214 NA
ATOM     19  C   UNL     1      -1.016  -0.507  26.126  0.00  0.00    +0.110 C 
ATOM     20  C   UNL     1      -1.607  -0.930  25.735  0.00  0.00    +0.114 C 
ATOM     21  N   UNL     1      -2.067  -0.559  25.160  0.00  0.00    -0.253 N 
ATOM     22  C   UNL     1      -2.658  -0.982  24.770  0.00  0.00    +0.324 C 
ATOM     23  O   UNL     1      -3.119  -0.611  24.194  0.00  0.00    -0.251 OA
ATOM     24  N   UNL     1      -2.789  -1.775  24.954  0.00  0.00    -0.190 NA
BRANCH  24  25
ATOM     25  C   UNL     1      -3.381  -2.198  24.564  0.00  0.00    +0.097 C 
ATOM     26  C   UNL     1      -3.180  -2.830  24.073  0.00  0.00    +0.023 C 
ATOM     27  C   UNL     1      -4.172  -1.988  24.665  0.00  0.00    +0.023 C 
ENDBRANCH  24  25
ENDBRANCH  14  16
BRANCH  13   5
ATOM      5  C   UNL     1      -3.138   1.742  23.951  0.00  0.00    +0.198 C 
BRANCH   5   3
ATOM      3  C   UNL     1      -2.775   2.139  23.325  0.00  0.00    +0.337 C 
ATOM      4  O   UNL     1      -2.159   2.666  23.472  0.00  0.00    -0.248 OA
BRANCH   3   2
ATOM      1  C   UNL     1      -2.623   2.348  21.919  0.00  0.00    +0.256 C 
ATOM      2  O   UNL     1      -3.030   2.007  22.551  0.00  0.00    -0.443 OA
ENDBRANCH   3   2
ENDBRANCH   5   3
BRANCH   5   6
ATOM      6  C   UNL     1      -3.960   1.716  24.002  0.00  0.00    +0.061 C 
BRANCH   6   7
ATOM      7  C   UNL     1      -4.352   2.179  24.561  0.00  0.00    -0.001 A 
ATOM      8  C   UNL     1      -4.985   1.865  24.987  0.00  0.00    -0.001 A 
ATOM      9  C   UNL     1      -5.376   2.330  25.546  0.00  0.00    +0.020 A 
ATOM     10  C   UNL     1      -5.135   3.107  25.678  0.00  0.00    +0.099 A 
ATOM     11  N   UNL     1      -4.503   3.421  25.252  0.00  0.00    -0.243 NA
ATOM     12  C   UNL     1      -4.111   2.958  24.693  0.00  0.00    +0.095 A 
ENDBRANCH   6   7
ENDBRANCH   5   6
ENDBRANCH  13   5
TORSDOF 7
ENDMDL
