MODEL 1
REMARK VINA RESULT:      -9.7      0.000      0.000
REMARK  Name = 
REMARK  8 active torsions:
REMARK  status: ('A' for Active; 'I' for Inactive)
REMARK    1  A    between atoms: O_2  and  C_3
REMARK    2  A    between atoms: C_6  and  C_7
REMARK    3  A    between atoms: C_7  and  C_8
REMARK    4  A    between atoms: C_13  and  C_14
REMARK    5  A    between atoms: C_14  and  C_15
REMARK    6  A    between atoms: C_18  and  C_19
REMARK    7  A    between atoms: C_19  and  C_20
REMARK    8  A    between atoms: C_20  and  N_21
REMARK                            x       y       z     vdW  Elec       q    Type
REMARK                         _______ _______ _______ _____ _____    ______ ____
ROOT
ATOM      8  C   UNL     1      -4.038   1.075  24.661  0.00  0.00    +0.230 C 
ATOM      9  O   UNL     1      -3.533   1.717  24.546  0.00  0.00    -0.275 OA
ATOM     10  N   UNL     1      -3.740   0.307  24.642  0.00  0.00    -0.279 N 
ATOM     11  C   UNL     1      -4.246  -0.336  24.756  0.00  0.00    +0.093 C 
ATOM     12  C   UNL     1      -3.947  -1.105  24.737  0.00  0.00    +0.022 C 
ATOM     13  C   UNL     1      -3.143  -1.231  24.603  0.00  0.00    +0.015 C 
ATOM     18  C   UNL     1      -2.638  -0.590  24.488  0.00  0.00    +0.022 C 
ATOM     30  C   UNL     1      -2.936   0.179  24.508  0.00  0.00    +0.093 C 
ENDROOT
BRANCH   8   7
ATOM      7  C   UNL     1      -4.843   1.202  24.795  0.00  0.00    +0.112 C 
BRANCH   7   6
ATOM      3  C   UNL     1      -5.624   3.386  25.659  0.00  0.00    +0.139 A 
ATOM      4  C   UNL     1      -5.169   3.353  24.973  0.00  0.00    +0.037 A 
ATOM      5  C   UNL     1      -4.908   2.624  24.684  0.00  0.00    -0.001 A 
ATOM      6  C   UNL     1      -5.103   1.930  25.083  0.00  0.00    -0.013 A 
ATOM     31  C   UNL     1      -5.559   1.962  25.770  0.00  0.00    -0.001 A 
ATOM     32  C   UNL     1      -5.820   2.690  26.059  0.00  0.00    +0.037 A 
BRANCH   3   2
ATOM      1  C   UNL     1      -5.897   4.773  25.451  0.00  0.00    +0.252 C 
ATOM      2  O   UNL     1      -5.884   4.113  25.947  0.00  0.00    -0.471 OA
ENDBRANCH   3   2
ENDBRANCH   7   6
ENDBRANCH   8   7
BRANCH  13  14
ATOM     14  C   UNL     1      -2.844  -2.000  24.584  0.00  0.00    +0.114 C 
BRANCH  14  15
ATOM     15  C   UNL     1      -3.350  -2.642  24.699  0.00  0.00    +0.365 C 
ATOM     16  O   UNL     1      -3.728  -2.990  24.054  0.00  0.00    -0.246 OA
ATOM     17  O   UNL     1      -3.476  -2.936  25.460  0.00  0.00    -0.246 OA
ENDBRANCH  14  15
ENDBRANCH  13  14
BRANCH  18  19
ATOM     19  C   UNL     1      -1.833  -0.716  24.355  0.00  0.00    +0.019 C 
BRANCH  19  20
ATOM     20  C   UNL     1      -1.277  -0.188  24.659  0.00  0.00    +0.072 C 
BRANCH  20  21
ATOM     21  N   UNL     1      -0.566  -0.062  24.260  0.00  0.00    -0.270 NA
ATOM     22  C   UNL     1      -0.199  -0.684  23.863  0.00  0.00    +0.094 C 
ATOM     23  C   UNL     1       0.512  -0.557  23.465  0.00  0.00    +0.111 C 
ATOM     24  N   UNL     1       0.856   0.193  23.463  0.00  0.00    -0.277 N 
ATOM     25  C   UNL     1       0.489   0.815  23.860  0.00  0.00    +0.111 C 
ATOM     26  C   UNL     1      -0.223   0.688  24.259  0.00  0.00    +0.094 C 
ATOM     27  C   UNL     1       1.567   0.321  23.065  0.00  0.00    +0.226 C 
ATOM     28  C   UNL     1       1.935  -0.303  22.667  0.00  0.00    +0.095 C 
ATOM     29  O   UNL     1       1.911   1.070  23.063  0.00  0.00    -0.275 OA
ENDBRANCH  20  21
ENDBRANCH  19  20
ENDBRANCH  18  19
TORSDOF 8
ENDMDL
MODEL 2
REMARK VINA RESULT:      -9.5      2.492      4.967
REMARK  Name = 
REMARK  8 active torsions:
REMARK  status: ('A' for Active; 'I' for Inactive)
REMARK    1  A    between atoms: O_2  and  C_3
REMARK    2  A    between atoms: C_6  and  C_7
REMARK    3  A    between atoms: C_7  and  C_8
REMARK    4  A    between atoms: C_13  and  C_14
REMARK    5  A    between atoms: C_14  and  C_15
REMARK    6  A    between atoms: C_18  and  C_19
REMARK    7  A    between atoms: C_19  and  C_20
REMARK    8  A    between atoms: C_20  and  N_21
REMARK                            x       y       z     vdW  Elec       q    Type
REMARK                         _______ _______ _______ _____ _____    ______ ____
ROOT
ATOM      8  C   UNL     1      -3.947   0.104  24.643  0.00  0.00    +0.230 C 
ATOM      9  O   UNL     1      -3.157   0.030  24.418  0.00  0.00    -0.275 OA
ATOM     10  N   UNL     1      -4.247   0.840  24.860  0.00  0.00    -0.279 N 
ATOM     11  C   UNL     1      -5.037   0.914  25.086  0.00  0.00    +0.093 C 
ATOM     12  C   UNL     1      -5.338   1.651  25.303  0.00  0.00    +0.022 C 
ATOM     13  C   UNL     1      -4.847   2.314  25.296  0.00  0.00    +0.015 C 
ATOM     18  C   UNL     1      -4.057   2.241  25.071  0.00  0.00    +0.022 C 
ATOM     30  C   UNL     1      -3.757   1.504  24.853  0.00  0.00    +0.093 C 
ENDROOT
BRANCH   8   7
ATOM      7  C   UNL     1      -4.437  -0.560  24.650  0.00  0.00    +0.112 C 
BRANCH   7   6
ATOM      3  C   UNL     1      -3.466  -2.819  24.369  0.00  0.00    +0.139 A 
ATOM      4  C   UNL     1      -3.331  -2.396  25.064  0.00  0.00    +0.037 A 
ATOM      5  C   UNL     1      -3.655  -1.643  25.157  0.00  0.00    -0.001 A 
ATOM      6  C   UNL     1      -4.113  -1.313  24.556  0.00  0.00    -0.013 A 
ATOM     31  C   UNL     1      -4.248  -1.736  23.861  0.00  0.00    -0.001 A 
ATOM     32  C   UNL     1      -3.924  -2.490  23.767  0.00  0.00    +0.037 A 
BRANCH   3   2
ATOM      1  C   UNL     1      -2.369  -3.658  23.997  0.00  0.00    +0.252 C 
ATOM      2  O   UNL     1      -3.142  -3.572  24.275  0.00  0.00    -0.471 OA
ENDBRANCH   3   2
ENDBRANCH   7   6
ENDBRANCH   8   7
BRANCH  13  14
ATOM     14  C   UNL     1      -5.147   3.051  25.514  0.00  0.00    +0.114 C 
BRANCH  14  15
ATOM     15  C   UNL     1      -5.889   3.105  25.872  0.00  0.00    +0.365 C 
ATOM     16  O   UNL     1      -6.544   3.338  25.429  0.00  0.00    -0.246 OA
ATOM     17  O   UNL     1      -5.974   2.927  26.673  0.00  0.00    -0.246 OA
ENDBRANCH  14  15
ENDBRANCH  13  14
BRANCH  18  19
ATOM     19  C   UNL     1      -3.566   2.904  25.063  0.00  0.00    +0.019 C 
BRANCH  19  20
ATOM     20  C   UNL     1      -2.803   2.855  25.371  0.00  0.00    +0.072 C 
BRANCH  20  21
ATOM     21  N   UNL     1      -2.249   3.442  25.199  0.00  0.00    -0.270 NA
ATOM     22  C   UNL     1      -1.581   3.262  24.751  0.00  0.00    +0.094 C 
ATOM     23  C   UNL     1      -1.029   3.849  24.579  0.00  0.00    +0.111 C 
ATOM     24  N   UNL     1      -1.144   4.618  24.856  0.00  0.00    -0.277 N 
ATOM     25  C   UNL     1      -1.812   4.799  25.304  0.00  0.00    +0.111 C 
ATOM     26  C   UNL     1      -2.366   4.211  25.476  0.00  0.00    +0.094 C 
ATOM     27  C   UNL     1      -0.591   5.207  24.685  0.00  0.00    +0.226 C 
ATOM     28  C   UNL     1       0.078   5.026  24.236  0.00  0.00    +0.095 C 
ATOM     29  O   UNL     1      -0.707   5.975  24.961  0.00  0.00    -0.275 OA
ENDBRANCH  20  21
ENDBRANCH  19  20
ENDBRANCH  18  19
TORSDOF 8
ENDMDL
MODEL 3
REMARK VINA RESULT:      -9.2      0.986      5.675
REMARK  Name = 
REMARK  8 active torsions:
REMARK  status: ('A' for Active; 'I' for Inactive)
REMARK    1  A    between atoms: O_2  and  C_3
REMARK    2  A    between atoms: C_6  and  C_7
REMARK    3  A    between atoms: C_7  and  C_8
REMARK    4  A    between atoms: C_13  and  C_14
REMARK    5  A    between atoms: C_14  and  C_15
REMARK    6  A    between atoms: C_18  and  C_19
REMARK    7  A    between atoms: C_19  and  C_20
REMARK    8  A    between atoms: C_20  and  N_21
REMARK                            x       y       z     vdW  Elec       q    Type
REMARK                         _______ _______ _______ _____ _____    ______ ____
ROOT
ATOM      8  C   UNL     1      -0.650  -0.119  24.030  0.00  0.00    +0.230 C 
ATOM      9  O   UNL     1      -0.600   0.698  23.935  0.00  0.00    -0.275 OA
ATOM     10  N   UNL     1      -1.358  -0.463  24.276  0.00  0.00    -0.279 N 
ATOM     11  C   UNL     1      -1.407  -1.282  24.371  0.00  0.00    +0.093 C 
ATOM     12  C   UNL     1      -2.116  -1.626  24.617  0.00  0.00    +0.022 C 
ATOM     13  C   UNL     1      -2.774  -1.152  24.766  0.00  0.00    +0.015 C 
ATOM     18  C   UNL     1      -2.725  -0.335  24.671  0.00  0.00    +0.022 C 
ATOM     30  C   UNL     1      -2.017   0.010  24.425  0.00  0.00    +0.093 C 
ENDROOT
BRANCH   8   7
ATOM      7  C   UNL     1       0.009  -0.593  23.881  0.00  0.00    +0.112 C 
BRANCH   7   6
ATOM      3  C   UNL     1       1.971   0.352  22.704  0.00  0.00    +0.139 A 
ATOM      4  C   UNL     1       1.772   0.623  23.457  0.00  0.00    +0.037 A 
ATOM      5  C   UNL     1       1.118   0.307  23.850  0.00  0.00    -0.001 A 
ATOM      6  C   UNL     1       0.663  -0.278  23.489  0.00  0.00    -0.013 A 
ATOM     31  C   UNL     1       0.862  -0.549  22.735  0.00  0.00    -0.001 A 
ATOM     32  C   UNL     1       1.517  -0.234  22.342  0.00  0.00    +0.037 A 
BRANCH   3   2
ATOM      1  C   UNL     1       3.381   0.578  22.632  0.00  0.00    +0.252 C 
ATOM      2  O   UNL     1       2.625   0.667  22.312  0.00  0.00    -0.471 OA
ENDBRANCH   3   2
ENDBRANCH   7   6
ENDBRANCH   8   7
BRANCH  13  14
ATOM     14  C   UNL     1      -3.483  -1.497  25.012  0.00  0.00    +0.114 C 
BRANCH  14  15
ATOM     15  C   UNL     1      -3.586  -2.314  24.955  0.00  0.00    +0.365 C 
ATOM     16  O   UNL     1      -3.866  -2.646  24.254  0.00  0.00    -0.246 OA
ATOM     17  O   UNL     1      -3.409  -2.798  25.599  0.00  0.00    -0.246 OA
ENDBRANCH  14  15
ENDBRANCH  13  14
BRANCH  18  19
ATOM     19  C   UNL     1      -3.383   0.139  24.820  0.00  0.00    +0.019 C 
BRANCH  19  20
ATOM     20  C   UNL     1      -3.495   0.836  24.393  0.00  0.00    +0.072 C 
BRANCH  20  21
ATOM     21  N   UNL     1      -3.981   1.431  24.693  0.00  0.00    -0.270 NA
ATOM     22  C   UNL     1      -3.737   2.219  24.660  0.00  0.00    +0.094 C 
ATOM     23  C   UNL     1      -4.223   2.813  24.960  0.00  0.00    +0.111 C 
ATOM     24  N   UNL     1      -4.953   2.622  25.293  0.00  0.00    -0.277 N 
ATOM     25  C   UNL     1      -5.197   1.834  25.326  0.00  0.00    +0.111 C 
ATOM     26  C   UNL     1      -4.710   1.239  25.026  0.00  0.00    +0.094 C 
ATOM     27  C   UNL     1      -5.439   3.217  25.594  0.00  0.00    +0.226 C 
ATOM     28  C   UNL     1      -5.195   4.005  25.561  0.00  0.00    +0.095 C 
ATOM     29  O   UNL     1      -6.169   3.025  25.927  0.00  0.00    -0.275 OA
ENDBRANCH  20  21
ENDBRANCH  19  20
ENDBRANCH  18  19
TORSDOF 8
ENDMDL
MODEL 4
REMARK VINA RESULT:      -8.7      2.528      4.537
REMARK  Name = 
REMARK  8 active torsions:
REMARK  status: ('A' for Active; 'I' for Inactive)
REMARK    1  A    between atoms: O_2  and  C_3
REMARK    2  A    between atoms: C_6  and  C_7
REMARK    3  A    between atoms: C_7  and  C_8
REMARK    4  A    between atoms: C_13  and  C_14
REMARK    5  A    between atoms: C_14  and  C_15
REMARK    6  A    between atoms: C_18  and  C_19
REMARK    7  A    between atoms: C_19  and  C_20
REMARK    8  A    between atoms: C_20  and  N_21
REMARK                            x       y       z     vdW  Elec       q    Type
REMARK                         _______ _______ _______ _____ _____    ______ ____
ROOT
ATOM      8  C   UNL     1      -2.865   2.923  25.473  0.00  0.00    +0.230 C 
ATOM      9  O   UNL     1      -2.173   2.496  25.335  0.00  0.00    -0.275 OA
ATOM     10  N   UNL     1      -3.599   2.561  25.378  0.00  0.00    -0.279 N 
ATOM     11  C   UNL     1      -4.291   2.989  25.516  0.00  0.00    +0.093 C 
ATOM     12  C   UNL     1      -5.026   2.627  25.421  0.00  0.00    +0.022 C 
ATOM     13  C   UNL     1      -5.069   1.836  25.188  0.00  0.00    +0.015 C 
ATOM     18  C   UNL     1      -4.378   1.409  25.049  0.00  0.00    +0.022 C 
ATOM     30  C   UNL     1      -3.643   1.771  25.144  0.00  0.00    +0.093 C 
ENDROOT
BRANCH   8   7
ATOM      7  C   UNL     1      -2.821   3.714  25.706  0.00  0.00    +0.112 C 
BRANCH   7   6
ATOM      3  C   UNL     1      -0.931   5.124  24.957  0.00  0.00    +0.139 A 
ATOM      4  C   UNL     1      -1.689   5.444  25.007  0.00  0.00    +0.037 A 
ATOM      5  C   UNL     1      -2.320   4.973  25.257  0.00  0.00    -0.001 A 
ATOM      6  C   UNL     1      -2.191   4.184  25.456  0.00  0.00    -0.013 A 
ATOM     31  C   UNL     1      -1.433   3.863  25.406  0.00  0.00    -0.001 A 
ATOM     32  C   UNL     1      -0.802   4.334  25.156  0.00  0.00    +0.037 A 
BRANCH   3   2
ATOM      1  C   UNL     1       0.132   5.383  24.036  0.00  0.00    +0.252 C 
ATOM      2  O   UNL     1      -0.301   5.594  24.707  0.00  0.00    -0.471 OA
ENDBRANCH   3   2
ENDBRANCH   7   6
ENDBRANCH   8   7
BRANCH  13  14
ATOM     14  C   UNL     1      -5.804   1.474  25.093  0.00  0.00    +0.114 C 
BRANCH  14  15
ATOM     15  C   UNL     1      -6.490   1.862  25.339  0.00  0.00    +0.365 C 
ATOM     16  O   UNL     1      -6.985   2.217  24.782  0.00  0.00    -0.246 OA
ATOM     17  O   UNL     1      -6.682   1.893  26.141  0.00  0.00    -0.246 OA
ENDBRANCH  14  15
ENDBRANCH  13  14
BRANCH  18  19
ATOM     19  C   UNL     1      -4.421   0.619  24.816  0.00  0.00    +0.019 C 
BRANCH  19  20
ATOM     20  C   UNL     1      -3.750   0.240  24.520  0.00  0.00    +0.072 C 
BRANCH  20  21
ATOM     21  N   UNL     1      -3.725  -0.584  24.480  0.00  0.00    -0.270 NA
ATOM     22  C   UNL     1      -3.236  -1.008  24.991  0.00  0.00    +0.094 C 
ATOM     23  C   UNL     1      -3.211  -1.831  24.950  0.00  0.00    +0.111 C 
ATOM     24  N   UNL     1      -3.675  -2.231  24.398  0.00  0.00    -0.277 N 
ATOM     25  C   UNL     1      -4.165  -1.807  23.887  0.00  0.00    +0.111 C 
ATOM     26  C   UNL     1      -4.189  -0.983  23.927  0.00  0.00    +0.094 C 
ATOM     27  C   UNL     1      -3.651  -3.055  24.357  0.00  0.00    +0.226 C 
ATOM     28  C   UNL     1      -3.161  -3.479  24.869  0.00  0.00    +0.095 C 
ATOM     29  O   UNL     1      -4.115  -3.454  23.805  0.00  0.00    -0.275 OA
ENDBRANCH  20  21
ENDBRANCH  19  20
ENDBRANCH  18  19
TORSDOF 8
ENDMDL
MODEL 5
REMARK VINA RESULT:      -8.4      1.941      6.409
REMARK  Name = 
REMARK  8 active torsions:
REMARK  status: ('A' for Active; 'I' for Inactive)
REMARK    1  A    between atoms: O_2  and  C_3
REMARK    2  A    between atoms: C_6  and  C_7
REMARK    3  A    between atoms: C_7  and  C_8
REMARK    4  A    between atoms: C_13  and  C_14
REMARK    5  A    between atoms: C_14  and  C_15
REMARK    6  A    between atoms: C_18  and  C_19
REMARK    7  A    between atoms: C_19  and  C_20
REMARK    8  A    between atoms: C_20  and  N_21
REMARK                            x       y       z     vdW  Elec       q    Type
REMARK                         _______ _______ _______ _____ _____    ______ ____
ROOT
ATOM      8  C   UNL     1       1.363   0.482  23.213  0.00  0.00    +0.230 C 
ATOM      9  O   UNL     1       1.536   1.288  23.233  0.00  0.00    -0.275 OA
ATOM     10  N   UNL     1       0.673   0.199  23.564  0.00  0.00    -0.279 N 
ATOM     11  C   UNL     1       0.499  -0.608  23.544  0.00  0.00    +0.093 C 
ATOM     12  C   UNL     1      -0.192  -0.890  23.896  0.00  0.00    +0.022 C 
ATOM     13  C   UNL     1      -0.709  -0.366  24.267  0.00  0.00    +0.015 C 
ATOM     18  C   UNL     1      -0.537   0.440  24.287  0.00  0.00    +0.022 C 
ATOM     30  C   UNL     1       0.154   0.722  23.935  0.00  0.00    +0.093 C 
ENDROOT
BRANCH   8   7
ATOM      7  C   UNL     1       1.881  -0.043  22.842  0.00  0.00    +0.112 C 
BRANCH   7   6
ATOM      3  C   UNL     1       4.323   0.343  22.956  0.00  0.00    +0.139 A 
ATOM      4  C   UNL     1       3.841   0.876  22.552  0.00  0.00    +0.037 A 
ATOM      5  C   UNL     1       3.026   0.747  22.514  0.00  0.00    -0.001 A 
ATOM      6  C   UNL     1       2.695   0.086  22.880  0.00  0.00    -0.013 A 
ATOM     31  C   UNL     1       3.178  -0.447  23.284  0.00  0.00    -0.001 A 
ATOM     32  C   UNL     1       3.993  -0.318  23.322  0.00  0.00    +0.037 A 
BRANCH   3   2
ATOM      1  C   UNL     1       5.589   0.095  23.574  0.00  0.00    +0.252 C 
ATOM      2  O   UNL     1       5.137   0.472  22.994  0.00  0.00    -0.471 OA
ENDBRANCH   3   2
ENDBRANCH   7   6
ENDBRANCH   8   7
BRANCH  13  14
ATOM     14  C   UNL     1      -1.400  -0.649  24.618  0.00  0.00    +0.114 C 
BRANCH  14  15
ATOM     15  C   UNL     1      -1.507  -1.460  24.724  0.00  0.00    +0.365 C 
ATOM     16  O   UNL     1      -1.972  -1.887  24.193  0.00  0.00    -0.246 OA
ATOM     17  O   UNL     1      -1.150  -1.844  25.361  0.00  0.00    -0.246 OA
ENDBRANCH  14  15
ENDBRANCH  13  14
BRANCH  18  19
ATOM     19  C   UNL     1      -1.055   0.964  24.658  0.00  0.00    +0.019 C 
BRANCH  19  20
ATOM     20  C   UNL     1      -1.062   1.760  24.439  0.00  0.00    +0.072 C 
BRANCH  20  21
ATOM     21  N   UNL     1      -1.607   2.277  24.780  0.00  0.00    -0.270 NA
ATOM     22  C   UNL     1      -2.372   2.330  24.476  0.00  0.00    +0.094 C 
ATOM     23  C   UNL     1      -2.916   2.847  24.817  0.00  0.00    +0.111 C 
ATOM     24  N   UNL     1      -2.696   3.311  25.463  0.00  0.00    -0.277 N 
ATOM     25  C   UNL     1      -1.931   3.258  25.767  0.00  0.00    +0.111 C 
ATOM     26  C   UNL     1      -1.386   2.740  25.425  0.00  0.00    +0.094 C 
ATOM     27  C   UNL     1      -3.240   3.829  25.805  0.00  0.00    +0.226 C 
ATOM     28  C   UNL     1      -4.006   3.882  25.501  0.00  0.00    +0.095 C 
ATOM     29  O   UNL     1      -3.020   4.293  26.450  0.00  0.00    -0.275 OA
ENDBRANCH  20  21
ENDBRANCH  19  20
ENDBRANCH  18  19
TORSDOF 8
ENDMDL
MODEL 6
REMARK VINA RESULT:      -8.3      2.313      4.537
REMARK  Name = 
REMARK  8 active torsions:
REMARK  status: ('A' for Active; 'I' for Inactive)
REMARK    1  A    between atoms: O_2  and  C_3
REMARK    2  A    between atoms: C_6  and  C_7
REMARK    3  A    between atoms: C_7  and  C_8
REMARK    4  A    between atoms: C_13  and  C_14
REMARK    5  A    between atoms: C_14  and  C_15
REMARK    6  A    between atoms: C_18  and  C_19
REMARK    7  A    between atoms: C_19  and  C_20
REMARK    8  A    between atoms: C_20  and  N_21
REMARK                            x       y       z     vdW  Elec       q    Type
REMARK                         _______ _______ _______ _____ _____    ______ ____
ROOT
ATOM      8  C   UNL     1      -0.475   2.094  25.171  0.00  0.00    +0.230 C 
ATOM      9  O   UNL     1      -1.136   1.976  25.651  0.00  0.00    -0.275 OA
ATOM     10  N   UNL     1      -0.196   1.482  24.696  0.00  0.00    -0.279 N 
ATOM     11  C   UNL     1       0.465   1.601  24.216  0.00  0.00    +0.093 C 
ATOM     12  C   UNL     1       0.745   0.988  23.740  0.00  0.00    +0.022 C 
ATOM     13  C   UNL     1       0.364   0.257  23.743  0.00  0.00    +0.015 C 
ATOM     18  C   UNL     1      -0.296   0.137  24.222  0.00  0.00    +0.022 C 
ATOM     30  C   UNL     1      -0.576   0.750  24.698  0.00  0.00    +0.093 C 
ENDROOT
BRANCH   8   7
ATOM      7  C   UNL     1      -0.094   2.827  25.168  0.00  0.00    +0.112 C 
BRANCH   7   6
ATOM      3  C   UNL     1      -1.424   4.914  25.205  0.00  0.00    +0.139 A 
ATOM      4  C   UNL     1      -1.669   4.262  25.646  0.00  0.00    +0.037 A 
ATOM      5  C   UNL     1      -1.225   3.565  25.634  0.00  0.00    -0.001 A 
ATOM      6  C   UNL     1      -0.538   3.522  25.181  0.00  0.00    -0.013 A 
ATOM     31  C   UNL     1      -0.292   4.175  24.739  0.00  0.00    -0.001 A 
ATOM     32  C   UNL     1      -0.736   4.872  24.752  0.00  0.00    +0.037 A 
BRANCH   3   2
ATOM      1  C   UNL     1      -2.676   5.581  25.378  0.00  0.00    +0.252 C 
ATOM      2  O   UNL     1      -1.867   5.610  25.217  0.00  0.00    -0.471 OA
ENDBRANCH   3   2
ENDBRANCH   7   6
ENDBRANCH   8   7
BRANCH  13  14
ATOM     14  C   UNL     1       0.644  -0.356  23.267  0.00  0.00    +0.114 C 
BRANCH  14  15
ATOM     15  C   UNL     1       1.255  -0.216  22.730  0.00  0.00    +0.365 C 
ATOM     16  O   UNL     1       1.080  -0.053  21.940  0.00  0.00    -0.246 OA
ATOM     17  O   UNL     1       2.040  -0.237  22.983  0.00  0.00    -0.246 OA
ENDBRANCH  14  15
ENDBRANCH  13  14
BRANCH  18  19
ATOM     19  C   UNL     1      -0.678  -0.594  24.226  0.00  0.00    +0.019 C 
BRANCH  19  20
ATOM     20  C   UNL     1      -1.220  -0.773  24.821  0.00  0.00    +0.072 C 
BRANCH  20  21
ATOM     21  N   UNL     1      -1.857  -1.273  24.663  0.00  0.00    -0.270 NA
ATOM     22  C   UNL     1      -2.583  -0.957  24.431  0.00  0.00    +0.094 C 
ATOM     23  C   UNL     1      -3.219  -1.457  24.273  0.00  0.00    +0.111 C 
ATOM     24  N   UNL     1      -3.130  -2.274  24.347  0.00  0.00    -0.277 N 
ATOM     25  C   UNL     1      -2.404  -2.590  24.579  0.00  0.00    +0.111 C 
ATOM     26  C   UNL     1      -1.767  -2.090  24.737  0.00  0.00    +0.094 C 
ATOM     27  C   UNL     1      -3.766  -2.775  24.189  0.00  0.00    +0.226 C 
ATOM     28  C   UNL     1      -4.493  -2.459  23.956  0.00  0.00    +0.095 C 
ATOM     29  O   UNL     1      -3.677  -3.592  24.263  0.00  0.00    -0.275 OA
ENDBRANCH  20  21
ENDBRANCH  19  20
ENDBRANCH  18  19
TORSDOF 8
ENDMDL
MODEL 7
REMARK VINA RESULT:      -8.0      2.550      4.322
REMARK  Name = 
REMARK  8 active torsions:
REMARK  status: ('A' for Active; 'I' for Inactive)
REMARK    1  A    between atoms: O_2  and  C_3
REMARK    2  A    between atoms: C_6  and  C_7
REMARK    3  A    between atoms: C_7  and  C_8
REMARK    4  A    between atoms: C_13  and  C_14
REMARK    5  A    between atoms: C_14  and  C_15
REMARK    6  A    between atoms: C_18  and  C_19
REMARK    7  A    between atoms: C_19  and  C_20
REMARK    8  A    between atoms: C_20  and  N_21
REMARK                            x       y       z     vdW  Elec       q    Type
REMARK                         _______ _______ _______ _____ _____    ______ ____
ROOT
ATOM      8  C   UNL     1      -1.831  -0.462  24.718  0.00  0.00    +0.230 C 
ATOM      9  O   UNL     1      -1.535  -1.044  24.214  0.00  0.00    -0.275 OA
ATOM     10  N   UNL     1      -1.398   0.227  24.851  0.00  0.00    -0.279 N 
ATOM     11  C   UNL     1      -1.695   0.810  25.355  0.00  0.00    +0.093 C 
ATOM     12  C   UNL     1      -1.262   1.500  25.488  0.00  0.00    +0.022 C 
ATOM     13  C   UNL     1      -0.533   1.607  25.116  0.00  0.00    +0.015 C 
ATOM     18  C   UNL     1      -0.237   1.026  24.612  0.00  0.00    +0.022 C 
ATOM     30  C   UNL     1      -0.670   0.336  24.479  0.00  0.00    +0.093 C 
ENDROOT
BRANCH   8   7
ATOM      7  C   UNL     1      -2.560  -0.570  25.090  0.00  0.00    +0.112 C 
BRANCH   7   6
ATOM      3  C   UNL     1      -4.158  -2.246  24.218  0.00  0.00    +0.139 A 
ATOM      4  C   UNL     1      -3.579  -2.472  24.760  0.00  0.00    +0.037 A 
ATOM      5  C   UNL     1      -3.046  -1.912  25.051  0.00  0.00    -0.001 A 
ATOM      6  C   UNL     1      -3.093  -1.129  24.799  0.00  0.00    -0.013 A 
ATOM     31  C   UNL     1      -3.672  -0.902  24.257  0.00  0.00    -0.001 A 
ATOM     32  C   UNL     1      -4.205  -1.462  23.965  0.00  0.00    +0.037 A 
BRANCH   3   2
ATOM      1  C   UNL     1      -4.428  -3.400  23.419  0.00  0.00    +0.252 C 
ATOM      2  O   UNL     1      -4.691  -2.805  23.927  0.00  0.00    -0.471 OA
ENDBRANCH   3   2
ENDBRANCH   7   6
ENDBRANCH   8   7
BRANCH  13  14
ATOM     14  C   UNL     1      -0.101   2.297  25.248  0.00  0.00    +0.114 C 
BRANCH  14  15
ATOM     15  C   UNL     1      -0.305   2.799  25.871  0.00  0.00    +0.365 C 
ATOM     16  O   UNL     1      -0.778   3.460  25.730  0.00  0.00    -0.246 OA
ATOM     17  O   UNL     1      -0.036   2.640  26.635  0.00  0.00    -0.246 OA
ENDBRANCH  14  15
ENDBRANCH  13  14
BRANCH  18  19
ATOM     19  C   UNL     1       0.491   1.133  24.240  0.00  0.00    +0.019 C 
BRANCH  19  20
ATOM     20  C   UNL     1       0.648   0.754  23.524  0.00  0.00    +0.072 C 
BRANCH  20  21
ATOM     21  N   UNL     1       1.424   0.693  23.250  0.00  0.00    -0.270 NA
ATOM     22  C   UNL     1       1.991   1.242  23.490  0.00  0.00    +0.094 C 
ATOM     23  C   UNL     1       2.766   1.180  23.216  0.00  0.00    +0.111 C 
ATOM     24  N   UNL     1       2.975   0.570  22.701  0.00  0.00    -0.277 N 
ATOM     25  C   UNL     1       2.408   0.022  22.461  0.00  0.00    +0.111 C 
ATOM     26  C   UNL     1       1.631   0.083  22.735  0.00  0.00    +0.094 C 
ATOM     27  C   UNL     1       3.751   0.508  22.426  0.00  0.00    +0.226 C 
ATOM     28  C   UNL     1       4.318   1.058  22.667  0.00  0.00    +0.095 C 
ATOM     29  O   UNL     1       3.959  -0.101  21.912  0.00  0.00    -0.275 OA
ENDBRANCH  20  21
ENDBRANCH  19  20
ENDBRANCH  18  19
TORSDOF 8
ENDMDL
MODEL 8
REMARK VINA RESULT:      -6.6     13.476     15.817
REMARK  Name = 
REMARK  8 active torsions:
REMARK  status: ('A' for Active; 'I' for Inactive)
REMARK    1  A    between atoms: O_2  and  C_3
REMARK    2  A    between atoms: C_6  and  C_7
REMARK    3  A    between atoms: C_7  and  C_8
REMARK    4  A    between atoms: C_13  and  C_14
REMARK    5  A    between atoms: C_14  and  C_15
REMARK    6  A    between atoms: C_18  and  C_19
REMARK    7  A    between atoms: C_19  and  C_20
REMARK    8  A    between atoms: C_20  and  N_21
REMARK                            x       y       z     vdW  Elec       q    Type
REMARK                         _______ _______ _______ _____ _____    ______ ____
ROOT
ATOM      8  C   UNL     1      -6.288  -9.612  12.745  0.00  0.00    +0.230 C 
ATOM      9  O   UNL     1      -5.517  -9.650  13.035  0.00  0.00    -0.275 OA
ATOM     10  N   UNL     1      -6.927  -9.710  13.257  0.00  0.00    -0.279 N 
ATOM     11  C   UNL     1      -7.698  -9.672  12.966  0.00  0.00    +0.093 C 
ATOM     12  C   UNL     1      -8.338  -9.771  13.478  0.00  0.00    +0.022 C 
ATOM     13  C   UNL     1      -8.205  -9.909  14.281  0.00  0.00    +0.015 C 
ATOM     18  C   UNL     1      -7.435  -9.947  14.571  0.00  0.00    +0.022 C 
ATOM     30  C   UNL     1      -6.795  -9.848  14.059  0.00  0.00    +0.093 C 
ENDROOT
BRANCH   8   7
ATOM      7  C   UNL     1      -6.420  -9.474  11.942  0.00  0.00    +0.112 C 
BRANCH   7   6
ATOM      3  C   UNL     1      -4.510  -9.025  10.433  0.00  0.00    +0.139 A 
ATOM      4  C   UNL     1      -4.984  -8.404  10.694  0.00  0.00    +0.037 A 
ATOM      5  C   UNL     1      -5.621  -8.553  11.198  0.00  0.00    -0.001 A 
ATOM      6  C   UNL     1      -5.783  -9.325  11.439  0.00  0.00    -0.013 A 
ATOM     31  C   UNL     1      -5.309  -9.948  11.178  0.00  0.00    -0.001 A 
ATOM     32  C   UNL     1      -4.672  -9.798  10.674  0.00  0.00    +0.037 A 
BRANCH   3   2
ATOM      1  C   UNL     1      -3.126  -9.179  10.108  0.00  0.00    +0.252 C 
ATOM      2  O   UNL     1      -3.873  -8.876   9.930  0.00  0.00    -0.471 OA
ENDBRANCH   3   2
ENDBRANCH   7   6
ENDBRANCH   8   7
BRANCH  13  14
ATOM     14  C   UNL     1      -8.844 -10.008  14.793  0.00  0.00    +0.114 C 
BRANCH  14  15
ATOM     15  C   UNL     1      -9.609  -9.831  14.537  0.00  0.00    +0.365 C 
ATOM     16  O   UNL     1     -10.099 -10.432  14.258  0.00  0.00    -0.246 OA
ATOM     17  O   UNL     1      -9.883  -9.053  14.562  0.00  0.00    -0.246 OA
ENDBRANCH  14  15
ENDBRANCH  13  14
BRANCH  18  19
ATOM     19  C   UNL     1      -7.302 -10.084  15.374  0.00  0.00    +0.019 C 
BRANCH  19  20
ATOM     20  C   UNL     1      -6.712  -9.666  15.772  0.00  0.00    +0.072 C 
BRANCH  20  21
ATOM     21  N   UNL     1      -6.504  -9.876  16.542  0.00  0.00    -0.270 NA
ATOM     22  C   UNL     1      -7.057  -9.813  17.151  0.00  0.00    +0.094 C 
ATOM     23  C   UNL     1      -6.848 -10.023  17.920  0.00  0.00    +0.111 C 
ATOM     24  N   UNL     1      -6.087 -10.297  18.082  0.00  0.00    -0.277 N 
ATOM     25  C   UNL     1      -5.534 -10.360  17.473  0.00  0.00    +0.111 C 
ATOM     26  C   UNL     1      -5.743 -10.150  16.702  0.00  0.00    +0.094 C 
ATOM     27  C   UNL     1      -5.878 -10.508  18.852  0.00  0.00    +0.226 C 
ATOM     28  C   UNL     1      -6.431 -10.444  19.461  0.00  0.00    +0.095 C 
ATOM     29  O   UNL     1      -5.117 -10.781  19.013  0.00  0.00    -0.275 OA
ENDBRANCH  20  21
ENDBRANCH  19  20
ENDBRANCH  18  19
TORSDOF 8
ENDMDL
MODEL 9
REMARK VINA RESULT:      -6.6     14.143     16.591
REMARK  Name = 
REMARK  8 active torsions:
REMARK  status: ('A' for Active; 'I' for Inactive)
REMARK    1  A    between atoms: O_2  and  C_3
REMARK    2  A    between atoms: C_6  and  C_7
REMARK    3  A    between atoms: C_7  and  C_8
REMARK    4  A    between atoms: C_13  and  C_14
REMARK    5  A    between atoms: C_14  and  C_15
REMARK    6  A    between atoms: C_18  and  C_19
REMARK    7  A    between atoms: C_19  and  C_20
REMARK    8  A    between atoms: C_20  and  N_21
REMARK                            x       y       z     vdW  Elec       q    Type
REMARK                         _______ _______ _______ _____ _____    ______ ____
ROOT
ATOM      8  C   UNL     1      -4.007 -10.233  12.104  0.00  0.00    +0.230 C 
ATOM      9  O   UNL     1      -3.575 -10.272  12.806  0.00  0.00    -0.275 OA
ATOM     10  N   UNL     1      -4.824 -10.130  12.128  0.00  0.00    -0.279 N 
ATOM     11  C   UNL     1      -5.256 -10.092  11.425  0.00  0.00    +0.093 C 
ATOM     12  C   UNL     1      -6.074  -9.989  11.448  0.00  0.00    +0.022 C 
ATOM     13  C   UNL     1      -6.460  -9.924  12.175  0.00  0.00    +0.015 C 
ATOM     18  C   UNL     1      -6.030  -9.963  12.876  0.00  0.00    +0.022 C 
ATOM     30  C   UNL     1      -5.211 -10.066  12.853  0.00  0.00    +0.093 C 
ENDROOT
BRANCH   8   7
ATOM      7  C   UNL     1      -3.619 -10.298  11.378  0.00  0.00    +0.112 C 
BRANCH   7   6
ATOM      3  C   UNL     1      -1.316  -9.429  11.122  0.00  0.00    +0.139 A 
ATOM      4  C   UNL     1      -1.935  -9.087  10.698  0.00  0.00    +0.037 A 
ATOM      5  C   UNL     1      -2.703  -9.377  10.783  0.00  0.00    -0.001 A 
ATOM      6  C   UNL     1      -2.851 -10.008  11.293  0.00  0.00    -0.013 A 
ATOM     31  C   UNL     1      -2.232 -10.351  11.717  0.00  0.00    -0.001 A 
ATOM     32  C   UNL     1      -1.464 -10.061  11.632  0.00  0.00    +0.037 A 
BRANCH   3   2
ATOM      1  C   UNL     1      -0.263  -8.565  11.557  0.00  0.00    +0.252 C 
ATOM      2  O   UNL     1      -0.548  -9.139  11.037  0.00  0.00    -0.471 OA
ENDBRANCH   3   2
ENDBRANCH   7   6
ENDBRANCH   8   7
BRANCH  13  14
ATOM     14  C   UNL     1      -7.278  -9.821  12.198  0.00  0.00    +0.114 C 
BRANCH  14  15
ATOM     15  C   UNL     1      -7.714  -9.815  11.497  0.00  0.00    +0.365 C 
ATOM     16  O   UNL     1      -8.034 -10.517  11.204  0.00  0.00    -0.246 OA
ATOM     17  O   UNL     1      -7.830  -9.107  11.089  0.00  0.00    -0.246 OA
ENDBRANCH  14  15
ENDBRANCH  13  14
BRANCH  18  19
ATOM     19  C   UNL     1      -6.416  -9.898  13.603  0.00  0.00    +0.019 C 
BRANCH  19  20
ATOM     20  C   UNL     1      -6.030 -10.123  14.296  0.00  0.00    +0.072 C 
BRANCH  20  21
ATOM     21  N   UNL     1      -6.401 -10.025  15.026  0.00  0.00    -0.270 NA
ATOM     22  C   UNL     1      -7.184 -10.265  15.127  0.00  0.00    +0.094 C 
ATOM     23  C   UNL     1      -7.554 -10.166  15.857  0.00  0.00    +0.111 C 
ATOM     24  N   UNL     1      -7.142  -9.827  16.487  0.00  0.00    -0.277 N 
ATOM     25  C   UNL     1      -6.360  -9.587  16.386  0.00  0.00    +0.111 C 
ATOM     26  C   UNL     1      -5.988  -9.686  15.655  0.00  0.00    +0.094 C 
ATOM     27  C   UNL     1      -7.512  -9.728  17.218  0.00  0.00    +0.226 C 
ATOM     28  C   UNL     1      -8.296  -9.969  17.319  0.00  0.00    +0.095 C 
ATOM     29  O   UNL     1      -7.101  -9.389  17.847  0.00  0.00    -0.275 OA
ENDBRANCH  20  21
ENDBRANCH  19  20
ENDBRANCH  18  19
TORSDOF 8
ENDMDL
MODEL 10
REMARK VINA RESULT:      -6.2     15.919     17.953
REMARK  Name = 
REMARK  8 active torsions:
REMARK  status: ('A' for Active; 'I' for Inactive)
REMARK    1  A    between atoms: O_2  and  C_3
REMARK    2  A    between atoms: C_6  and  C_7
REMARK    3  A    between atoms: C_7  and  C_8
REMARK    4  A    between atoms: C_13  and  C_14
REMARK    5  A    between atoms: C_14  and  C_15
REMARK    6  A    between atoms: C_18  and  C_19
REMARK    7  A    between atoms: C_19  and  C_20
REMARK    8  A    between atoms: C_20  and  N_21
REMARK                            x       y       z     vdW  Elec       q    Type
REMARK                         _______ _______ _______ _____ _____    ______ ____
ROOT
ATOM      8  C   UNL     1      -4.719  -9.728  10.700  0.00  0.00    +0.230 C 
ATOM      9  O   UNL     1      -4.636 -10.027  11.465  0.00  0.00    -0.275 OA
ATOM     10  N   UNL     1      -5.452  -9.457  10.441  0.00  0.00    -0.279 N 
ATOM     11  C   UNL     1      -5.534  -9.158   9.675  0.00  0.00    +0.093 C 
ATOM     12  C   UNL     1      -6.269  -8.886   9.415  0.00  0.00    +0.022 C 
ATOM     13  C   UNL     1      -6.921  -8.913   9.921  0.00  0.00    +0.015 C 
ATOM     18  C   UNL     1      -6.839  -9.211  10.685  0.00  0.00    +0.022 C 
ATOM     30  C   UNL     1      -6.104  -9.483  10.945  0.00  0.00    +0.093 C 
ENDROOT
BRANCH   8   7
ATOM      7  C   UNL     1      -4.066  -9.702  10.195  0.00  0.00    +0.112 C 
BRANCH   7   6
ATOM      3  C   UNL     1      -1.778  -9.612  11.134  0.00  0.00    +0.139 A 
ATOM      4  C   UNL     1      -2.067  -8.978  10.693  0.00  0.00    +0.037 A 
ATOM      5  C   UNL     1      -2.831  -9.008  10.380  0.00  0.00    -0.001 A 
ATOM      6  C   UNL     1      -3.303  -9.672  10.508  0.00  0.00    -0.013 A 
ATOM     31  C   UNL     1      -3.014 -10.306  10.950  0.00  0.00    -0.001 A 
ATOM     32  C   UNL     1      -2.250 -10.276  11.263  0.00  0.00    +0.037 A 
BRANCH   3   2
ATOM      1  C   UNL     1      -0.494  -8.987  11.208  0.00  0.00    +0.252 C 
ATOM      2  O   UNL     1      -1.015  -9.581  11.447  0.00  0.00    -0.471 OA
ENDBRANCH   3   2
ENDBRANCH   7   6
ENDBRANCH   8   7
BRANCH  13  14
ATOM     14  C   UNL     1      -7.655  -8.641   9.660  0.00  0.00    +0.114 C 
BRANCH  14  15
ATOM     15  C   UNL     1      -7.737  -8.343   8.895  0.00  0.00    +0.365 C 
ATOM     16  O   UNL     1      -7.625  -7.539   8.751  0.00  0.00    -0.246 OA
ATOM     17  O   UNL     1      -7.932  -8.850   8.274  0.00  0.00    -0.246 OA
ENDBRANCH  14  15
ENDBRANCH  13  14
BRANCH  18  19
ATOM     19  C   UNL     1      -7.491  -9.238  11.190  0.00  0.00    +0.019 C 
BRANCH  19  20
ATOM     20  C   UNL     1      -7.506  -9.777  11.815  0.00  0.00    +0.072 C 
BRANCH  20  21
ATOM     21  N   UNL     1      -8.116  -9.749  12.369  0.00  0.00    -0.270 NA
ATOM     22  C   UNL     1      -8.889  -9.927  12.142  0.00  0.00    +0.094 C 
ATOM     23  C   UNL     1      -9.497  -9.899  12.697  0.00  0.00    +0.111 C 
ATOM     24  N   UNL     1      -9.335  -9.693  13.480  0.00  0.00    -0.277 N 
ATOM     25  C   UNL     1      -8.562  -9.516  13.707  0.00  0.00    +0.111 C 
ATOM     26  C   UNL     1      -7.951  -9.543  13.151  0.00  0.00    +0.094 C 
ATOM     27  C   UNL     1      -9.944  -9.665  14.036  0.00  0.00    +0.226 C 
ATOM     28  C   UNL     1     -10.718  -9.843  13.808  0.00  0.00    +0.095 C 
ATOM     29  O   UNL     1      -9.781  -9.460  14.817  0.00  0.00    -0.275 OA
ENDBRANCH  20  21
ENDBRANCH  19  20
ENDBRANCH  18  19
TORSDOF 8
ENDMDL
