MODEL 1
REMARK VINA RESULT:     -10.1      0.000      0.000
REMARK  Name = 
REMARK  5 active torsions:
REMARK  status: ('A' for Active; 'I' for Inactive)
REMARK    1  A    between atoms: C_1  and  N_2
REMARK    2  A    between atoms: C_1  and  C_24
REMARK    3  A    between atoms: C_6  and  C_7
REMARK    4  A    between atoms: C_9  and  C_12
REMARK    5  A    between atoms: C_15  and  C_18
REMARK                            x       y       z     vdW  Elec       q    Type
REMARK                         _______ _______ _______ _____ _____    ______ ____
ROOT
ATOM      7  C   UNL     1      -4.020   2.823  25.156  0.00  0.00    +0.251 A 
ATOM      8  N   UNL     1      -3.778   2.041  25.269  0.00  0.00    -0.190 NA
ATOM      9  C   UNL     1      -4.159   1.573  24.707  0.00  0.00    +0.205 A 
ATOM     10  N   UNL     1      -4.635   2.064  24.247  0.00  0.00    -0.056 NA
ATOM     11  O   UNL     1      -4.549   2.836  24.524  0.00  0.00    -0.336 OA
ENDROOT
BRANCH   9  12
ATOM     12  C   UNL     1      -4.077   0.756  24.621  0.00  0.00    +0.058 A 
ATOM     13  C   UNL     1      -3.649   0.450  23.985  0.00  0.00    +0.006 A 
ATOM     14  C   UNL     1      -3.567  -0.367  23.899  0.00  0.00    +0.019 A 
ATOM     15  C   UNL     1      -3.913  -0.876  24.448  0.00  0.00    +0.084 A 
ATOM     16  N   UNL     1      -4.341  -0.570  25.083  0.00  0.00    -0.244 NA
ATOM     17  C   UNL     1      -4.423   0.247  25.170  0.00  0.00    +0.102 A 
BRANCH  15  18
ATOM     18  C   UNL     1      -3.831  -1.693  24.362  0.00  0.00    +0.056 A 
ATOM     19  C   UNL     1      -3.263  -2.099  24.801  0.00  0.00    +0.104 A 
ATOM     20  N   UNL     1      -3.181  -2.916  24.714  0.00  0.00    -0.222 NA
ATOM     21  C   UNL     1      -3.667  -3.326  24.189  0.00  0.00    +0.199 A 
ATOM     22  N   UNL     1      -4.236  -2.919  23.751  0.00  0.00    -0.222 NA
ATOM     23  C   UNL     1      -4.318  -2.103  23.837  0.00  0.00    +0.104 A 
ENDBRANCH  15  18
ENDBRANCH   9  12
BRANCH   7   6
ATOM      2  N   UNL     1      -3.095   3.924  25.462  0.00  0.00    -0.263 NA
ATOM      3  C   UNL     1      -3.066   4.519  26.032  0.00  0.00    +0.073 C 
ATOM      4  C   UNL     1      -3.727   4.438  26.520  0.00  0.00    +0.019 C 
ATOM      5  C   UNL     1      -4.165   3.793  26.251  0.00  0.00    +0.027 C 
ATOM      6  C   UNL     1      -3.774   3.474  25.597  0.00  0.00    +0.138 C 
BRANCH   2   1
ATOM      1  C   UNL     1      -2.542   3.799  24.862  0.00  0.00    +0.100 C 
BRANCH   1  24
ATOM     24  C   UNL     1      -1.787   4.124  24.924  0.00  0.00    -0.003 A 
ATOM     25  C   UNL     1      -1.669   4.925  24.768  0.00  0.00    +0.018 A 
ATOM     26  C   UNL     1      -0.913   5.251  24.829  0.00  0.00    +0.099 A 
ATOM     27  N   UNL     1      -0.276   4.774  25.046  0.00  0.00    -0.242 NA
ATOM     28  C   UNL     1      -0.394   3.973  25.202  0.00  0.00    +0.099 A 
ATOM     29  C   UNL     1      -1.149   3.648  25.141  0.00  0.00    +0.018 A 
ENDBRANCH   1  24
ENDBRANCH   2   1
ENDBRANCH   7   6
TORSDOF 5
ENDMDL
MODEL 2
REMARK VINA RESULT:      -9.7      1.965      6.299
REMARK  Name = 
REMARK  5 active torsions:
REMARK  status: ('A' for Active; 'I' for Inactive)
REMARK    1  A    between atoms: C_1  and  N_2
REMARK    2  A    between atoms: C_1  and  C_24
REMARK    3  A    between atoms: C_6  and  C_7
REMARK    4  A    between atoms: C_9  and  C_12
REMARK    5  A    between atoms: C_15  and  C_18
REMARK                            x       y       z     vdW  Elec       q    Type
REMARK                         _______ _______ _______ _____ _____    ______ ____
ROOT
ATOM      7  C   UNL     1      -1.113  -0.529  25.320  0.00  0.00    +0.251 A 
ATOM      8  N   UNL     1      -1.159   0.220  24.974  0.00  0.00    -0.190 NA
ATOM      9  C   UNL     1      -1.119   0.782  25.576  0.00  0.00    +0.205 A 
ATOM     10  N   UNL     1      -1.047   0.382  26.294  0.00  0.00    -0.056 NA
ATOM     11  O   UNL     1      -1.044  -0.428  26.135  0.00  0.00    -0.336 OA
ENDROOT
BRANCH   9  12
ATOM     12  C   UNL     1      -1.145   1.601  25.478  0.00  0.00    +0.058 A 
ATOM     13  C   UNL     1      -0.586   2.079  25.852  0.00  0.00    +0.006 A 
ATOM     14  C   UNL     1      -0.612   2.898  25.754  0.00  0.00    +0.019 A 
ATOM     15  C   UNL     1      -1.197   3.238  25.281  0.00  0.00    +0.084 A 
ATOM     16  N   UNL     1      -1.755   2.760  24.907  0.00  0.00    -0.244 NA
ATOM     17  C   UNL     1      -1.729   1.941  25.005  0.00  0.00    +0.102 A 
BRANCH  15  18
ATOM     18  C   UNL     1      -1.223   4.057  25.183  0.00  0.00    +0.056 A 
ATOM     19  C   UNL     1      -1.878   4.483  25.446  0.00  0.00    +0.104 A 
ATOM     20  N   UNL     1      -1.904   5.302  25.347  0.00  0.00    -0.222 NA
ATOM     21  C   UNL     1      -1.275   5.694  24.986  0.00  0.00    +0.199 A 
ATOM     22  N   UNL     1      -0.620   5.267  24.723  0.00  0.00    -0.222 NA
ATOM     23  C   UNL     1      -0.593   4.449  24.821  0.00  0.00    +0.104 A 
ENDBRANCH  15  18
ENDBRANCH   9  12
BRANCH   7   6
ATOM      2  N   UNL     1      -1.801  -1.719  24.799  0.00  0.00    -0.263 NA
ATOM      3  C   UNL     1      -1.569  -2.387  24.375  0.00  0.00    +0.073 C 
ATOM      4  C   UNL     1      -0.758  -2.331  24.234  0.00  0.00    +0.019 C 
ATOM      5  C   UNL     1      -0.488  -1.628  24.571  0.00  0.00    +0.027 C 
ATOM      6  C   UNL     1      -1.133  -1.249  24.920  0.00  0.00    +0.138 C 
BRANCH   2   1
ATOM      1  C   UNL     1      -2.566  -1.548  25.056  0.00  0.00    +0.100 C 
BRANCH   1  24
ATOM     24  C   UNL     1      -3.215  -1.860  24.654  0.00  0.00    -0.003 A 
ATOM     25  C   UNL     1      -3.409  -2.657  24.740  0.00  0.00    +0.018 A 
ATOM     26  C   UNL     1      -4.059  -2.970  24.338  0.00  0.00    +0.099 A 
ATOM     27  N   UNL     1      -4.513  -2.484  23.849  0.00  0.00    -0.242 NA
ATOM     28  C   UNL     1      -4.319  -1.687  23.763  0.00  0.00    +0.099 A 
ATOM     29  C   UNL     1      -3.670  -1.375  24.165  0.00  0.00    +0.018 A 
ENDBRANCH   1  24
ENDBRANCH   2   1
ENDBRANCH   7   6
TORSDOF 5
ENDMDL
MODEL 3
REMARK VINA RESULT:      -9.1      1.854      2.594
REMARK  Name = 
REMARK  5 active torsions:
REMARK  status: ('A' for Active; 'I' for Inactive)
REMARK    1  A    between atoms: C_1  and  N_2
REMARK    2  A    between atoms: C_1  and  C_24
REMARK    3  A    between atoms: C_6  and  C_7
REMARK    4  A    between atoms: C_9  and  C_12
REMARK    5  A    between atoms: C_15  and  C_18
REMARK                            x       y       z     vdW  Elec       q    Type
REMARK                         _______ _______ _______ _____ _____    ______ ____
ROOT
ATOM      7  C   UNL     1      -0.439   1.504  25.261  0.00  0.00    +0.251 A 
ATOM      8  N   UNL     1      -1.084   1.000  25.364  0.00  0.00    -0.190 NA
ATOM      9  C   UNL     1      -1.090   0.463  24.738  0.00  0.00    +0.205 A 
ATOM     10  N   UNL     1      -0.449   0.635  24.249  0.00  0.00    -0.056 NA
ATOM     11  O   UNL     1      -0.047   1.278  24.572  0.00  0.00    -0.336 OA
ENDROOT
BRANCH   9  12
ATOM     12  C   UNL     1      -1.641  -0.140  24.622  0.00  0.00    +0.058 A 
ATOM     13  C   UNL     1      -2.440   0.044  24.524  0.00  0.00    +0.006 A 
ATOM     14  C   UNL     1      -2.991  -0.559  24.408  0.00  0.00    +0.019 A 
ATOM     15  C   UNL     1      -2.743  -1.346  24.390  0.00  0.00    +0.084 A 
ATOM     16  N   UNL     1      -1.945  -1.530  24.488  0.00  0.00    -0.244 NA
ATOM     17  C   UNL     1      -1.394  -0.927  24.604  0.00  0.00    +0.102 A 
BRANCH  15  18
ATOM     18  C   UNL     1      -3.294  -1.949  24.274  0.00  0.00    +0.056 A 
ATOM     19  C   UNL     1      -3.158  -2.698  24.592  0.00  0.00    +0.104 A 
ATOM     20  N   UNL     1      -3.710  -3.302  24.476  0.00  0.00    -0.222 NA
ATOM     21  C   UNL     1      -4.396  -3.156  24.042  0.00  0.00    +0.199 A 
ATOM     22  N   UNL     1      -4.531  -2.406  23.725  0.00  0.00    -0.222 NA
ATOM     23  C   UNL     1      -3.981  -1.803  23.840  0.00  0.00    +0.104 A 
ENDBRANCH  15  18
ENDBRANCH   9  12
BRANCH   7   6
ATOM      2  N   UNL     1      -0.413   2.921  25.652  0.00  0.00    -0.263 NA
ATOM      3  C   UNL     1      -0.088   3.347  26.280  0.00  0.00    +0.073 C 
ATOM      4  C   UNL     1       0.300   2.814  26.776  0.00  0.00    +0.019 C 
ATOM      5  C   UNL     1       0.217   2.059  26.455  0.00  0.00    +0.027 C 
ATOM      6  C   UNL     1      -0.224   2.125  25.760  0.00  0.00    +0.138 C 
BRANCH   2   1
ATOM      1  C   UNL     1      -0.849   3.236  25.027  0.00  0.00    +0.100 C 
BRANCH   1  24
ATOM     24  C   UNL     1      -1.170   3.993  25.088  0.00  0.00    -0.003 A 
ATOM     25  C   UNL     1      -1.920   4.096  25.417  0.00  0.00    +0.018 A 
ATOM     26  C   UNL     1      -2.242   4.854  25.479  0.00  0.00    +0.099 A 
ATOM     27  N   UNL     1      -1.814   5.507  25.211  0.00  0.00    -0.242 NA
ATOM     28  C   UNL     1      -1.065   5.403  24.883  0.00  0.00    +0.099 A 
ATOM     29  C   UNL     1      -0.743   4.646  24.821  0.00  0.00    +0.018 A 
ENDBRANCH   1  24
ENDBRANCH   2   1
ENDBRANCH   7   6
TORSDOF 5
ENDMDL
MODEL 4
REMARK VINA RESULT:      -9.1      3.325      4.657
REMARK  Name = 
REMARK  5 active torsions:
REMARK  status: ('A' for Active; 'I' for Inactive)
REMARK    1  A    between atoms: C_1  and  N_2
REMARK    2  A    between atoms: C_1  and  C_24
REMARK    3  A    between atoms: C_6  and  C_7
REMARK    4  A    between atoms: C_9  and  C_12
REMARK    5  A    between atoms: C_15  and  C_18
REMARK                            x       y       z     vdW  Elec       q    Type
REMARK                         _______ _______ _______ _____ _____    ______ ____
ROOT
ATOM      7  C   UNL     1      -2.565   0.194  24.885  0.00  0.00    +0.251 A 
ATOM      8  N   UNL     1      -2.013   0.274  24.276  0.00  0.00    -0.190 NA
ATOM      9  C   UNL     1      -1.266   0.113  24.586  0.00  0.00    +0.205 A 
ATOM     10  N   UNL     1      -1.355  -0.065  25.386  0.00  0.00    -0.056 NA
ATOM     11  O   UNL     1      -2.158  -0.015  25.571  0.00  0.00    -0.336 OA
ENDROOT
BRANCH   9  12
ATOM     12  C   UNL     1      -0.554   0.128  24.169  0.00  0.00    +0.058 A 
ATOM     13  C   UNL     1      -0.209   0.850  23.968  0.00  0.00    +0.006 A 
ATOM     14  C   UNL     1       0.503   0.865  23.551  0.00  0.00    +0.019 A 
ATOM     15  C   UNL     1       0.870   0.159  23.335  0.00  0.00    +0.084 A 
ATOM     16  N   UNL     1       0.525  -0.564  23.536  0.00  0.00    -0.244 NA
ATOM     17  C   UNL     1      -0.187  -0.579  23.953  0.00  0.00    +0.102 A 
BRANCH  15  18
ATOM     18  C   UNL     1       1.582   0.174  22.918  0.00  0.00    +0.056 A 
ATOM     19  C   UNL     1       2.241   0.549  23.242  0.00  0.00    +0.104 A 
ATOM     20  N   UNL     1       2.953   0.564  22.825  0.00  0.00    -0.222 NA
ATOM     21  C   UNL     1       3.005   0.204  22.085  0.00  0.00    +0.199 A 
ATOM     22  N   UNL     1       2.345  -0.171  21.762  0.00  0.00    -0.222 NA
ATOM     23  C   UNL     1       1.634  -0.187  22.178  0.00  0.00    +0.104 A 
ENDBRANCH  15  18
ENDBRANCH   9  12
BRANCH   7   6
ATOM      2  N   UNL     1      -3.779   1.023  24.896  0.00  0.00    -0.263 NA
ATOM      3  C   UNL     1      -4.584   0.880  24.788  0.00  0.00    +0.073 C 
ATOM      4  C   UNL     1      -4.682   0.073  24.643  0.00  0.00    +0.019 C 
ATOM      5  C   UNL     1      -3.937  -0.282  24.662  0.00  0.00    +0.027 C 
ATOM      6  C   UNL     1      -3.379   0.305  24.818  0.00  0.00    +0.138 C 
BRANCH   2   1
ATOM      1  C   UNL     1      -3.434   1.756  25.054  0.00  0.00    +0.100 C 
BRANCH   1  24
ATOM     24  C   UNL     1      -3.880   2.445  24.986  0.00  0.00    -0.003 A 
ATOM     25  C   UNL     1      -4.338   2.704  25.622  0.00  0.00    +0.018 A 
ATOM     26  C   UNL     1      -4.786   3.395  25.553  0.00  0.00    +0.099 A 
ATOM     27  N   UNL     1      -4.775   3.825  24.850  0.00  0.00    -0.242 NA
ATOM     28  C   UNL     1      -4.317   3.565  24.214  0.00  0.00    +0.099 A 
ATOM     29  C   UNL     1      -3.871   2.876  24.282  0.00  0.00    +0.018 A 
ENDBRANCH   1  24
ENDBRANCH   2   1
ENDBRANCH   7   6
TORSDOF 5
ENDMDL
