MODEL 1
REMARK VINA RESULT:      -8.3      0.000      0.000
REMARK  Name = 
REMARK  6 active torsions:
REMARK  status: ('A' for Active; 'I' for Inactive)
REMARK    1  A    between atoms: N_2  and  C_4
REMARK    2  A    between atoms: C_7  and  C_10
REMARK    3  A    between atoms: N_12  and  C_13
REMARK    4  A    between atoms: C_17  and  N_21
REMARK    5  A    between atoms: C_24  and  C_28
REMARK    6  A    between atoms: C_32  and  C_34
REMARK                            x       y       z     vdW  Elec       q    Type
REMARK                         _______ _______ _______ _____ _____    ______ ____
ROOT
ATOM     13  C   UNL     1      -1.808   2.044  24.341  0.00  0.00    +0.155 C 
ATOM     14  C   UNL     1      -1.401   2.759  24.288  0.00  0.00    +0.166 C 
ATOM     15  O   UNL     1      -0.597   2.589  24.215  0.00  0.00    -0.350 OA
ATOM     16  C   UNL     1      -0.507   1.770  24.222  0.00  0.00    +0.166 C 
ATOM     17  C   UNL     1       0.044   1.157  24.181  0.00  0.00    +0.154 C 
ATOM     18  C   UNL     1      -0.363   0.442  24.233  0.00  0.00    +0.166 C 
ATOM     19  O   UNL     1      -1.167   0.612  24.307  0.00  0.00    -0.350 OA
ATOM     20  C   UNL     1      -1.256   1.432  24.300  0.00  0.00    +0.166 C 
ENDROOT
BRANCH  17  21
ATOM     21  N   UNL     1       0.861   1.245  24.101  0.00  0.00    -0.200 NA
ATOM     22  C   UNL     1       1.279   0.765  23.576  0.00  0.00    +0.237 A 
ATOM     23  N   UNL     1       2.094   0.853  23.496  0.00  0.00    -0.212 NA
ATOM     24  C   UNL     1       2.512   0.374  22.971  0.00  0.00    +0.086 A 
ATOM     25  C   UNL     1       2.113  -0.194  22.525  0.00  0.00    +0.040 A 
ATOM     26  C   UNL     1       1.297  -0.282  22.604  0.00  0.00    +0.103 A 
ATOM     27  N   UNL     1       0.880   0.198  23.130  0.00  0.00    -0.211 NA
BRANCH  24  28
ATOM     28  C   UNL     1       3.328   0.461  22.891  0.00  0.00    +0.018 A 
ATOM     29  C   UNL     1       3.634   0.975  22.321  0.00  0.00    +0.002 A 
ATOM     30  C   UNL     1       4.450   1.063  22.242  0.00  0.00    +0.001 A 
ATOM     31  C   UNL     1       4.961   0.638  22.731  0.00  0.00    +0.010 A 
ATOM     32  C   UNL     1       4.655   0.125  23.299  0.00  0.00    +0.068 A 
ATOM     33  C   UNL     1       3.839   0.037  23.379  0.00  0.00    +0.012 A 
BRANCH  32  34
ATOM     34  C   UNL     1       5.166  -0.301  23.789  0.00  0.00    +0.100 C 
ATOM     35  N   UNL     1       5.675  -0.727  24.278  0.00  0.00    -0.191 NA
ENDBRANCH  32  34
ENDBRANCH  24  28
ENDBRANCH  17  21
BRANCH  13  12
ATOM     10  C   UNL     1      -3.037   2.407  24.975  0.00  0.00    +0.265 C 
ATOM     11  O   UNL     1      -2.631   2.947  25.449  0.00  0.00    -0.268 OA
ATOM     12  N   UNL     1      -2.625   1.955  24.420  0.00  0.00    -0.198 NA
BRANCH  10   7
ATOM      4  C   UNL     1      -5.485   2.143  25.214  0.00  0.00    +0.048 A 
ATOM      5  C   UNL     1      -5.145   2.893  25.263  0.00  0.00    +0.015 A 
ATOM      6  C   UNL     1      -4.329   2.981  25.183  0.00  0.00    +0.006 A 
ATOM      7  C   UNL     1      -3.853   2.319  25.054  0.00  0.00    +0.055 A 
ATOM      8  C   UNL     1      -4.193   1.569  25.005  0.00  0.00    +0.006 A 
ATOM      9  C   UNL     1      -5.010   1.481  25.085  0.00  0.00    +0.015 A 
BRANCH   4   2
ATOM      1  C   UNL     1      -6.770   1.928  24.626  0.00  0.00    +0.112 C 
ATOM      2  N   UNL     1      -6.302   2.055  25.293  0.00  0.00    -0.304 N 
ATOM      3  C   UNL     1      -6.651   2.094  26.040  0.00  0.00    +0.112 C 
ENDBRANCH   4   2
ENDBRANCH  10   7
ENDBRANCH  13  12
TORSDOF 6
ENDMDL
MODEL 2
REMARK VINA RESULT:      -8.3      1.040      7.788
REMARK  Name = 
REMARK  6 active torsions:
REMARK  status: ('A' for Active; 'I' for Inactive)
REMARK    1  A    between atoms: N_2  and  C_4
REMARK    2  A    between atoms: C_7  and  C_10
REMARK    3  A    between atoms: N_12  and  C_13
REMARK    4  A    between atoms: C_17  and  N_21
REMARK    5  A    between atoms: C_24  and  C_28
REMARK    6  A    between atoms: C_32  and  C_34
REMARK                            x       y       z     vdW  Elec       q    Type
REMARK                         _______ _______ _______ _____ _____    ______ ____
ROOT
ATOM     13  C   UNL     1       0.841   0.887  23.705  0.00  0.00    +0.155 C 
ATOM     14  C   UNL     1       0.296   0.326  23.444  0.00  0.00    +0.166 C 
ATOM     15  O   UNL     1      -0.459   0.643  23.538  0.00  0.00    -0.350 OA
ATOM     16  C   UNL     1      -0.382   1.399  23.857  0.00  0.00    +0.166 C 
ATOM     17  C   UNL     1      -0.799   2.063  24.113  0.00  0.00    +0.154 C 
ATOM     18  C   UNL     1      -0.254   2.624  24.374  0.00  0.00    +0.166 C 
ATOM     19  O   UNL     1       0.501   2.307  24.280  0.00  0.00    -0.350 OA
ATOM     20  C   UNL     1       0.423   1.550  23.960  0.00  0.00    +0.166 C 
ENDROOT
BRANCH  17  21
ATOM     21  N   UNL     1      -1.620   2.150  24.108  0.00  0.00    -0.200 NA
ATOM     22  C   UNL     1      -1.993   2.584  24.703  0.00  0.00    +0.237 A 
ATOM     23  N   UNL     1      -2.813   2.672  24.698  0.00  0.00    -0.212 NA
ATOM     24  C   UNL     1      -3.185   3.106  25.293  0.00  0.00    +0.086 A 
ATOM     25  C   UNL     1      -2.737   3.453  25.892  0.00  0.00    +0.040 A 
ATOM     26  C   UNL     1      -1.916   3.365  25.897  0.00  0.00    +0.103 A 
ATOM     27  N   UNL     1      -1.545   2.931  25.302  0.00  0.00    -0.211 NA
BRANCH  24  28
ATOM     28  C   UNL     1      -4.005   3.193  25.288  0.00  0.00    +0.018 A 
ATOM     29  C   UNL     1      -4.341   3.943  25.374  0.00  0.00    +0.002 A 
ATOM     30  C   UNL     1      -5.160   4.031  25.369  0.00  0.00    +0.001 A 
ATOM     31  C   UNL     1      -5.646   3.369  25.279  0.00  0.00    +0.010 A 
ATOM     32  C   UNL     1      -5.311   2.621  25.194  0.00  0.00    +0.068 A 
ATOM     33  C   UNL     1      -4.490   2.533  25.198  0.00  0.00    +0.012 A 
BRANCH  32  34
ATOM     34  C   UNL     1      -5.795   1.959  25.104  0.00  0.00    +0.100 C 
ATOM     35  N   UNL     1      -6.280   1.297  25.015  0.00  0.00    -0.191 NA
ENDBRANCH  32  34
ENDBRANCH  24  28
ENDBRANCH  17  21
BRANCH  13  12
ATOM     10  C   UNL     1       2.040   0.416  23.085  0.00  0.00    +0.265 C 
ATOM     11  O   UNL     1       1.597   0.120  22.455  0.00  0.00    -0.268 OA
ATOM     12  N   UNL     1       1.662   0.800  23.710  0.00  0.00    -0.198 NA
BRANCH  10   7
ATOM      4  C   UNL     1       4.501   0.154  23.099  0.00  0.00    +0.048 A 
ATOM      5  C   UNL     1       4.162   0.856  22.827  0.00  0.00    +0.015 A 
ATOM      6  C   UNL     1       3.342   0.943  22.823  0.00  0.00    +0.006 A 
ATOM      7  C   UNL     1       2.860   0.329  23.090  0.00  0.00    +0.055 A 
ATOM      8  C   UNL     1       3.198  -0.373  23.361  0.00  0.00    +0.006 A 
ATOM      9  C   UNL     1       4.019  -0.460  23.366  0.00  0.00    +0.015 A 
BRANCH   4   2
ATOM      1  C   UNL     1       5.754   0.271  23.775  0.00  0.00    +0.112 C 
ATOM      2  N   UNL     1       5.321   0.066  23.103  0.00  0.00    -0.304 N 
ATOM      3  C   UNL     1       5.709  -0.226  22.436  0.00  0.00    +0.112 C 
ENDBRANCH   4   2
ENDBRANCH  10   7
ENDBRANCH  13  12
TORSDOF 6
ENDMDL
MODEL 3
REMARK VINA RESULT:      -4.4     15.128     17.552
REMARK  Name = 
REMARK  6 active torsions:
REMARK  status: ('A' for Active; 'I' for Inactive)
REMARK    1  A    between atoms: N_2  and  C_4
REMARK    2  A    between atoms: C_7  and  C_10
REMARK    3  A    between atoms: N_12  and  C_13
REMARK    4  A    between atoms: C_17  and  N_21
REMARK    5  A    between atoms: C_24  and  C_28
REMARK    6  A    between atoms: C_32  and  C_34
REMARK                            x       y       z     vdW  Elec       q    Type
REMARK                         _______ _______ _______ _____ _____    ______ ____
ROOT
ATOM     13  C   UNL     1      -5.175 -10.384  13.325  0.00  0.00    +0.155 C 
ATOM     14  C   UNL     1      -5.827 -10.646  12.892  0.00  0.00    +0.166 C 
ATOM     15  O   UNL     1      -6.445 -10.781  13.421  0.00  0.00    -0.350 OA
ATOM     16  C   UNL     1      -6.177 -10.602  14.180  0.00  0.00    +0.166 C 
ATOM     17  C   UNL     1      -6.392 -10.575  14.976  0.00  0.00    +0.154 C 
ATOM     18  C   UNL     1      -5.740 -10.313  15.408  0.00  0.00    +0.166 C 
ATOM     19  O   UNL     1      -5.122 -10.178  14.879  0.00  0.00    -0.350 OA
ATOM     20  C   UNL     1      -5.391 -10.357  14.120  0.00  0.00    +0.166 C 
ENDROOT
BRANCH  17  21
ATOM     21  N   UNL     1      -7.130 -10.775  15.285  0.00  0.00    -0.200 NA
ATOM     22  C   UNL     1      -7.441 -10.350  15.920  0.00  0.00    +0.237 A 
ATOM     23  N   UNL     1      -8.178 -10.549  16.230  0.00  0.00    -0.212 NA
ATOM     24  C   UNL     1      -8.489 -10.124  16.865  0.00  0.00    +0.086 A 
ATOM     25  C   UNL     1      -8.060  -9.499  17.191  0.00  0.00    +0.040 A 
ATOM     26  C   UNL     1      -7.322  -9.299  16.882  0.00  0.00    +0.103 A 
ATOM     27  N   UNL     1      -7.012  -9.725  16.247  0.00  0.00    -0.211 NA
BRANCH  24  28
ATOM     28  C   UNL     1      -9.227 -10.323  17.174  0.00  0.00    +0.018 A 
ATOM     29  C   UNL     1      -9.867 -10.446  16.667  0.00  0.00    +0.002 A 
ATOM     30  C   UNL     1     -10.605 -10.646  16.976  0.00  0.00    +0.001 A 
ATOM     31  C   UNL     1     -10.704 -10.723  17.792  0.00  0.00    +0.010 A 
ATOM     32  C   UNL     1     -10.065 -10.600  18.298  0.00  0.00    +0.068 A 
ATOM     33  C   UNL     1      -9.326 -10.400  17.989  0.00  0.00    +0.012 A 
BRANCH  32  34
ATOM     34  C   UNL     1     -10.163 -10.676  19.113  0.00  0.00    +0.100 C 
ATOM     35  N   UNL     1     -10.262 -10.754  19.929  0.00  0.00    -0.191 NA
ENDBRANCH  32  34
ENDBRANCH  24  28
ENDBRANCH  17  21
BRANCH  13  12
ATOM     10  C   UNL     1      -4.360 -10.003  12.214  0.00  0.00    +0.265 C 
ATOM     11  O   UNL     1      -5.023 -10.021  11.723  0.00  0.00    -0.268 OA
ATOM     12  N   UNL     1      -4.436 -10.185  13.016  0.00  0.00    -0.198 NA
BRANCH  10   7
ATOM      4  C   UNL     1      -2.146  -9.404  11.287  0.00  0.00    +0.048 A 
ATOM      5  C   UNL     1      -2.834  -9.163  10.900  0.00  0.00    +0.015 A 
ATOM      6  C   UNL     1      -3.571  -9.363  11.209  0.00  0.00    +0.006 A 
ATOM      7  C   UNL     1      -3.622  -9.803  11.905  0.00  0.00    +0.055 A 
ATOM      8  C   UNL     1      -2.934 -10.043  12.292  0.00  0.00    +0.006 A 
ATOM      9  C   UNL     1      -2.196  -9.844  11.983  0.00  0.00    +0.015 A 
BRANCH   4   2
ATOM      1  C   UNL     1      -1.355  -8.813  10.253  0.00  0.00    +0.112 C 
ATOM      2  N   UNL     1      -1.407  -9.204  10.977  0.00  0.00    -0.304 N 
ATOM      3  C   UNL     1      -0.720  -9.395  11.392  0.00  0.00    +0.112 C 
ENDBRANCH   4   2
ENDBRANCH  10   7
ENDBRANCH  13  12
TORSDOF 6
ENDMDL
MODEL 4
REMARK VINA RESULT:      -4.3     16.751     18.939
REMARK  Name = 
REMARK  6 active torsions:
REMARK  status: ('A' for Active; 'I' for Inactive)
REMARK    1  A    between atoms: N_2  and  C_4
REMARK    2  A    between atoms: C_7  and  C_10
REMARK    3  A    between atoms: N_12  and  C_13
REMARK    4  A    between atoms: C_17  and  N_21
REMARK    5  A    between atoms: C_24  and  C_28
REMARK    6  A    between atoms: C_32  and  C_34
REMARK                            x       y       z     vdW  Elec       q    Type
REMARK                         _______ _______ _______ _____ _____    ______ ____
ROOT
ATOM     13  C   UNL     1      -4.688 -10.679  12.701  0.00  0.00    +0.155 C 
ATOM     14  C   UNL     1      -4.444 -10.662  11.913  0.00  0.00    +0.166 C 
ATOM     15  O   UNL     1      -5.118 -10.648  11.438  0.00  0.00    -0.350 OA
ATOM     16  C   UNL     1      -5.778 -10.655  11.931  0.00  0.00    +0.166 C 
ATOM     17  C   UNL     1      -6.603 -10.651  11.944  0.00  0.00    +0.154 C 
ATOM     18  C   UNL     1      -6.848 -10.668  12.732  0.00  0.00    +0.166 C 
ATOM     19  O   UNL     1      -6.173 -10.683  13.206  0.00  0.00    -0.350 OA
ATOM     20  C   UNL     1      -5.513 -10.675  12.712  0.00  0.00    +0.166 C 
ENDROOT
BRANCH  17  21
ATOM     21  N   UNL     1      -7.098 -10.633  11.283  0.00  0.00    -0.200 NA
ATOM     22  C   UNL     1      -7.881 -10.385  11.360  0.00  0.00    +0.237 A 
ATOM     23  N   UNL     1      -8.375 -10.367  10.701  0.00  0.00    -0.212 NA
ATOM     24  C   UNL     1      -9.158 -10.119  10.778  0.00  0.00    +0.086 A 
ATOM     25  C   UNL     1      -9.447  -9.888  11.515  0.00  0.00    +0.040 A 
ATOM     26  C   UNL     1      -8.953  -9.906  12.176  0.00  0.00    +0.103 A 
ATOM     27  N   UNL     1      -8.170 -10.155  12.098  0.00  0.00    -0.211 NA
BRANCH  24  28
ATOM     28  C   UNL     1      -9.652 -10.101  10.118  0.00  0.00    +0.018 A 
ATOM     29  C   UNL     1     -10.069 -10.778   9.896  0.00  0.00    +0.002 A 
ATOM     30  C   UNL     1     -10.564 -10.760   9.236  0.00  0.00    +0.001 A 
ATOM     31  C   UNL     1     -10.642 -10.066   8.797  0.00  0.00    +0.010 A 
ATOM     32  C   UNL     1     -10.225  -9.389   9.019  0.00  0.00    +0.068 A 
ATOM     33  C   UNL     1      -9.731  -9.407   9.680  0.00  0.00    +0.012 A 
BRANCH  32  34
ATOM     34  C   UNL     1     -10.303  -8.694   8.581  0.00  0.00    +0.100 C 
ATOM     35  N   UNL     1     -10.380  -8.000   8.143  0.00  0.00    -0.191 NA
ENDBRANCH  32  34
ENDBRANCH  24  28
ENDBRANCH  17  21
BRANCH  13  12
ATOM     10  C   UNL     1      -3.400 -10.485  13.289  0.00  0.00    +0.265 C 
ATOM     11  O   UNL     1      -3.100 -10.255  12.554  0.00  0.00    -0.268 OA
ATOM     12  N   UNL     1      -4.194 -10.697  13.361  0.00  0.00    -0.198 NA
BRANCH  10   7
ATOM      4  C   UNL     1      -1.917 -10.539  15.268  0.00  0.00    +0.048 A 
ATOM      5  C   UNL     1      -2.730 -10.445  15.365  0.00  0.00    +0.015 A 
ATOM      6  C   UNL     1      -3.225 -10.428  14.706  0.00  0.00    +0.006 A 
ATOM      7  C   UNL     1      -2.906 -10.503  13.948  0.00  0.00    +0.055 A 
ATOM      8  C   UNL     1      -2.092 -10.596  13.851  0.00  0.00    +0.006 A 
ATOM      9  C   UNL     1      -1.597 -10.614  14.512  0.00  0.00    +0.015 A 
BRANCH   4   2
ATOM      1  C   UNL     1      -0.627 -10.350  15.854  0.00  0.00    +0.112 C 
ATOM      2  N   UNL     1      -1.422 -10.557  15.929  0.00  0.00    -0.304 N 
ATOM      3  C   UNL     1      -1.722 -10.781  16.664  0.00  0.00    +0.112 C 
ENDBRANCH   4   2
ENDBRANCH  10   7
ENDBRANCH  13  12
TORSDOF 6
ENDMDL
