MODEL 1
REMARK VINA RESULT:     -13.3      0.000      0.000
REMARK  Name = 
REMARK  6 active torsions:
REMARK  status: ('A' for Active; 'I' for Inactive)
REMARK    1  A    between atoms: N_3  and  C_4
REMARK    2  A    between atoms: C_6  and  C_10
REMARK    3  A    between atoms: N_12  and  C_13
REMARK    4  A    between atoms: C_23  and  C_25
REMARK    5  A    between atoms: C_25  and  O_26
REMARK    6  A    between atoms: O_26  and  C_27
REMARK                            x       y       z     vdW  Elec       q    Type
REMARK                         _______ _______ _______ _____ _____    ______ ____
ROOT
ATOM     13  C   UNL     1      -3.189   1.573  24.901  0.00  0.00    +0.131 A 
ATOM     14  C   UNL     1      -3.580   0.886  24.665  0.00  0.00    +0.023 A 
ATOM     15  C   UNL     1      -4.405   0.862  24.661  0.00  0.00    +0.014 A 
ATOM     16  C   UNL     1      -4.838   1.524  24.893  0.00  0.00    +0.041 A 
ATOM     17  C   UNL     1      -5.705   1.809  24.997  0.00  0.00    +0.058 C 
ATOM     18  C   UNL     1      -6.369   1.591  24.926  0.00  0.00    +0.011 C 
ATOM     19  C   UNL     1      -5.979   2.268  25.158  0.00  0.00    +0.043 C 
ATOM     20  C   UNL     1      -5.696   3.163  25.467  0.00  0.00    +0.095 C 
ATOM     21  N   UNL     1      -4.867   3.069  25.429  0.00  0.00    -0.276 N 
ATOM     22  C   UNL     1      -5.448   2.679  25.297  0.00  0.00    +0.099 C 
ATOM     23  C   UNL     1      -4.067   3.261  25.491  0.00  0.00    +0.270 C 
ATOM     24  O   UNL     1      -3.842   4.011  25.750  0.00  0.00    -0.271 OA
ATOM     33  C   UNL     1      -5.069   1.979  25.053  0.00  0.00    +0.110 C 
ATOM     34  N   UNL     1      -4.446   2.211  25.129  0.00  0.00    -0.298 N 
ATOM     35  C   UNL     1      -3.622   2.235  25.133  0.00  0.00    +0.276 A 
ATOM     36  O   UNL     1      -2.878   2.574  25.246  0.00  0.00    -0.266 OA
ENDROOT
BRANCH  13  12
ATOM      1  O   UNL     1      -2.323   0.245  24.442  0.00  0.00    -0.248 OA
ATOM      2  C   UNL     1      -1.931   0.933  24.675  0.00  0.00    +0.348 C 
ATOM      3  N   UNL     1      -1.106   0.957  24.678  0.00  0.00    -0.161 NA
ATOM     12  N   UNL     1      -2.364   1.596  24.904  0.00  0.00    -0.156 NA
BRANCH   3   4
ATOM      4  C   UNL     1      -0.673   0.293  24.449  0.00  0.00    +0.076 A 
ATOM      5  C   UNL     1      -0.142   0.345  23.820  0.00  0.00    +0.027 A 
ATOM      6  C   UNL     1       0.291  -0.319  23.591  0.00  0.00    +0.070 A 
ATOM      7  C   UNL     1       0.193  -1.034  23.991  0.00  0.00    +0.010 A 
ATOM      8  C   UNL     1      -0.338  -1.085  24.620  0.00  0.00    +0.002 A 
ATOM      9  C   UNL     1      -0.771  -0.421  24.849  0.00  0.00    +0.017 A 
BRANCH   6  10
ATOM     10  C   UNL     1       0.822  -0.268  22.962  0.00  0.00    +0.100 C 
ATOM     11  N   UNL     1       1.353  -0.219  22.333  0.00  0.00    -0.191 NA
ENDBRANCH   6  10
ENDBRANCH   3   4
ENDBRANCH  13  12
BRANCH  23  25
ATOM     25  C   UNL     1      -3.491   2.703  25.294  0.00  0.00    +0.290 C 
BRANCH  25  26
ATOM     26  O   UNL     1      -2.700   2.846  25.476  0.00  0.00    -0.466 OA
BRANCH  26  27
ATOM     27  C   UNL     1      -2.378   3.597  25.363  0.00  0.00    +0.139 A 
ATOM     28  C   UNL     1      -2.177   4.061  26.015  0.00  0.00    +0.037 A 
ATOM     29  C   UNL     1      -1.855   4.813  25.903  0.00  0.00    +0.003 A 
ATOM     30  C   UNL     1      -1.735   5.099  25.139  0.00  0.00    +0.000 A 
ATOM     31  C   UNL     1      -1.937   4.635  24.487  0.00  0.00    +0.003 A 
ATOM     32  C   UNL     1      -2.258   3.884  24.600  0.00  0.00    +0.037 A 
ENDBRANCH  26  27
ENDBRANCH  25  26
ENDBRANCH  23  25
TORSDOF 6
ENDMDL
MODEL 2
REMARK VINA RESULT:     -12.8      1.866      3.550
REMARK  Name = 
REMARK  6 active torsions:
REMARK  status: ('A' for Active; 'I' for Inactive)
REMARK    1  A    between atoms: N_3  and  C_4
REMARK    2  A    between atoms: C_6  and  C_10
REMARK    3  A    between atoms: N_12  and  C_13
REMARK    4  A    between atoms: C_23  and  C_25
REMARK    5  A    between atoms: C_25  and  O_26
REMARK    6  A    between atoms: O_26  and  C_27
REMARK                            x       y       z     vdW  Elec       q    Type
REMARK                         _______ _______ _______ _____ _____    ______ ____
ROOT
ATOM     13  C   UNL     1      -2.443   1.780  25.026  0.00  0.00    +0.131 A 
ATOM     14  C   UNL     1      -1.694   1.436  25.054  0.00  0.00    +0.023 A 
ATOM     15  C   UNL     1      -1.022   1.913  25.092  0.00  0.00    +0.014 A 
ATOM     16  C   UNL     1      -1.100   2.734  25.102  0.00  0.00    +0.041 A 
ATOM     17  C   UNL     1      -0.591   3.499  25.138  0.00  0.00    +0.058 C 
ATOM     18  C   UNL     1       0.076   3.715  25.172  0.00  0.00    +0.011 C 
ATOM     19  C   UNL     1      -0.666   4.051  25.144  0.00  0.00    +0.043 C 
ATOM     20  C   UNL     1      -1.461   4.637  25.118  0.00  0.00    +0.095 C 
ATOM     21  N   UNL     1      -2.061   4.057  25.082  0.00  0.00    -0.276 N 
ATOM     22  C   UNL     1      -1.350   4.078  25.114  0.00  0.00    +0.099 C 
ATOM     23  C   UNL     1      -2.821   3.736  25.042  0.00  0.00    +0.270 C 
ATOM     24  O   UNL     1      -3.478   4.234  25.021  0.00  0.00    -0.271 OA
ATOM     33  C   UNL     1      -1.205   3.258  25.107  0.00  0.00    +0.110 C 
ATOM     34  N   UNL     1      -1.849   3.078  25.075  0.00  0.00    -0.298 N 
ATOM     35  C   UNL     1      -2.521   2.601  25.036  0.00  0.00    +0.276 A 
ATOM     36  O   UNL     1      -3.328   2.438  24.997  0.00  0.00    -0.266 OA
ENDROOT
BRANCH  13  12
ATOM      1  O   UNL     1      -2.294   0.139  25.114  0.00  0.00    -0.248 OA
ATOM      2  C   UNL     1      -3.040   0.482  25.031  0.00  0.00    +0.348 C 
ATOM      3  N   UNL     1      -3.712   0.004  24.993  0.00  0.00    -0.161 NA
ATOM     12  N   UNL     1      -3.114   1.302  24.988  0.00  0.00    -0.156 NA
BRANCH   3   4
ATOM      4  C   UNL     1      -3.638  -0.817  25.037  0.00  0.00    +0.076 A 
ATOM      5  C   UNL     1      -3.879  -1.287  24.403  0.00  0.00    +0.027 A 
ATOM      6  C   UNL     1      -3.805  -2.107  24.447  0.00  0.00    +0.070 A 
ATOM      7  C   UNL     1      -3.490  -2.457  25.125  0.00  0.00    +0.010 A 
ATOM      8  C   UNL     1      -3.249  -1.987  25.758  0.00  0.00    +0.002 A 
ATOM      9  C   UNL     1      -3.323  -1.167  25.714  0.00  0.00    +0.017 A 
BRANCH   6  10
ATOM     10  C   UNL     1      -4.046  -2.578  23.815  0.00  0.00    +0.100 C 
ATOM     11  N   UNL     1      -4.288  -3.049  23.182  0.00  0.00    -0.191 NA
ENDBRANCH   6  10
ENDBRANCH   3   4
ENDBRANCH  13  12
BRANCH  23  25
ATOM     25  C   UNL     1      -2.923   2.917  25.024  0.00  0.00    +0.290 C 
BRANCH  25  26
ATOM     26  O   UNL     1      -3.656   2.598  24.823  0.00  0.00    -0.466 OA
BRANCH  26  27
ATOM     27  C   UNL     1      -4.349   2.946  25.103  0.00  0.00    +0.139 A 
ATOM     28  C   UNL     1      -4.840   3.362  24.586  0.00  0.00    +0.037 A 
ATOM     29  C   UNL     1      -5.534   3.710  24.866  0.00  0.00    +0.003 A 
ATOM     30  C   UNL     1      -5.736   3.643  25.663  0.00  0.00    +0.000 A 
ATOM     31  C   UNL     1      -5.246   3.227  26.180  0.00  0.00    +0.003 A 
ATOM     32  C   UNL     1      -4.553   2.879  25.900  0.00  0.00    +0.037 A 
ENDBRANCH  26  27
ENDBRANCH  25  26
ENDBRANCH  23  25
TORSDOF 6
ENDMDL
MODEL 3
REMARK VINA RESULT:     -12.8      1.991      2.594
REMARK  Name = 
REMARK  6 active torsions:
REMARK  status: ('A' for Active; 'I' for Inactive)
REMARK    1  A    between atoms: N_3  and  C_4
REMARK    2  A    between atoms: C_6  and  C_10
REMARK    3  A    between atoms: N_12  and  C_13
REMARK    4  A    between atoms: C_23  and  C_25
REMARK    5  A    between atoms: C_25  and  O_26
REMARK    6  A    between atoms: O_26  and  C_27
REMARK                            x       y       z     vdW  Elec       q    Type
REMARK                         _______ _______ _______ _____ _____    ______ ____
ROOT
ATOM     13  C   UNL     1      -3.813   1.473  24.944  0.00  0.00    +0.131 A 
ATOM     14  C   UNL     1      -4.597   1.264  25.095  0.00  0.00    +0.023 A 
ATOM     15  C   UNL     1      -5.152   1.847  25.276  0.00  0.00    +0.014 A 
ATOM     16  C   UNL     1      -4.923   2.639  25.305  0.00  0.00    +0.041 A 
ATOM     17  C   UNL     1      -5.268   3.475  25.465  0.00  0.00    +0.058 C 
ATOM     18  C   UNL     1      -5.868   3.801  25.629  0.00  0.00    +0.011 C 
ATOM     19  C   UNL     1      -5.093   4.004  25.479  0.00  0.00    +0.043 C 
ATOM     20  C   UNL     1      -4.220   4.443  25.332  0.00  0.00    +0.095 C 
ATOM     21  N   UNL     1      -3.753   3.771  25.162  0.00  0.00    -0.276 N 
ATOM     22  C   UNL     1      -4.432   3.914  25.325  0.00  0.00    +0.099 C 
ATOM     23  C   UNL     1      -3.084   3.328  24.970  0.00  0.00    +0.270 C 
ATOM     24  O   UNL     1      -2.360   3.704  24.849  0.00  0.00    -0.271 OA
ATOM     33  C   UNL     1      -4.724   3.134  25.311  0.00  0.00    +0.110 C 
ATOM     34  N   UNL     1      -4.140   2.848  25.154  0.00  0.00    -0.298 N 
ATOM     35  C   UNL     1      -3.584   2.265  24.973  0.00  0.00    +0.276 A 
ATOM     36  O   UNL     1      -2.840   1.968  24.780  0.00  0.00    -0.266 OA
ENDROOT
BRANCH  13  12
ATOM      1  O   UNL     1      -4.199  -0.120  25.134  0.00  0.00    -0.248 OA
ATOM      2  C   UNL     1      -3.451   0.094  24.858  0.00  0.00    +0.348 C 
ATOM      3  N   UNL     1      -2.895  -0.490  24.678  0.00  0.00    -0.161 NA
ATOM     12  N   UNL     1      -3.258   0.890  24.764  0.00  0.00    -0.156 NA
BRANCH   3   4
ATOM      4  C   UNL     1      -3.088  -1.286  24.772  0.00  0.00    +0.076 A 
ATOM      5  C   UNL     1      -3.526  -1.676  24.192  0.00  0.00    +0.027 A 
ATOM      6  C   UNL     1      -3.719  -2.472  24.287  0.00  0.00    +0.070 A 
ATOM      7  C   UNL     1      -3.473  -2.879  24.962  0.00  0.00    +0.010 A 
ATOM      8  C   UNL     1      -3.035  -2.489  25.542  0.00  0.00    +0.002 A 
ATOM      9  C   UNL     1      -2.843  -1.693  25.447  0.00  0.00    +0.017 A 
BRANCH   6  10
ATOM     10  C   UNL     1      -4.157  -2.863  23.707  0.00  0.00    +0.100 C 
ATOM     11  N   UNL     1      -4.595  -3.253  23.127  0.00  0.00    -0.191 NA
ENDBRANCH   6  10
ENDBRANCH   3   4
ENDBRANCH  13  12
BRANCH  23  25
ATOM     25  C   UNL     1      -3.140   2.507  24.900  0.00  0.00    +0.290 C 
BRANCH  25  26
ATOM     26  O   UNL     1      -2.501   2.075  24.608  0.00  0.00    -0.466 OA
BRANCH  26  27
ATOM     27  C   UNL     1      -1.730   2.301  24.792  0.00  0.00    +0.139 A 
ATOM     28  C   UNL     1      -1.241   2.615  24.206  0.00  0.00    +0.037 A 
ATOM     29  C   UNL     1      -0.469   2.842  24.390  0.00  0.00    +0.003 A 
ATOM     30  C   UNL     1      -0.186   2.754  25.160  0.00  0.00    +0.000 A 
ATOM     31  C   UNL     1      -0.675   2.439  25.746  0.00  0.00    +0.003 A 
ATOM     32  C   UNL     1      -1.446   2.213  25.562  0.00  0.00    +0.037 A 
ENDBRANCH  26  27
ENDBRANCH  25  26
ENDBRANCH  23  25
TORSDOF 6
ENDMDL
MODEL 4
REMARK VINA RESULT:     -12.7      1.411      3.090
REMARK  Name = 
REMARK  6 active torsions:
REMARK  status: ('A' for Active; 'I' for Inactive)
REMARK    1  A    between atoms: N_3  and  C_4
REMARK    2  A    between atoms: C_6  and  C_10
REMARK    3  A    between atoms: N_12  and  C_13
REMARK    4  A    between atoms: C_23  and  C_25
REMARK    5  A    between atoms: C_25  and  O_26
REMARK    6  A    between atoms: O_26  and  C_27
REMARK                            x       y       z     vdW  Elec       q    Type
REMARK                         _______ _______ _______ _____ _____    ______ ____
ROOT
ATOM     13  C   UNL     1      -2.901   1.401  24.545  0.00  0.00    +0.131 A 
ATOM     14  C   UNL     1      -2.703   2.194  24.655  0.00  0.00    +0.023 A 
ATOM     15  C   UNL     1      -3.285   2.740  24.866  0.00  0.00    +0.014 A 
ATOM     16  C   UNL     1      -4.065   2.492  24.967  0.00  0.00    +0.041 A 
ATOM     17  C   UNL     1      -4.895   2.820  25.185  0.00  0.00    +0.058 C 
ATOM     18  C   UNL     1      -5.224   3.415  25.358  0.00  0.00    +0.011 C 
ATOM     19  C   UNL     1      -5.416   2.631  25.249  0.00  0.00    +0.043 C 
ATOM     20  C   UNL     1      -5.840   1.743  25.164  0.00  0.00    +0.095 C 
ATOM     21  N   UNL     1      -5.172   1.288  24.954  0.00  0.00    -0.276 N 
ATOM     22  C   UNL     1      -5.320   1.968  25.108  0.00  0.00    +0.099 C 
ATOM     23  C   UNL     1      -4.726   0.625  24.747  0.00  0.00    +0.270 C 
ATOM     24  O   UNL     1      -5.090  -0.112  24.679  0.00  0.00    -0.271 OA
ATOM     33  C   UNL     1      -4.553   2.279  25.020  0.00  0.00    +0.110 C 
ATOM     34  N   UNL     1      -4.263   1.698  24.858  0.00  0.00    -0.298 N 
ATOM     35  C   UNL     1      -3.681   1.153  24.647  0.00  0.00    +0.276 A 
ATOM     36  O   UNL     1      -3.380   0.411  24.453  0.00  0.00    -0.266 OA
ENDROOT
BRANCH  13  12
ATOM      1  O   UNL     1      -1.343   1.899  24.334  0.00  0.00    -0.248 OA
ATOM      2  C   UNL     1      -1.540   1.105  24.229  0.00  0.00    +0.348 C 
ATOM      3  N   UNL     1      -0.957   0.559  24.018  0.00  0.00    -0.161 NA
ATOM     12  N   UNL     1      -2.319   0.856  24.335  0.00  0.00    -0.156 NA
BRANCH   3   4
ATOM      4  C   UNL     1      -0.178   0.808  23.912  0.00  0.00    +0.076 A 
ATOM      5  C   UNL     1       0.317   0.403  23.391  0.00  0.00    +0.027 A 
ATOM      6  C   UNL     1       1.096   0.651  23.285  0.00  0.00    +0.070 A 
ATOM      7  C   UNL     1       1.380   1.305  23.701  0.00  0.00    +0.010 A 
ATOM      8  C   UNL     1       0.885   1.710  24.222  0.00  0.00    +0.002 A 
ATOM      9  C   UNL     1       0.106   1.461  24.328  0.00  0.00    +0.017 A 
BRANCH   6  10
ATOM     10  C   UNL     1       1.591   0.247  22.765  0.00  0.00    +0.100 C 
ATOM     11  N   UNL     1       2.088  -0.157  22.244  0.00  0.00    -0.191 NA
ENDBRANCH   6  10
ENDBRANCH   3   4
ENDBRANCH  13  12
BRANCH  23  25
ATOM     25  C   UNL     1      -3.916   0.700  24.607  0.00  0.00    +0.290 C 
BRANCH  25  26
ATOM     26  O   UNL     1      -3.510   0.104  24.207  0.00  0.00    -0.466 OA
BRANCH  26  27
ATOM     27  C   UNL     1      -3.652  -0.688  24.390  0.00  0.00    +0.139 A 
ATOM     28  C   UNL     1      -3.996  -1.186  23.829  0.00  0.00    +0.037 A 
ATOM     29  C   UNL     1      -4.138  -1.978  24.011  0.00  0.00    +0.003 A 
ATOM     30  C   UNL     1      -3.936  -2.272  24.755  0.00  0.00    +0.000 A 
ATOM     31  C   UNL     1      -3.591  -1.774  25.316  0.00  0.00    +0.003 A 
ATOM     32  C   UNL     1      -3.450  -0.983  25.133  0.00  0.00    +0.037 A 
ENDBRANCH  26  27
ENDBRANCH  25  26
ENDBRANCH  23  25
TORSDOF 6
ENDMDL
MODEL 5
REMARK VINA RESULT:     -11.9      1.734      4.458
REMARK  Name = 
REMARK  6 active torsions:
REMARK  status: ('A' for Active; 'I' for Inactive)
REMARK    1  A    between atoms: N_3  and  C_4
REMARK    2  A    between atoms: C_6  and  C_10
REMARK    3  A    between atoms: N_12  and  C_13
REMARK    4  A    between atoms: C_23  and  C_25
REMARK    5  A    between atoms: C_25  and  O_26
REMARK    6  A    between atoms: O_26  and  C_27
REMARK                            x       y       z     vdW  Elec       q    Type
REMARK                         _______ _______ _______ _____ _____    ______ ____
ROOT
ATOM     13  C   UNL     1      -2.773   0.421  24.784  0.00  0.00    +0.131 A 
ATOM     14  C   UNL     1      -3.558   0.650  24.673  0.00  0.00    +0.023 A 
ATOM     15  C   UNL     1      -4.124   0.092  24.452  0.00  0.00    +0.014 A 
ATOM     16  C   UNL     1      -3.905  -0.696  24.344  0.00  0.00    +0.041 A 
ATOM     17  C   UNL     1      -4.263  -1.511  24.115  0.00  0.00    +0.058 C 
ATOM     18  C   UNL     1      -4.870  -1.815  23.936  0.00  0.00    +0.011 C 
ATOM     19  C   UNL     1      -4.094  -2.038  24.047  0.00  0.00    +0.043 C 
ATOM     20  C   UNL     1      -3.222  -2.496  24.131  0.00  0.00    +0.095 C 
ATOM     21  N   UNL     1      -2.744  -1.847  24.352  0.00  0.00    -0.276 N 
ATOM     22  C   UNL     1      -3.428  -1.968  24.193  0.00  0.00    +0.099 C 
ATOM     23  C   UNL     1      -2.066  -1.429  24.567  0.00  0.00    +0.270 C 
ATOM     24  O   UNL     1      -1.344  -1.821  24.634  0.00  0.00    -0.271 OA
ATOM     33  C   UNL     1      -3.711  -1.191  24.287  0.00  0.00    +0.110 C 
ATOM     34  N   UNL     1      -3.120  -0.925  24.455  0.00  0.00    -0.298 N 
ATOM     35  C   UNL     1      -2.555  -0.367  24.675  0.00  0.00    +0.276 A 
ATOM     36  O   UNL     1      -1.803  -0.095  24.877  0.00  0.00    -0.266 OA
ENDROOT
BRANCH  13  12
ATOM      1  O   UNL     1      -3.223   1.985  25.061  0.00  0.00    -0.248 OA
ATOM      2  C   UNL     1      -2.433   1.762  25.143  0.00  0.00    +0.348 C 
ATOM      3  N   UNL     1      -1.867   2.321  25.363  0.00  0.00    -0.161 NA
ATOM     12  N   UNL     1      -2.209   0.980  25.004  0.00  0.00    -0.156 NA
BRANCH   3   4
ATOM      4  C   UNL     1      -2.091   3.102  25.502  0.00  0.00    +0.076 A 
ATOM      5  C   UNL     1      -1.634   3.721  25.204  0.00  0.00    +0.027 A 
ATOM      6  C   UNL     1      -1.858   4.503  25.343  0.00  0.00    +0.070 A 
ATOM      7  C   UNL     1      -2.540   4.665  25.779  0.00  0.00    +0.010 A 
ATOM      8  C   UNL     1      -2.997   4.046  26.076  0.00  0.00    +0.002 A 
ATOM      9  C   UNL     1      -2.772   3.265  25.938  0.00  0.00    +0.017 A 
BRANCH   6  10
ATOM     10  C   UNL     1      -1.402   5.122  25.046  0.00  0.00    +0.100 C 
ATOM     11  N   UNL     1      -0.945   5.741  24.748  0.00  0.00    -0.191 NA
ENDBRANCH   6  10
ENDBRANCH   3   4
ENDBRANCH  13  12
BRANCH  23  25
ATOM     25  C   UNL     1      -2.111  -0.618  24.715  0.00  0.00    +0.290 C 
BRANCH  25  26
ATOM     26  O   UNL     1      -1.427  -0.195  24.898  0.00  0.00    -0.466 OA
BRANCH  26  27
ATOM     27  C   UNL     1      -0.734  -0.323  24.470  0.00  0.00    +0.139 A 
ATOM     28  C   UNL     1      -0.153  -0.827  24.769  0.00  0.00    +0.037 A 
ATOM     29  C   UNL     1       0.541  -0.956  24.341  0.00  0.00    +0.003 A 
ATOM     30  C   UNL     1       0.653  -0.580  23.615  0.00  0.00    +0.000 A 
ATOM     31  C   UNL     1       0.072  -0.076  23.316  0.00  0.00    +0.003 A 
ATOM     32  C   UNL     1      -0.621   0.052  23.744  0.00  0.00    +0.037 A 
ENDBRANCH  26  27
ENDBRANCH  25  26
ENDBRANCH  23  25
TORSDOF 6
ENDMDL
MODEL 6
REMARK VINA RESULT:     -11.9      2.019      4.001
REMARK  Name = 
REMARK  6 active torsions:
REMARK  status: ('A' for Active; 'I' for Inactive)
REMARK    1  A    between atoms: N_3  and  C_4
REMARK    2  A    between atoms: C_6  and  C_10
REMARK    3  A    between atoms: N_12  and  C_13
REMARK    4  A    between atoms: C_23  and  C_25
REMARK    5  A    between atoms: C_25  and  O_26
REMARK    6  A    between atoms: O_26  and  C_27
REMARK                            x       y       z     vdW  Elec       q    Type
REMARK                         _______ _______ _______ _____ _____    ______ ____
ROOT
ATOM     13  C   UNL     1      -2.758   0.270  25.047  0.00  0.00    +0.131 A 
ATOM     14  C   UNL     1      -2.062  -0.163  25.143  0.00  0.00    +0.023 A 
ATOM     15  C   UNL     1      -2.047  -0.966  24.956  0.00  0.00    +0.014 A 
ATOM     16  C   UNL     1      -2.727  -1.337  24.672  0.00  0.00    +0.041 A 
ATOM     17  C   UNL     1      -3.028  -2.158  24.390  0.00  0.00    +0.058 C 
ATOM     18  C   UNL     1      -2.814  -2.819  24.293  0.00  0.00    +0.011 C 
ATOM     19  C   UNL     1      -3.499  -2.389  24.200  0.00  0.00    +0.043 C 
ATOM     20  C   UNL     1      -4.408  -2.046  24.022  0.00  0.00    +0.095 C 
ATOM     21  N   UNL     1      -4.303  -1.247  24.243  0.00  0.00    -0.276 N 
ATOM     22  C   UNL     1      -3.912  -1.842  24.213  0.00  0.00    +0.099 C 
ATOM     23  C   UNL     1      -4.490  -0.455  24.379  0.00  0.00    +0.270 C 
ATOM     24  O   UNL     1      -5.252  -0.179  24.227  0.00  0.00    -0.271 OA
ATOM     33  C   UNL     1      -3.194  -1.527  24.493  0.00  0.00    +0.110 C 
ATOM     34  N   UNL     1      -3.423  -0.904  24.577  0.00  0.00    -0.298 N 
ATOM     35  C   UNL     1      -3.438  -0.100  24.764  0.00  0.00    +0.276 A 
ATOM     36  O   UNL     1      -3.775   0.648  24.847  0.00  0.00    -0.266 OA
ENDROOT
BRANCH  13  12
ATOM      1  O   UNL     1      -1.347   1.121  25.142  0.00  0.00    -0.248 OA
ATOM      2  C   UNL     1      -2.068   1.498  25.282  0.00  0.00    +0.348 C 
ATOM      3  N   UNL     1      -2.083   2.302  25.470  0.00  0.00    -0.161 NA
ATOM     12  N   UNL     1      -2.772   1.073  25.235  0.00  0.00    -0.156 NA
BRANCH   3   4
ATOM      4  C   UNL     1      -1.378   2.728  25.517  0.00  0.00    +0.076 A 
ATOM      5  C   UNL     1      -1.319   3.469  25.160  0.00  0.00    +0.027 A 
ATOM      6  C   UNL     1      -0.614   3.895  25.207  0.00  0.00    +0.070 A 
ATOM      7  C   UNL     1       0.032   3.580  25.612  0.00  0.00    +0.010 A 
ATOM      8  C   UNL     1      -0.027   2.839  25.969  0.00  0.00    +0.002 A 
ATOM      9  C   UNL     1      -0.732   2.413  25.922  0.00  0.00    +0.017 A 
BRANCH   6  10
ATOM     10  C   UNL     1      -0.555   4.636  24.850  0.00  0.00    +0.100 C 
ATOM     11  N   UNL     1      -0.496   5.377  24.492  0.00  0.00    -0.191 NA
ENDBRANCH   6  10
ENDBRANCH   3   4
ENDBRANCH  13  12
BRANCH  23  25
ATOM     25  C   UNL     1      -3.914   0.062  24.667  0.00  0.00    +0.290 C 
BRANCH  25  26
ATOM     26  O   UNL     1      -4.050   0.875  24.660  0.00  0.00    -0.466 OA
BRANCH  26  27
ATOM     27  C   UNL     1      -4.778   1.175  24.904  0.00  0.00    +0.139 A 
ATOM     28  C   UNL     1      -5.243   1.609  24.378  0.00  0.00    +0.037 A 
ATOM     29  C   UNL     1      -5.972   1.909  24.621  0.00  0.00    +0.003 A 
ATOM     30  C   UNL     1      -6.236   1.776  25.391  0.00  0.00    +0.000 A 
ATOM     31  C   UNL     1      -5.771   1.342  25.918  0.00  0.00    +0.003 A 
ATOM     32  C   UNL     1      -5.043   1.042  25.674  0.00  0.00    +0.037 A 
ENDBRANCH  26  27
ENDBRANCH  25  26
ENDBRANCH  23  25
TORSDOF 6
ENDMDL
MODEL 7
REMARK VINA RESULT:     -11.8      1.840      4.893
REMARK  Name = 
REMARK  6 active torsions:
REMARK  status: ('A' for Active; 'I' for Inactive)
REMARK    1  A    between atoms: N_3  and  C_4
REMARK    2  A    between atoms: C_6  and  C_10
REMARK    3  A    between atoms: N_12  and  C_13
REMARK    4  A    between atoms: C_23  and  C_25
REMARK    5  A    between atoms: C_25  and  O_26
REMARK    6  A    between atoms: O_26  and  C_27
REMARK                            x       y       z     vdW  Elec       q    Type
REMARK                         _______ _______ _______ _____ _____    ______ ____
ROOT
ATOM     13  C   UNL     1      -2.929   0.031  24.662  0.00  0.00    +0.131 A 
ATOM     14  C   UNL     1      -3.550  -0.512  24.680  0.00  0.00    +0.023 A 
ATOM     15  C   UNL     1      -3.390  -1.322  24.671  0.00  0.00    +0.014 A 
ATOM     16  C   UNL     1      -2.610  -1.588  24.645  0.00  0.00    +0.041 A 
ATOM     17  C   UNL     1      -2.122  -2.366  24.626  0.00  0.00    +0.058 C 
ATOM     18  C   UNL     1      -2.198  -3.064  24.626  0.00  0.00    +0.011 C 
ATOM     19  C   UNL     1      -1.588  -2.525  24.608  0.00  0.00    +0.043 C 
ATOM     20  C   UNL     1      -0.727  -2.039  24.582  0.00  0.00    +0.095 C 
ATOM     21  N   UNL     1      -1.010  -1.253  24.594  0.00  0.00    -0.276 N 
ATOM     22  C   UNL     1      -1.283  -1.911  24.601  0.00  0.00    +0.099 C 
ATOM     23  C   UNL     1      -0.991  -0.428  24.597  0.00  0.00    +0.270 C 
ATOM     24  O   UNL     1      -0.267  -0.033  24.575  0.00  0.00    -0.271 OA
ATOM     33  C   UNL     1      -2.089  -1.706  24.628  0.00  0.00    +0.110 C 
ATOM     34  N   UNL     1      -1.989  -1.044  24.627  0.00  0.00    -0.298 N 
ATOM     35  C   UNL     1      -2.148  -0.235  24.636  0.00  0.00    +0.276 A 
ATOM     36  O   UNL     1      -1.965   0.569  24.633  0.00  0.00    -0.266 OA
ENDROOT
BRANCH  13  12
ATOM      1  O   UNL     1      -4.452   0.567  25.003  0.00  0.00    -0.248 OA
ATOM      2  C   UNL     1      -3.850   1.108  24.841  0.00  0.00    +0.348 C 
ATOM      3  N   UNL     1      -4.010   1.919  24.849  0.00  0.00    -0.161 NA
ATOM     12  N   UNL     1      -3.089   0.840  24.671  0.00  0.00    -0.156 NA
BRANCH   3   4
ATOM      4  C   UNL     1      -4.771   2.187  25.019  0.00  0.00    +0.076 A 
ATOM      5  C   UNL     1      -4.889   2.969  25.254  0.00  0.00    +0.027 A 
ATOM      6  C   UNL     1      -5.650   3.237  25.425  0.00  0.00    +0.070 A 
ATOM      7  C   UNL     1      -6.293   2.724  25.360  0.00  0.00    +0.010 A 
ATOM      8  C   UNL     1      -6.175   1.942  25.125  0.00  0.00    +0.002 A 
ATOM      9  C   UNL     1      -5.414   1.674  24.955  0.00  0.00    +0.017 A 
BRANCH   6  10
ATOM     10  C   UNL     1      -5.769   4.019  25.660  0.00  0.00    +0.100 C 
ATOM     11  N   UNL     1      -5.889   4.800  25.894  0.00  0.00    -0.191 NA
ENDBRANCH   6  10
ENDBRANCH   3   4
ENDBRANCH  13  12
BRANCH  23  25
ATOM     25  C   UNL     1      -1.695   0.002  24.622  0.00  0.00    +0.290 C 
BRANCH  25  26
ATOM     26  O   UNL     1      -1.688   0.813  24.472  0.00  0.00    -0.466 OA
BRANCH  26  27
ATOM     27  C   UNL     1      -1.074   1.281  24.760  0.00  0.00    +0.139 A 
ATOM     28  C   UNL     1      -0.530   1.615  24.236  0.00  0.00    +0.037 A 
ATOM     29  C   UNL     1       0.086   2.084  24.523  0.00  0.00    +0.003 A 
ATOM     30  C   UNL     1       0.157   2.219  25.333  0.00  0.00    +0.000 A 
ATOM     31  C   UNL     1      -0.386   1.885  25.857  0.00  0.00    +0.003 A 
ATOM     32  C   UNL     1      -1.001   1.417  25.570  0.00  0.00    +0.037 A 
ENDBRANCH  26  27
ENDBRANCH  25  26
ENDBRANCH  23  25
TORSDOF 6
ENDMDL
MODEL 8
REMARK VINA RESULT:     -11.7      1.683      5.571
REMARK  Name = 
REMARK  6 active torsions:
REMARK  status: ('A' for Active; 'I' for Inactive)
REMARK    1  A    between atoms: N_3  and  C_4
REMARK    2  A    between atoms: C_6  and  C_10
REMARK    3  A    between atoms: N_12  and  C_13
REMARK    4  A    between atoms: C_23  and  C_25
REMARK    5  A    between atoms: C_25  and  O_26
REMARK    6  A    between atoms: O_26  and  C_27
REMARK                            x       y       z     vdW  Elec       q    Type
REMARK                         _______ _______ _______ _____ _____    ______ ____
ROOT
ATOM     13  C   UNL     1      -2.461   0.521  24.712  0.00  0.00    +0.131 A 
ATOM     14  C   UNL     1      -2.211   1.272  24.477  0.00  0.00    +0.023 A 
ATOM     15  C   UNL     1      -1.454   1.375  24.164  0.00  0.00    +0.014 A 
ATOM     16  C   UNL     1      -0.949   0.728  24.086  0.00  0.00    +0.041 A 
ATOM     17  C   UNL     1      -0.103   0.514  23.796  0.00  0.00    +0.058 C 
ATOM     18  C   UNL     1       0.473   0.803  23.519  0.00  0.00    +0.011 C 
ATOM     19  C   UNL     1       0.223   0.064  23.752  0.00  0.00    +0.043 C 
ATOM     20  C   UNL     1       0.106  -0.892  23.972  0.00  0.00    +0.095 C 
ATOM     21  N   UNL     1      -0.673  -0.873  24.272  0.00  0.00    -0.276 N 
ATOM     22  C   UNL     1      -0.200  -0.413  24.004  0.00  0.00    +0.099 C 
ATOM     23  C   UNL     1      -1.380  -1.149  24.598  0.00  0.00    +0.270 C 
ATOM     24  O   UNL     1      -1.466  -1.949  24.778  0.00  0.00    -0.271 OA
ATOM     33  C   UNL     1      -0.662   0.278  24.057  0.00  0.00    +0.110 C 
ATOM     34  N   UNL     1      -1.199  -0.022  24.321  0.00  0.00    -0.298 N 
ATOM     35  C   UNL     1      -1.955  -0.126  24.634  0.00  0.00    +0.276 A 
ATOM     36  O   UNL     1      -2.586  -0.547  24.957  0.00  0.00    -0.266 OA
ENDROOT
BRANCH  13  12
ATOM      1  O   UNL     1      -3.583   1.723  24.569  0.00  0.00    -0.248 OA
ATOM      2  C   UNL     1      -3.778   1.019  24.954  0.00  0.00    +0.348 C 
ATOM      3  N   UNL     1      -4.535   0.916  25.268  0.00  0.00    -0.161 NA
ATOM     12  N   UNL     1      -3.217   0.419  25.025  0.00  0.00    -0.156 NA
BRANCH   3   4
ATOM      4  C   UNL     1      -5.096   1.516  25.196  0.00  0.00    +0.076 A 
ATOM      5  C   UNL     1      -4.945   2.262  25.515  0.00  0.00    +0.027 A 
ATOM      6  C   UNL     1      -5.506   2.862  25.444  0.00  0.00    +0.070 A 
ATOM      7  C   UNL     1      -6.219   2.716  25.054  0.00  0.00    +0.010 A 
ATOM      8  C   UNL     1      -6.370   1.971  24.735  0.00  0.00    +0.002 A 
ATOM      9  C   UNL     1      -5.809   1.371  24.806  0.00  0.00    +0.017 A 
BRANCH   6  10
ATOM     10  C   UNL     1      -5.356   3.608  25.762  0.00  0.00    +0.100 C 
ATOM     11  N   UNL     1      -5.205   4.354  26.080  0.00  0.00    -0.191 NA
ENDBRANCH   6  10
ENDBRANCH   3   4
ENDBRANCH  13  12
BRANCH  23  25
ATOM     25  C   UNL     1      -2.000  -0.623  24.743  0.00  0.00    +0.290 C 
BRANCH  25  26
ATOM     26  O   UNL     1      -2.682  -0.887  25.125  0.00  0.00    -0.466 OA
BRANCH  26  27
ATOM     27  C   UNL     1      -3.016  -1.612  24.921  0.00  0.00    +0.139 A 
ATOM     28  C   UNL     1      -2.987  -2.244  25.452  0.00  0.00    +0.037 A 
ATOM     29  C   UNL     1      -3.321  -2.971  25.249  0.00  0.00    +0.003 A 
ATOM     30  C   UNL     1      -3.684  -3.065  24.514  0.00  0.00    +0.000 A 
ATOM     31  C   UNL     1      -3.713  -2.434  23.983  0.00  0.00    +0.003 A 
ATOM     32  C   UNL     1      -3.379  -1.709  24.187  0.00  0.00    +0.037 A 
ENDBRANCH  26  27
ENDBRANCH  25  26
ENDBRANCH  23  25
TORSDOF 6
ENDMDL
