REMARK  Name = 
REMARK  5 active torsions:
REMARK  status: ('A' for Active; 'I' for Inactive)
REMARK    1  A    between atoms: C_2  and  C_5
REMARK    2  A    between atoms: C_5  and  C_6
REMARK    3  A    between atoms: N_8  and  C_9
REMARK    4  A    between atoms: C_9  and  C_10
REMARK    5  A    between atoms: C_17  and  C_18
REMARK                            x       y       z     vdW  Elec       q    Type
REMARK                         _______ _______ _______ _____ _____    ______ ____
ROOT
ATOM     10  C   UNL     1       1.814  -2.106   0.000  0.00  0.00    +0.079 C 
ATOM     11  C   UNL     1       1.661  -1.343   0.000  0.00  0.00    +0.018 C 
ATOM     12  C   UNL     1       0.923  -1.010   0.000  0.00  0.00    +0.008 C 
ATOM     13  C   UNL     1       0.961  -0.114   0.000  0.00  0.00    +0.018 C 
ATOM     14  C   UNL     1       1.205  -0.720   0.000  0.00  0.00    +0.072 C 
ATOM     15  N   UNL     1       1.065  -1.759   0.000  0.00  0.00    -0.272 NA
ATOM     16  C   UNL     1       0.226  -2.118   0.000  0.00  0.00    +0.076 C 
ATOM     17  C   UNL     1       0.119  -1.362   0.000  0.00  0.00    +0.038 C 
ENDROOT
BRANCH  17  18
ATOM     18  C   UNL     1      -0.602  -0.960   0.000  0.00  0.00    -0.025 C 
ATOM     19  C   UNL     1      -1.310  -1.384   0.000  0.00  0.00    -0.005 C 
ENDBRANCH  17  18
BRANCH  10   9
ATOM      9  C   UNL     1       2.324  -2.754   0.000  0.00  0.00    +0.131 C 
BRANCH   9   8
ATOM      6  C   UNL     1       2.529  -4.168   0.000  0.00  0.00    +0.241 C 
ATOM      7  O   UNL     1       3.345  -4.050   0.000  0.00  0.00    -0.273 OA
ATOM      8  N   UNL     1       2.018  -3.520   0.000  0.00  0.00    -0.204 NA
BRANCH   6   5
ATOM      5  C   UNL     1       2.223  -4.934   0.000  0.00  0.00    +0.087 C 
BRANCH   5   2
ATOM      1  C   UNL     1       3.244  -6.230   0.000  0.00  0.00    +0.000 C 
ATOM      2  C   UNL     1       2.733  -5.582   0.000  0.00  0.00    +0.009 C 
ATOM      3  C   UNL     1       3.381  -5.072   0.000  0.00  0.00    +0.000 C 
ATOM      4  C   UNL     1       2.085  -6.093   0.000  0.00  0.00    +0.000 C 
ENDBRANCH   5   2
ENDBRANCH   6   5
ENDBRANCH   9   8
ENDBRANCH  10   9
TORSDOF 5
