MODEL 1
REMARK VINA RESULT:     -11.8      0.000      0.000
REMARK  Name = 
REMARK  5 active torsions:
REMARK  status: ('A' for Active; 'I' for Inactive)
REMARK    1  A    between atoms: C_2  and  S_3
REMARK    2  A    between atoms: S_3  and  C_6
REMARK    3  A    between atoms: C_11  and  C_13
REMARK    4  A    between atoms: N_16  and  C_17
REMARK    5  A    between atoms: C_17  and  C_18
REMARK                            x       y       z     vdW  Elec       q    Type
REMARK                         _______ _______ _______ _____ _____    ______ ____
ROOT
ATOM     13  C   UNL     1      -4.187   1.724  24.996  0.00  0.00    +0.094 C 
ATOM     14  C   UNL     1      -4.996   1.653  25.141  0.00  0.00    +0.028 C 
ATOM     15  C   UNL     1      -5.227   0.890  24.929  0.00  0.00    +0.073 C 
ATOM     16  N   UNL     1      -4.561   0.489  24.654  0.00  0.00    -0.268 NA
ATOM     27  C   UNL     1      -3.918   1.005  24.695  0.00  0.00    +0.082 C 
ENDROOT
BRANCH  13  11
ATOM      6  C   UNL     1      -1.974   4.485  25.260  0.00  0.00    +0.107 A 
ATOM      7  C   UNL     1      -2.118   3.790  24.840  0.00  0.00    +0.041 A 
ATOM      8  C   UNL     1      -2.769   3.319  25.029  0.00  0.00    +0.120 A 
ATOM      9  C   UNL     1      -3.277   3.545  25.640  0.00  0.00    +0.164 A 
ATOM     10  O   UNL     1      -3.870   2.974  25.701  0.00  0.00    -0.438 OA
ATOM     11  C   UNL     1      -3.728   2.397  25.129  0.00  0.00    +0.207 A 
ATOM     12  N   UNL     1      -3.048   2.610  24.714  0.00  0.00    -0.212 NA
ATOM     28  C   UNL     1      -3.133   4.240  26.060  0.00  0.00    +0.040 A 
ATOM     29  C   UNL     1      -2.483   4.710  25.871  0.00  0.00    +0.022 A 
BRANCH   6   3
ATOM      3  S   UNL     1      -1.324   4.955  25.071  0.00  0.00    +0.009 S 
ATOM      4  O   UNL     1      -1.811   5.620  25.051  0.00  0.00    -0.169 OA
ATOM      5  O   UNL     1      -0.837   4.289  25.091  0.00  0.00    -0.169 OA
BRANCH   3   2
ATOM      1  C   UNL     1      -0.108   5.152  24.346  0.00  0.00    +0.028 C 
ATOM      2  C   UNL     1      -0.673   5.425  24.881  0.00  0.00    +0.156 C 
ENDBRANCH   3   2
ENDBRANCH   6   3
ENDBRANCH  13  11
BRANCH  16  17
ATOM     17  C   UNL     1      -4.541  -0.291  24.384  0.00  0.00    +0.101 C 
BRANCH  17  18
ATOM     18  C   UNL     1      -4.126  -0.864  24.809  0.00  0.00    +0.014 A 
ATOM     19  C   UNL     1      -3.804  -0.770  25.563  0.00  0.00    +0.096 A 
ATOM     20  N   UNL     1      -3.440  -1.479  25.774  0.00  0.00    -0.244 NA
ATOM     21  C   UNL     1      -3.536  -2.011  25.151  0.00  0.00    +0.081 A 
ATOM     22  C   UNL     1      -3.961  -1.630  24.554  0.00  0.00    +0.016 A 
ATOM     23  C   UNL     1      -4.141  -2.032  23.856  0.00  0.00    +0.001 A 
ATOM     24  C   UNL     1      -3.897  -2.813  23.755  0.00  0.00    +0.000 A 
ATOM     25  C   UNL     1      -3.473  -3.193  24.351  0.00  0.00    +0.002 A 
ATOM     26  C   UNL     1      -3.292  -2.793  25.049  0.00  0.00    +0.019 A 
ENDBRANCH  17  18
ENDBRANCH  16  17
TORSDOF 5
ENDMDL
MODEL 2
REMARK VINA RESULT:     -11.2      2.930      6.379
REMARK  Name = 
REMARK  5 active torsions:
REMARK  status: ('A' for Active; 'I' for Inactive)
REMARK    1  A    between atoms: C_2  and  S_3
REMARK    2  A    between atoms: S_3  and  C_6
REMARK    3  A    between atoms: C_11  and  C_13
REMARK    4  A    between atoms: N_16  and  C_17
REMARK    5  A    between atoms: C_17  and  C_18
REMARK                            x       y       z     vdW  Elec       q    Type
REMARK                         _______ _______ _______ _____ _____    ______ ____
ROOT
ATOM     13  C   UNL     1      -0.565   0.953  24.801  0.00  0.00    +0.094 C 
ATOM     14  C   UNL     1       0.021   1.213  24.282  0.00  0.00    +0.028 C 
ATOM     15  C   UNL     1       0.217   1.987  24.486  0.00  0.00    +0.073 C 
ATOM     16  N   UNL     1      -0.246   2.207  25.132  0.00  0.00    -0.268 NA
ATOM     27  C   UNL     1      -0.730   1.567  25.326  0.00  0.00    +0.082 C 
ENDROOT
BRANCH  13  11
ATOM      6  C   UNL     1      -2.450  -2.050  24.688  0.00  0.00    +0.107 A 
ATOM      7  C   UNL     1      -2.504  -1.232  24.601  0.00  0.00    +0.041 A 
ATOM      8  C   UNL     1      -1.832  -0.761  24.697  0.00  0.00    +0.120 A 
ATOM      9  C   UNL     1      -1.107  -1.111  24.880  0.00  0.00    +0.164 A 
ATOM     10  O   UNL     1      -0.544  -0.510  24.941  0.00  0.00    -0.438 OA
ATOM     11  C   UNL     1      -0.922   0.209  24.796  0.00  0.00    +0.207 A 
ATOM     12  N   UNL     1      -1.717   0.054  24.646  0.00  0.00    -0.212 NA
ATOM     28  C   UNL     1      -1.054  -1.929  24.966  0.00  0.00    +0.040 A 
ATOM     29  C   UNL     1      -1.725  -2.399  24.871  0.00  0.00    +0.022 A 
BRANCH   6   3
ATOM      3  S   UNL     1      -3.121  -2.520  24.592  0.00  0.00    +0.009 S 
ATOM      4  O   UNL     1      -2.840  -2.772  23.859  0.00  0.00    -0.169 OA
ATOM      5  O   UNL     1      -3.402  -2.268  25.325  0.00  0.00    -0.169 OA
BRANCH   3   2
ATOM      1  C   UNL     1      -4.311  -2.847  23.871  0.00  0.00    +0.028 C 
ATOM      2  C   UNL     1      -3.793  -2.990  24.497  0.00  0.00    +0.156 C 
ENDBRANCH   3   2
ENDBRANCH   6   3
ENDBRANCH  13  11
BRANCH  16  17
ATOM     17  C   UNL     1      -0.230   2.937  25.516  0.00  0.00    +0.101 C 
BRANCH  17  18
ATOM     18  C   UNL     1      -0.922   3.378  25.593  0.00  0.00    +0.014 A 
ATOM     19  C   UNL     1      -1.621   3.126  25.952  0.00  0.00    +0.096 A 
ATOM     20  N   UNL     1      -2.168   3.741  25.906  0.00  0.00    -0.244 NA
ATOM     21  C   UNL     1      -1.808   4.373  25.518  0.00  0.00    +0.081 A 
ATOM     22  C   UNL     1      -1.038   4.149  25.325  0.00  0.00    +0.016 A 
ATOM     23  C   UNL     1      -0.543   4.677  24.929  0.00  0.00    +0.001 A 
ATOM     24  C   UNL     1      -0.816   5.428  24.727  0.00  0.00    +0.000 A 
ATOM     25  C   UNL     1      -1.586   5.652  24.921  0.00  0.00    +0.002 A 
ATOM     26  C   UNL     1      -2.083   5.125  25.316  0.00  0.00    +0.019 A 
ENDBRANCH  17  18
ENDBRANCH  16  17
TORSDOF 5
ENDMDL
MODEL 3
REMARK VINA RESULT:     -11.1      2.366      5.687
REMARK  Name = 
REMARK  5 active torsions:
REMARK  status: ('A' for Active; 'I' for Inactive)
REMARK    1  A    between atoms: C_2  and  S_3
REMARK    2  A    between atoms: S_3  and  C_6
REMARK    3  A    between atoms: C_11  and  C_13
REMARK    4  A    between atoms: N_16  and  C_17
REMARK    5  A    between atoms: C_17  and  C_18
REMARK                            x       y       z     vdW  Elec       q    Type
REMARK                         _______ _______ _______ _____ _____    ______ ____
ROOT
ATOM     13  C   UNL     1      -4.515   1.466  24.777  0.00  0.00    +0.094 C 
ATOM     14  C   UNL     1      -5.253   1.736  25.030  0.00  0.00    +0.028 C 
ATOM     15  C   UNL     1      -5.223   2.559  25.070  0.00  0.00    +0.073 C 
ATOM     16  N   UNL     1      -4.468   2.799  24.842  0.00  0.00    -0.268 NA
ATOM     27  C   UNL     1      -4.030   2.122  24.661  0.00  0.00    +0.082 C 
ENDROOT
BRANCH  13  11
ATOM      6  C   UNL     1      -3.244  -1.833  24.476  0.00  0.00    +0.107 A 
ATOM      7  C   UNL     1      -3.072  -1.082  24.771  0.00  0.00    +0.041 A 
ATOM      8  C   UNL     1      -3.615  -0.467  24.677  0.00  0.00    +0.120 A 
ATOM      9  C   UNL     1      -4.329  -0.604  24.288  0.00  0.00    +0.164 A 
ATOM     10  O   UNL     1      -4.753   0.104  24.278  0.00  0.00    -0.438 OA
ATOM     11  C   UNL     1      -4.300   0.677  24.662  0.00  0.00    +0.207 A 
ATOM     12  N   UNL     1      -3.597   0.325  24.908  0.00  0.00    -0.212 NA
ATOM     28  C   UNL     1      -4.501  -1.355  23.993  0.00  0.00    +0.040 A 
ATOM     29  C   UNL     1      -3.959  -1.969  24.087  0.00  0.00    +0.022 A 
BRANCH   6   3
ATOM      3  S   UNL     1      -2.702  -2.447  24.570  0.00  0.00    +0.009 S 
ATOM      4  O   UNL     1      -2.152  -2.031  24.118  0.00  0.00    -0.169 OA
ATOM      5  O   UNL     1      -3.252  -2.863  25.022  0.00  0.00    -0.169 OA
BRANCH   3   2
ATOM      1  C   UNL     1      -1.362  -2.938  24.496  0.00  0.00    +0.028 C 
ATOM      2  C   UNL     1      -2.160  -3.062  24.664  0.00  0.00    +0.156 C 
ENDBRANCH   3   2
ENDBRANCH   6   3
ENDBRANCH  13  11
BRANCH  16  17
ATOM     17  C   UNL     1      -4.197   3.577  24.802  0.00  0.00    +0.101 C 
BRANCH  17  18
ATOM     18  C   UNL     1      -3.637   3.848  25.343  0.00  0.00    +0.014 A 
ATOM     19  C   UNL     1      -3.708   3.829  26.165  0.00  0.00    +0.096 A 
ATOM     20  N   UNL     1      -3.022   4.154  26.488  0.00  0.00    -0.244 NA
ATOM     21  C   UNL     1      -2.528   4.375  25.866  0.00  0.00    +0.081 A 
ATOM     22  C   UNL     1      -2.908   4.186  25.158  0.00  0.00    +0.016 A 
ATOM     23  C   UNL     1      -2.540   4.346  24.437  0.00  0.00    +0.001 A 
ATOM     24  C   UNL     1      -1.794   4.695  24.423  0.00  0.00    +0.000 A 
ATOM     25  C   UNL     1      -1.414   4.884  25.131  0.00  0.00    +0.002 A 
ATOM     26  C   UNL     1      -1.780   4.725  25.852  0.00  0.00    +0.019 A 
ENDBRANCH  17  18
ENDBRANCH  16  17
TORSDOF 5
ENDMDL
MODEL 4
REMARK VINA RESULT:     -10.6      1.672      2.314
REMARK  Name = 
REMARK  5 active torsions:
REMARK  status: ('A' for Active; 'I' for Inactive)
REMARK    1  A    between atoms: C_2  and  S_3
REMARK    2  A    between atoms: S_3  and  C_6
REMARK    3  A    between atoms: C_11  and  C_13
REMARK    4  A    between atoms: N_16  and  C_17
REMARK    5  A    between atoms: C_17  and  C_18
REMARK                            x       y       z     vdW  Elec       q    Type
REMARK                         _______ _______ _______ _____ _____    ______ ____
ROOT
ATOM     13  C   UNL     1      -1.319   0.253  25.386  0.00  0.00    +0.094 C 
ATOM     14  C   UNL     1      -0.799  -0.359  25.200  0.00  0.00    +0.028 C 
ATOM     15  C   UNL     1      -1.217  -1.069  25.234  0.00  0.00    +0.073 C 
ATOM     16  N   UNL     1      -1.996  -0.897  25.441  0.00  0.00    -0.268 NA
ATOM     27  C   UNL     1      -2.059  -0.079  25.535  0.00  0.00    +0.082 C 
ENDROOT
BRANCH  13  11
ATOM      6  C   UNL     1      -0.832   3.765  25.268  0.00  0.00    +0.107 A 
ATOM      7  C   UNL     1      -1.309   3.154  24.987  0.00  0.00    +0.041 A 
ATOM      8  C   UNL     1      -1.157   2.374  25.213  0.00  0.00    +0.120 A 
ATOM      9  C   UNL     1      -0.528   2.208  25.720  0.00  0.00    +0.164 A 
ATOM     10  O   UNL     1      -0.512   1.392  25.846  0.00  0.00    -0.438 OA
ATOM     11  C   UNL     1      -1.132   1.056  25.417  0.00  0.00    +0.207 A 
ATOM     12  N   UNL     1      -1.530   1.663  25.026  0.00  0.00    -0.212 NA
ATOM     28  C   UNL     1      -0.051   2.819  26.001  0.00  0.00    +0.040 A 
ATOM     29  C   UNL     1      -0.203   3.598  25.775  0.00  0.00    +0.022 A 
BRANCH   6   3
ATOM      3  S   UNL     1      -0.984   4.544  25.042  0.00  0.00    +0.009 S 
ATOM      4  O   UNL     1      -0.347   4.516  24.519  0.00  0.00    -0.169 OA
ATOM      5  O   UNL     1      -1.621   4.571  25.565  0.00  0.00    -0.169 OA
BRANCH   3   2
ATOM      1  C   UNL     1      -1.802   5.714  25.105  0.00  0.00    +0.028 C 
ATOM      2  C   UNL     1      -1.136   5.323  24.816  0.00  0.00    +0.156 C 
ENDBRANCH   3   2
ENDBRANCH   6   3
ENDBRANCH  13  11
BRANCH  16  17
ATOM     17  C   UNL     1      -2.606  -1.444  25.538  0.00  0.00    +0.101 C 
BRANCH  17  18
ATOM     18  C   UNL     1      -3.255  -1.434  25.030  0.00  0.00    +0.014 A 
ATOM     19  C   UNL     1      -3.729  -0.779  24.862  0.00  0.00    +0.096 A 
ATOM     20  N   UNL     1      -4.311  -1.016  24.328  0.00  0.00    -0.244 NA
ATOM     21  C   UNL     1      -4.197  -1.816  24.166  0.00  0.00    +0.081 A 
ATOM     22  C   UNL     1      -3.544  -2.074  24.599  0.00  0.00    +0.016 A 
ATOM     23  C   UNL     1      -3.298  -2.860  24.545  0.00  0.00    +0.001 A 
ATOM     24  C   UNL     1      -3.704  -3.387  24.058  0.00  0.00    +0.000 A 
ATOM     25  C   UNL     1      -4.357  -3.129  23.625  0.00  0.00    +0.002 A 
ATOM     26  C   UNL     1      -4.604  -2.344  23.678  0.00  0.00    +0.019 A 
ENDBRANCH  17  18
ENDBRANCH  16  17
TORSDOF 5
ENDMDL
MODEL 5
REMARK VINA RESULT:     -10.3      4.194      4.775
REMARK  Name = 
REMARK  5 active torsions:
REMARK  status: ('A' for Active; 'I' for Inactive)
REMARK    1  A    between atoms: C_2  and  S_3
REMARK    2  A    between atoms: S_3  and  C_6
REMARK    3  A    between atoms: C_11  and  C_13
REMARK    4  A    between atoms: N_16  and  C_17
REMARK    5  A    between atoms: C_17  and  C_18
REMARK                            x       y       z     vdW  Elec       q    Type
REMARK                         _______ _______ _______ _____ _____    ______ ____
ROOT
ATOM     13  C   UNL     1      -0.595   0.531  24.045  0.00  0.00    +0.094 C 
ATOM     14  C   UNL     1      -1.012   1.237  24.143  0.00  0.00    +0.028 C 
ATOM     15  C   UNL     1      -1.726   1.061  24.516  0.00  0.00    +0.073 C 
ATOM     16  N   UNL     1      -1.751   0.247  24.649  0.00  0.00    -0.268 NA
ATOM     27  C   UNL     1      -1.051  -0.080  24.357  0.00  0.00    +0.082 C 
ENDROOT
BRANCH  13  11
ATOM      6  C   UNL     1       2.738   0.446  22.833  0.00  0.00    +0.107 A 
ATOM      7  C   UNL     1       2.256   0.768  23.418  0.00  0.00    +0.041 A 
ATOM      8  C   UNL     1       1.451   0.583  23.439  0.00  0.00    +0.120 A 
ATOM      9  C   UNL     1       1.131   0.076  22.872  0.00  0.00    +0.164 A 
ATOM     10  O   UNL     1       0.325  -0.005  23.031  0.00  0.00    -0.438 OA
ATOM     11  C   UNL     1       0.148   0.452  23.695  0.00  0.00    +0.207 A 
ATOM     12  N   UNL     1       0.844   0.815  23.947  0.00  0.00    -0.212 NA
ATOM     28  C   UNL     1       1.614  -0.246  22.286  0.00  0.00    +0.040 A 
ATOM     29  C   UNL     1       2.417  -0.061  22.266  0.00  0.00    +0.022 A 
BRANCH   6   3
ATOM      3  S   UNL     1       3.542   0.630  22.812  0.00  0.00    +0.009 S 
ATOM      4  O   UNL     1       3.357   1.434  22.820  0.00  0.00    -0.169 OA
ATOM      5  O   UNL     1       3.726  -0.173  22.804  0.00  0.00    -0.169 OA
BRANCH   3   2
ATOM      1  C   UNL     1       4.873   0.421  23.289  0.00  0.00    +0.028 C 
ATOM      2  C   UNL     1       4.346   0.815  22.792  0.00  0.00    +0.156 C 
ENDBRANCH   3   2
ENDBRANCH   6   3
ENDBRANCH  13  11
BRANCH  16  17
ATOM     17  C   UNL     1      -2.367  -0.167  25.010  0.00  0.00    +0.101 C 
BRANCH  17  18
ATOM     18  C   UNL     1      -3.003  -0.435  24.560  0.00  0.00    +0.014 A 
ATOM     19  C   UNL     1      -3.473   0.025  24.061  0.00  0.00    +0.096 A 
ATOM     20  N   UNL     1      -4.042  -0.466  23.722  0.00  0.00    -0.244 NA
ATOM     21  C   UNL     1      -3.925  -1.229  24.012  0.00  0.00    +0.081 A 
ATOM     22  C   UNL     1      -3.283  -1.210  24.530  0.00  0.00    +0.016 A 
ATOM     23  C   UNL     1      -3.037  -1.902  24.907  0.00  0.00    +0.001 A 
ATOM     24  C   UNL     1      -3.432  -2.611  24.766  0.00  0.00    +0.000 A 
ATOM     25  C   UNL     1      -4.074  -2.631  24.248  0.00  0.00    +0.002 A 
ATOM     26  C   UNL     1      -4.321  -1.940  23.871  0.00  0.00    +0.019 A 
ENDBRANCH  17  18
ENDBRANCH  16  17
TORSDOF 5
ENDMDL
MODEL 6
REMARK VINA RESULT:      -9.9      4.045      5.240
REMARK  Name = 
REMARK  5 active torsions:
REMARK  status: ('A' for Active; 'I' for Inactive)
REMARK    1  A    between atoms: C_2  and  S_3
REMARK    2  A    between atoms: S_3  and  C_6
REMARK    3  A    between atoms: C_11  and  C_13
REMARK    4  A    between atoms: N_16  and  C_17
REMARK    5  A    between atoms: C_17  and  C_18
REMARK                            x       y       z     vdW  Elec       q    Type
REMARK                         _______ _______ _______ _____ _____    ______ ____
ROOT
ATOM     13  C   UNL     1      -0.803   0.652  24.175  0.00  0.00    +0.094 C 
ATOM     14  C   UNL     1      -0.963   0.558  24.979  0.00  0.00    +0.028 C 
ATOM     15  C   UNL     1      -1.762   0.722  25.100  0.00  0.00    +0.073 C 
ATOM     16  N   UNL     1      -2.097   0.917  24.372  0.00  0.00    -0.268 NA
ATOM     27  C   UNL     1      -1.503   0.874  23.800  0.00  0.00    +0.082 C 
ENDROOT
BRANCH  13  11
ATOM      6  C   UNL     1       2.491   0.469  22.869  0.00  0.00    +0.107 A 
ATOM      7  C   UNL     1       2.023   0.845  23.434  0.00  0.00    +0.041 A 
ATOM      8  C   UNL     1       1.222   0.658  23.500  0.00  0.00    +0.120 A 
ATOM      9  C   UNL     1       0.889   0.093  22.999  0.00  0.00    +0.164 A 
ATOM     10  O   UNL     1       0.089   0.023  23.191  0.00  0.00    -0.438 OA
ATOM     11  C   UNL     1      -0.071   0.544  23.811  0.00  0.00    +0.207 A 
ATOM     12  N   UNL     1       0.629   0.936  24.001  0.00  0.00    -0.212 NA
ATOM     28  C   UNL     1       1.356  -0.283  22.433  0.00  0.00    +0.040 A 
ATOM     29  C   UNL     1       2.157  -0.095  22.367  0.00  0.00    +0.022 A 
BRANCH   6   3
ATOM      3  S   UNL     1       3.291   0.657  22.803  0.00  0.00    +0.009 S 
ATOM      4  O   UNL     1       3.108   1.459  22.859  0.00  0.00    -0.169 OA
ATOM      5  O   UNL     1       3.474  -0.145  22.747  0.00  0.00    -0.169 OA
BRANCH   3   2
ATOM      1  C   UNL     1       4.657   0.384  23.124  0.00  0.00    +0.028 C 
ATOM      2  C   UNL     1       4.092   0.844  22.738  0.00  0.00    +0.156 C 
ENDBRANCH   3   2
ENDBRANCH   6   3
ENDBRANCH  13  11
BRANCH  16  17
ATOM     17  C   UNL     1      -2.885   1.120  24.238  0.00  0.00    +0.101 C 
BRANCH  17  18
ATOM     18  C   UNL     1      -3.168   1.857  24.475  0.00  0.00    +0.014 A 
ATOM     19  C   UNL     1      -2.725   2.552  24.530  0.00  0.00    +0.096 A 
ATOM     20  N   UNL     1      -3.227   3.154  24.788  0.00  0.00    -0.244 NA
ATOM     21  C   UNL     1      -3.978   2.832  24.893  0.00  0.00    +0.081 A 
ATOM     22  C   UNL     1      -3.942   2.031  24.699  0.00  0.00    +0.016 A 
ATOM     23  C   UNL     1      -4.620   1.563  24.753  0.00  0.00    +0.001 A 
ATOM     24  C   UNL     1      -5.333   1.896  24.999  0.00  0.00    +0.000 A 
ATOM     25  C   UNL     1      -5.369   2.697  25.192  0.00  0.00    +0.002 A 
ATOM     26  C   UNL     1      -4.692   3.165  25.139  0.00  0.00    +0.019 A 
ENDBRANCH  17  18
ENDBRANCH  16  17
TORSDOF 5
ENDMDL
