MODEL 1
REMARK VINA RESULT:     -10.5      0.000      0.000
REMARK  Name = 
REMARK  7 active torsions:
REMARK  status: ('A' for Active; 'I' for Inactive)
REMARK    1  A    between atoms: C_2  and  N_4
REMARK    2  A    between atoms: N_7  and  C_8
REMARK    3  A    between atoms: C_8  and  C_9
REMARK    4  A    between atoms: C_13  and  C_14
REMARK    5  A    between atoms: C_14  and  C_15
REMARK    6  A    between atoms: N_17  and  C_18
REMARK    7  A    between atoms: C_24  and  C_25
REMARK                            x       y       z     vdW  Elec       q    Type
REMARK                         _______ _______ _______ _____ _____    ______ ____
ROOT
ATOM      9  C   UNL     1      -3.695   1.071  24.163  0.00  0.00    +0.043 C 
ATOM     10  C   UNL     1      -4.267   1.271  24.723  0.00  0.00    -0.033 C 
ATOM     11  C   UNL     1      -4.332   2.052  24.984  0.00  0.00    -0.048 C 
ATOM     12  C   UNL     1      -4.904   2.251  25.545  0.00  0.00    +0.026 C 
ATOM     13  C   UNL     1      -3.826   2.631  24.686  0.00  0.00    +0.027 C 
ATOM     23  C   UNL     1      -3.255   2.430  24.126  0.00  0.00    +0.005 C 
ATOM     24  C   UNL     1      -3.189   1.651  23.864  0.00  0.00    +0.006 C 
ENDROOT
BRANCH  24  25
ATOM     25  C   UNL     1      -2.618   1.450  23.304  0.00  0.00    +0.000 C 
ATOM     26  C   UNL     1      -1.879   1.177  23.547  0.00  0.00    +0.000 C 
ATOM     27  C   UNL     1      -2.786   1.522  22.498  0.00  0.00    +0.000 C 
ENDBRANCH  24  25
BRANCH   9   8
ATOM      8  C   UNL     1      -3.630   0.291  23.901  0.00  0.00    +0.121 C 
BRANCH   8   7
ATOM      4  N   UNL     1      -4.057  -1.727  24.614  0.00  0.00    -0.189 NA
ATOM      5  C   UNL     1      -3.785  -1.109  24.139  0.00  0.00    +0.339 C 
ATOM      6  O   UNL     1      -3.399  -1.273  23.430  0.00  0.00    -0.249 OA
ATOM      7  N   UNL     1      -3.901  -0.326  24.375  0.00  0.00    -0.187 NA
BRANCH   4   2
ATOM      1  C   UNL     1      -4.412  -2.835  23.784  0.00  0.00    +0.023 C 
ATOM      2  C   UNL     1      -3.941  -2.510  24.378  0.00  0.00    +0.097 C 
ATOM      3  C   UNL     1      -3.355  -2.965  24.735  0.00  0.00    +0.023 C 
ENDBRANCH   4   2
ENDBRANCH   8   7
ENDBRANCH   9   8
BRANCH  13  14
ATOM     14  C   UNL     1      -3.892   3.410  24.947  0.00  0.00    +0.091 C 
BRANCH  14  15
ATOM     15  C   UNL     1      -3.275   3.943  24.816  0.00  0.00    +0.242 C 
ATOM     16  O   UNL     1      -3.238   4.365  24.109  0.00  0.00    -0.273 OA
ATOM     17  N   UNL     1      -2.695   4.052  25.393  0.00  0.00    -0.207 NA
BRANCH  17  18
ATOM     18  C   UNL     1      -2.078   4.584  25.262  0.00  0.00    +0.095 C 
ATOM     19  C   UNL     1      -1.283   4.390  25.161  0.00  0.00    +0.022 C 
ATOM     20  C   UNL     1      -0.863   5.090  25.045  0.00  0.00    +0.002 C 
ATOM     21  C   UNL     1      -1.398   5.717  25.076  0.00  0.00    +0.002 C 
ATOM     22  C   UNL     1      -2.149   5.405  25.209  0.00  0.00    +0.022 C 
ENDBRANCH  17  18
ENDBRANCH  14  15
ENDBRANCH  13  14
TORSDOF 7
ENDMDL
MODEL 2
REMARK VINA RESULT:     -10.5      1.127      5.497
REMARK  Name = 
REMARK  7 active torsions:
REMARK  status: ('A' for Active; 'I' for Inactive)
REMARK    1  A    between atoms: C_2  and  N_4
REMARK    2  A    between atoms: N_7  and  C_8
REMARK    3  A    between atoms: C_8  and  C_9
REMARK    4  A    between atoms: C_13  and  C_14
REMARK    5  A    between atoms: C_14  and  C_15
REMARK    6  A    between atoms: N_17  and  C_18
REMARK    7  A    between atoms: C_24  and  C_25
REMARK                            x       y       z     vdW  Elec       q    Type
REMARK                         _______ _______ _______ _____ _____    ______ ____
ROOT
ATOM      9  C   UNL     1      -2.532   1.795  24.913  0.00  0.00    +0.043 C 
ATOM     10  C   UNL     1      -3.325   2.014  24.857  0.00  0.00    -0.033 C 
ATOM     11  C   UNL     1      -3.908   1.434  24.778  0.00  0.00    -0.048 C 
ATOM     12  C   UNL     1      -4.701   1.653  24.722  0.00  0.00    +0.026 C 
ATOM     13  C   UNL     1      -3.697   0.637  24.755  0.00  0.00    +0.027 C 
ATOM     23  C   UNL     1      -2.903   0.419  24.812  0.00  0.00    +0.005 C 
ATOM     24  C   UNL     1      -2.321   0.997  24.891  0.00  0.00    +0.006 C 
ENDROOT
BRANCH  24  25
ATOM     25  C   UNL     1      -1.527   0.780  24.947  0.00  0.00    +0.000 C 
ATOM     26  C   UNL     1      -1.198   0.605  25.683  0.00  0.00    +0.000 C 
ATOM     27  C   UNL     1      -1.061   0.737  24.266  0.00  0.00    +0.000 C 
ENDBRANCH  24  25
BRANCH   9   8
ATOM      8  C   UNL     1      -1.949   2.374  24.992  0.00  0.00    +0.121 C 
BRANCH   8   7
ATOM      4  N   UNL     1      -1.760   4.510  24.585  0.00  0.00    -0.189 NA
ATOM      5  C   UNL     1      -1.658   3.772  24.940  0.00  0.00    +0.339 C 
ATOM      6  O   UNL     1      -1.164   3.694  25.595  0.00  0.00    -0.249 OA
ATOM      7  N   UNL     1      -2.051   3.112  24.638  0.00  0.00    -0.187 NA
BRANCH   4   2
ATOM      1  C   UNL     1      -1.784   5.737  25.317  0.00  0.00    +0.023 C 
ATOM      2  C   UNL     1      -1.367   5.170  24.887  0.00  0.00    +0.097 C 
ATOM      3  C   UNL     1      -0.558   5.263  24.759  0.00  0.00    +0.023 C 
ENDBRANCH   4   2
ENDBRANCH   8   7
ENDBRANCH   9   8
BRANCH  13  14
ATOM     14  C   UNL     1      -4.279   0.059  24.677  0.00  0.00    +0.091 C 
BRANCH  14  15
ATOM     15  C   UNL     1      -4.083  -0.687  24.379  0.00  0.00    +0.242 C 
ATOM     16  O   UNL     1      -3.866  -0.770  23.588  0.00  0.00    -0.273 OA
ATOM     17  N   UNL     1      -4.105  -1.347  24.874  0.00  0.00    -0.207 NA
BRANCH  17  18
ATOM     18  C   UNL     1      -3.910  -2.091  24.577  0.00  0.00    +0.095 C 
ATOM     19  C   UNL     1      -4.276  -2.472  23.944  0.00  0.00    +0.022 C 
ATOM     20  C   UNL     1      -3.906  -3.201  23.837  0.00  0.00    +0.002 C 
ATOM     21  C   UNL     1      -3.310  -3.271  24.403  0.00  0.00    +0.002 C 
ATOM     22  C   UNL     1      -3.312  -2.585  24.861  0.00  0.00    +0.022 C 
ENDBRANCH  17  18
ENDBRANCH  14  15
ENDBRANCH  13  14
TORSDOF 7
ENDMDL
MODEL 3
REMARK VINA RESULT:      -9.3      2.567      4.007
REMARK  Name = 
REMARK  7 active torsions:
REMARK  status: ('A' for Active; 'I' for Inactive)
REMARK    1  A    between atoms: C_2  and  N_4
REMARK    2  A    between atoms: N_7  and  C_8
REMARK    3  A    between atoms: C_8  and  C_9
REMARK    4  A    between atoms: C_13  and  C_14
REMARK    5  A    between atoms: C_14  and  C_15
REMARK    6  A    between atoms: N_17  and  C_18
REMARK    7  A    between atoms: C_24  and  C_25
REMARK                            x       y       z     vdW  Elec       q    Type
REMARK                         _______ _______ _______ _____ _____    ______ ____
ROOT
ATOM      9  C   UNL     1      -0.763   1.411  24.451  0.00  0.00    +0.043 C 
ATOM     10  C   UNL     1      -0.547   2.202  24.358  0.00  0.00    -0.033 C 
ATOM     11  C   UNL     1      -1.029   2.799  24.663  0.00  0.00    -0.048 C 
ATOM     12  C   UNL     1      -0.812   3.590  24.570  0.00  0.00    +0.026 C 
ATOM     13  C   UNL     1      -1.725   2.605  25.060  0.00  0.00    +0.027 C 
ATOM     23  C   UNL     1      -1.940   1.814  25.152  0.00  0.00    +0.005 C 
ATOM     24  C   UNL     1      -1.460   1.217  24.848  0.00  0.00    +0.006 C 
ENDROOT
BRANCH  24  25
ATOM     25  C   UNL     1      -1.675   0.426  24.940  0.00  0.00    +0.000 C 
ATOM     26  C   UNL     1      -2.163   0.063  24.383  0.00  0.00    +0.000 C 
ATOM     27  C   UNL     1      -1.402  -0.003  25.591  0.00  0.00    +0.000 C 
ENDBRANCH  24  25
BRANCH   9   8
ATOM      8  C   UNL     1      -0.282   0.814  24.145  0.00  0.00    +0.121 C 
BRANCH   8   7
ATOM      4  N   UNL     1       1.523   0.614  22.934  0.00  0.00    -0.189 NA
ATOM      5  C   UNL     1       0.837   0.419  23.349  0.00  0.00    +0.339 C 
ATOM      6  O   UNL     1       0.584  -0.365  23.383  0.00  0.00    -0.249 OA
ATOM      7  N   UNL     1       0.404   1.009  23.731  0.00  0.00    -0.187 NA
BRANCH   4   2
ATOM      1  C   UNL     1       2.701  -0.188  22.835  0.00  0.00    +0.023 C 
ATOM      2  C   UNL     1       1.956   0.023  22.553  0.00  0.00    +0.097 C 
ATOM      3  C   UNL     1       1.643  -0.354  21.891  0.00  0.00    +0.023 C 
ENDBRANCH   4   2
ENDBRANCH   8   7
ENDBRANCH   9   8
BRANCH  13  14
ATOM     14  C   UNL     1      -2.206   3.202  25.365  0.00  0.00    +0.091 C 
BRANCH  14  15
ATOM     15  C   UNL     1      -3.015   3.205  25.199  0.00  0.00    +0.242 C 
ATOM     16  O   UNL     1      -3.275   3.247  24.418  0.00  0.00    -0.273 OA
ATOM     17  N   UNL     1      -3.562   3.167  25.816  0.00  0.00    -0.207 NA
BRANCH  17  18
ATOM     18  C   UNL     1      -4.370   3.170  25.650  0.00  0.00    +0.095 C 
ATOM     19  C   UNL     1      -4.847   2.505  25.547  0.00  0.00    +0.022 C 
ATOM     20  C   UNL     1      -5.614   2.764  25.392  0.00  0.00    +0.002 C 
ATOM     21  C   UNL     1      -5.612   3.589  25.399  0.00  0.00    +0.002 C 
ATOM     22  C   UNL     1      -4.843   3.840  25.559  0.00  0.00    +0.022 C 
ENDBRANCH  17  18
ENDBRANCH  14  15
ENDBRANCH  13  14
TORSDOF 7
ENDMDL
MODEL 4
REMARK VINA RESULT:      -9.2      2.463      4.128
REMARK  Name = 
REMARK  7 active torsions:
REMARK  status: ('A' for Active; 'I' for Inactive)
REMARK    1  A    between atoms: C_2  and  N_4
REMARK    2  A    between atoms: N_7  and  C_8
REMARK    3  A    between atoms: C_8  and  C_9
REMARK    4  A    between atoms: C_13  and  C_14
REMARK    5  A    between atoms: C_14  and  C_15
REMARK    6  A    between atoms: N_17  and  C_18
REMARK    7  A    between atoms: C_24  and  C_25
REMARK                            x       y       z     vdW  Elec       q    Type
REMARK                         _______ _______ _______ _____ _____    ______ ____
ROOT
ATOM      9  C   UNL     1      -1.398   0.662  23.882  0.00  0.00    +0.043 C 
ATOM     10  C   UNL     1      -1.527   1.239  23.307  0.00  0.00    -0.033 C 
ATOM     11  C   UNL     1      -2.274   1.581  23.226  0.00  0.00    -0.048 C 
ATOM     12  C   UNL     1      -2.402   2.159  22.651  0.00  0.00    +0.026 C 
ATOM     13  C   UNL     1      -2.891   1.346  23.721  0.00  0.00    +0.027 C 
ATOM     23  C   UNL     1      -2.761   0.769  24.296  0.00  0.00    +0.005 C 
ATOM     24  C   UNL     1      -2.016   0.427  24.377  0.00  0.00    +0.006 C 
ENDROOT
BRANCH  24  25
ATOM     25  C   UNL     1      -1.886  -0.151  24.952  0.00  0.00    +0.000 C 
ATOM     26  C   UNL     1      -1.527   0.051  25.666  0.00  0.00    +0.000 C 
ATOM     27  C   UNL     1      -2.116  -0.932  24.811  0.00  0.00    +0.000 C 
ENDBRANCH  24  25
BRANCH   9   8
ATOM      8  C   UNL     1      -0.651   0.319  23.963  0.00  0.00    +0.121 C 
BRANCH   8   7
ATOM      4  N   UNL     1       1.274   0.558  22.964  0.00  0.00    -0.189 NA
ATOM      5  C   UNL     1       0.619   0.204  23.318  0.00  0.00    +0.339 C 
ATOM      6  O   UNL     1       0.577  -0.616  23.383  0.00  0.00    -0.249 OA
ATOM      7  N   UNL     1       0.004   0.673  23.608  0.00  0.00    -0.187 NA
BRANCH   4   2
ATOM      1  C   UNL     1       2.603   0.047  23.084  0.00  0.00    +0.023 C 
ATOM      2  C   UNL     1       1.889   0.089  22.674  0.00  0.00    +0.097 C 
ATOM      3  C   UNL     1       1.789  -0.337  21.975  0.00  0.00    +0.023 C 
ENDBRANCH   4   2
ENDBRANCH   8   7
ENDBRANCH   9   8
BRANCH  13  14
ATOM     14  C   UNL     1      -3.637   1.689  23.640  0.00  0.00    +0.091 C 
BRANCH  14  15
ATOM     15  C   UNL     1      -4.026   1.990  24.303  0.00  0.00    +0.242 C 
ATOM     16  O   UNL     1      -3.610   2.431  24.862  0.00  0.00    -0.273 OA
ATOM     17  N   UNL     1      -4.833   1.849  24.406  0.00  0.00    -0.207 NA
BRANCH  17  18
ATOM     18  C   UNL     1      -5.222   2.150  25.069  0.00  0.00    +0.095 C 
ATOM     19  C   UNL     1      -5.306   2.947  25.261  0.00  0.00    +0.022 C 
ATOM     20  C   UNL     1      -5.732   2.996  25.966  0.00  0.00    +0.002 C 
ATOM     21  C   UNL     1      -5.911   2.228  26.209  0.00  0.00    +0.002 C 
ATOM     22  C   UNL     1      -5.597   1.705  25.655  0.00  0.00    +0.022 C 
ENDBRANCH  17  18
ENDBRANCH  14  15
ENDBRANCH  13  14
TORSDOF 7
ENDMDL
