MODEL 1
REMARK VINA RESULT:     -10.0      0.000      0.000
REMARK  Name = 
REMARK  4 active torsions:
REMARK  status: ('A' for Active; 'I' for Inactive)
REMARK    1  A    between atoms: C_2  and  C_4
REMARK    2  A    between atoms: C_4  and  N_5
REMARK    3  A    between atoms: N_12  and  C_13
REMARK    4  A    between atoms: C_13  and  C_14
REMARK                            x       y       z     vdW  Elec       q    Type
REMARK                         _______ _______ _______ _____ _____    ______ ____
ROOT
ATOM      5  N   UNL     1      -3.476  -0.485  25.014  0.00  0.00    -0.269 NA
ATOM      6  C   UNL     1      -2.682  -0.285  25.114  0.00  0.00    +0.104 C 
ATOM      7  C   UNL     1      -2.594   0.513  24.923  0.00  0.00    +0.151 C 
ATOM      8  O   UNL     1      -1.937   1.011  24.919  0.00  0.00    -0.344 OA
ATOM      9  C   UNL     1      -2.019   1.801  24.698  0.00  0.00    +0.227 C 
ATOM     10  C   UNL     1      -2.759   2.094  24.481  0.00  0.00    +0.256 C 
ATOM     11  O   UNL     1      -2.841   2.885  24.259  0.00  0.00    -0.272 OA
ATOM     12  N   UNL     1      -3.417   1.596  24.484  0.00  0.00    -0.271 N 
ATOM     20  C   UNL     1      -3.334   0.805  24.706  0.00  0.00    +0.120 C 
ATOM     21  C   UNL     1      -3.879   0.189  24.762  0.00  0.00    +0.095 C 
ENDROOT
BRANCH   5   4
ATOM      4  C   UNL     1      -3.809  -1.229  25.144  0.00  0.00    +0.072 C 
BRANCH   4   2
ATOM      1  C   UNL     1      -4.220  -1.842  23.920  0.00  0.00    +0.001 C 
ATOM      2  C   UNL     1      -3.723  -1.824  24.578  0.00  0.00    +0.016 C 
ATOM      3  C   UNL     1      -3.140  -2.400  24.672  0.00  0.00    +0.001 C 
ENDBRANCH   4   2
ENDBRANCH   5   4
BRANCH  12  13
ATOM     13  C   UNL     1      -4.157   1.889  24.266  0.00  0.00    +0.120 C 
BRANCH  13  14
ATOM     14  C   UNL     1      -4.633   2.263  24.827  0.00  0.00    +0.001 A 
ATOM     15  C   UNL     1      -5.334   1.907  25.075  0.00  0.00    +0.018 A 
ATOM     16  C   UNL     1      -5.811   2.280  25.636  0.00  0.00    +0.099 A 
ATOM     17  N   UNL     1      -5.586   3.010  25.947  0.00  0.00    -0.242 NA
ATOM     18  C   UNL     1      -4.885   3.367  25.699  0.00  0.00    +0.099 A 
ATOM     19  C   UNL     1      -4.409   2.993  25.138  0.00  0.00    +0.018 A 
ENDBRANCH  13  14
ENDBRANCH  12  13
TORSDOF 4
ENDMDL
MODEL 2
REMARK VINA RESULT:      -9.8      0.870      3.739
REMARK  Name = 
REMARK  4 active torsions:
REMARK  status: ('A' for Active; 'I' for Inactive)
REMARK    1  A    between atoms: C_2  and  C_4
REMARK    2  A    between atoms: C_4  and  N_5
REMARK    3  A    between atoms: N_12  and  C_13
REMARK    4  A    between atoms: C_13  and  C_14
REMARK                            x       y       z     vdW  Elec       q    Type
REMARK                         _______ _______ _______ _____ _____    ______ ____
ROOT
ATOM      5  N   UNL     1      -4.118   1.665  24.599  0.00  0.00    -0.269 NA
ATOM      6  C   UNL     1      -3.326   1.875  24.494  0.00  0.00    +0.104 C 
ATOM      7  C   UNL     1      -2.862   1.231  24.719  0.00  0.00    +0.151 C 
ATOM      8  O   UNL     1      -2.044   1.119  24.734  0.00  0.00    -0.344 OA
ATOM      9  C   UNL     1      -1.731   0.401  24.991  0.00  0.00    +0.227 C 
ATOM     10  C   UNL     1      -2.235  -0.205  25.234  0.00  0.00    +0.256 C 
ATOM     11  O   UNL     1      -1.921  -0.924  25.492  0.00  0.00    -0.272 OA
ATOM     12  N   UNL     1      -3.052  -0.094  25.219  0.00  0.00    -0.271 N 
ATOM     20  C   UNL     1      -3.365   0.625  24.962  0.00  0.00    +0.120 C 
ATOM     21  C   UNL     1      -4.142   0.893  24.887  0.00  0.00    +0.095 C 
ENDROOT
BRANCH   5   4
ATOM      4  C   UNL     1      -4.771   2.145  24.441  0.00  0.00    +0.072 C 
BRANCH   4   2
ATOM      1  C   UNL     1      -4.965   3.145  25.444  0.00  0.00    +0.001 C 
ATOM      2  C   UNL     1      -5.214   2.456  25.064  0.00  0.00    +0.016 C 
ATOM      3  C   UNL     1      -5.906   2.078  25.307  0.00  0.00    +0.001 C 
ENDBRANCH   4   2
ENDBRANCH   5   4
BRANCH  12  13
ATOM     13  C   UNL     1      -3.556  -0.701  25.462  0.00  0.00    +0.120 C 
BRANCH  13  14
ATOM     14  C   UNL     1      -3.683  -1.352  24.971  0.00  0.00    +0.001 A 
ATOM     15  C   UNL     1      -3.348  -2.081  25.160  0.00  0.00    +0.018 A 
ATOM     16  C   UNL     1      -3.474  -2.733  24.671  0.00  0.00    +0.099 A 
ATOM     17  N   UNL     1      -3.937  -2.655  23.991  0.00  0.00    -0.242 NA
ATOM     18  C   UNL     1      -4.272  -1.925  23.802  0.00  0.00    +0.099 A 
ATOM     19  C   UNL     1      -4.145  -1.274  24.293  0.00  0.00    +0.018 A 
ENDBRANCH  13  14
ENDBRANCH  12  13
TORSDOF 4
ENDMDL
MODEL 3
REMARK VINA RESULT:      -9.6      1.678      4.024
REMARK  Name = 
REMARK  4 active torsions:
REMARK  status: ('A' for Active; 'I' for Inactive)
REMARK    1  A    between atoms: C_2  and  C_4
REMARK    2  A    between atoms: C_4  and  N_5
REMARK    3  A    between atoms: N_12  and  C_13
REMARK    4  A    between atoms: C_13  and  C_14
REMARK                            x       y       z     vdW  Elec       q    Type
REMARK                         _______ _______ _______ _____ _____    ______ ____
ROOT
ATOM      5  N   UNL     1      -2.504   3.618  25.590  0.00  0.00    -0.269 NA
ATOM      6  C   UNL     1      -3.170   3.973  25.925  0.00  0.00    +0.104 C 
ATOM      7  C   UNL     1      -3.837   3.579  25.643  0.00  0.00    +0.151 C 
ATOM      8  O   UNL     1      -4.643   3.687  25.784  0.00  0.00    -0.344 OA
ATOM      9  C   UNL     1      -5.196   3.198  25.416  0.00  0.00    +0.227 C 
ATOM     10  C   UNL     1      -4.943   2.600  24.908  0.00  0.00    +0.256 C 
ATOM     11  O   UNL     1      -5.496   2.109  24.539  0.00  0.00    -0.272 OA
ATOM     12  N   UNL     1      -4.138   2.491  24.766  0.00  0.00    -0.271 N 
ATOM     20  C   UNL     1      -3.585   2.981  25.134  0.00  0.00    +0.120 C 
ATOM     21  C   UNL     1      -2.761   3.005  25.102  0.00  0.00    +0.095 C 
ENDROOT
BRANCH   5   4
ATOM      4  C   UNL     1      -1.720   3.838  25.721  0.00  0.00    +0.072 C 
BRANCH   4   2
ATOM      1  C   UNL     1      -1.458   5.114  25.133  0.00  0.00    +0.001 C 
ATOM      2  C   UNL     1      -1.323   4.301  25.165  0.00  0.00    +0.016 C 
ATOM      3  C   UNL     1      -0.791   3.950  24.641  0.00  0.00    +0.001 C 
ENDBRANCH   4   2
ENDBRANCH   5   4
BRANCH  12  13
ATOM     13  C   UNL     1      -3.885   1.892  24.257  0.00  0.00    +0.120 C 
BRANCH  13  14
ATOM     14  C   UNL     1      -3.762   1.130  24.547  0.00  0.00    +0.001 A 
ATOM     15  C   UNL     1      -3.010   0.792  24.514  0.00  0.00    +0.018 A 
ATOM     16  C   UNL     1      -2.886   0.030  24.804  0.00  0.00    +0.099 A 
ATOM     17  N   UNL     1      -3.516  -0.396  25.126  0.00  0.00    -0.242 NA
ATOM     18  C   UNL     1      -4.269  -0.059  25.159  0.00  0.00    +0.099 A 
ATOM     19  C   UNL     1      -4.391   0.704  24.869  0.00  0.00    +0.018 A 
ENDBRANCH  13  14
ENDBRANCH  12  13
TORSDOF 4
ENDMDL
MODEL 4
REMARK VINA RESULT:      -9.5      1.526      2.485
REMARK  Name = 
REMARK  4 active torsions:
REMARK  status: ('A' for Active; 'I' for Inactive)
REMARK    1  A    between atoms: C_2  and  C_4
REMARK    2  A    between atoms: C_4  and  N_5
REMARK    3  A    between atoms: N_12  and  C_13
REMARK    4  A    between atoms: C_13  and  C_14
REMARK                            x       y       z     vdW  Elec       q    Type
REMARK                         _______ _______ _______ _____ _____    ______ ____
ROOT
ATOM      5  N   UNL     1      -4.166   0.624  24.520  0.00  0.00    -0.269 NA
ATOM      6  C   UNL     1      -4.832   0.625  25.006  0.00  0.00    +0.104 C 
ATOM      7  C   UNL     1      -5.013   1.408  25.189  0.00  0.00    +0.151 C 
ATOM      8  O   UNL     1      -5.611   1.745  25.647  0.00  0.00    -0.344 OA
ATOM      9  C   UNL     1      -5.654   2.564  25.732  0.00  0.00    +0.227 C 
ATOM     10  C   UNL     1      -5.100   3.047  25.359  0.00  0.00    +0.256 C 
ATOM     11  O   UNL     1      -5.143   3.867  25.443  0.00  0.00    -0.272 OA
ATOM     12  N   UNL     1      -4.501   2.712  24.900  0.00  0.00    -0.271 N 
ATOM     20  C   UNL     1      -4.458   1.891  24.816  0.00  0.00    +0.120 C 
ATOM     21  C   UNL     1      -3.935   1.407  24.402  0.00  0.00    +0.095 C 
ENDROOT
BRANCH   5   4
ATOM      4  C   UNL     1      -3.795  -0.044  24.206  0.00  0.00    +0.072 C 
BRANCH   4   2
ATOM      1  C   UNL     1      -3.793  -1.244  24.983  0.00  0.00    +0.001 C 
ATOM      2  C   UNL     1      -3.404  -0.572  24.706  0.00  0.00    +0.016 C 
ATOM      3  C   UNL     1      -2.623  -0.426  24.928  0.00  0.00    +0.001 C 
ENDBRANCH   4   2
ENDBRANCH   5   4
BRANCH  12  13
ATOM     13  C   UNL     1      -3.947   3.195  24.527  0.00  0.00    +0.120 C 
BRANCH  13  14
ATOM     14  C   UNL     1      -3.265   3.427  24.930  0.00  0.00    +0.001 A 
ATOM     15  C   UNL     1      -2.522   3.250  24.619  0.00  0.00    +0.018 A 
ATOM     16  C   UNL     1      -1.840   3.482  25.021  0.00  0.00    +0.099 A 
ATOM     17  N   UNL     1      -1.902   3.891  25.735  0.00  0.00    -0.242 NA
ATOM     18  C   UNL     1      -2.645   4.068  26.047  0.00  0.00    +0.099 A 
ATOM     19  C   UNL     1      -3.326   3.836  25.644  0.00  0.00    +0.018 A 
ENDBRANCH  13  14
ENDBRANCH  12  13
TORSDOF 4
ENDMDL
MODEL 5
REMARK VINA RESULT:      -9.3      1.565      3.430
REMARK  Name = 
REMARK  4 active torsions:
REMARK  status: ('A' for Active; 'I' for Inactive)
REMARK    1  A    between atoms: C_2  and  C_4
REMARK    2  A    between atoms: C_4  and  N_5
REMARK    3  A    between atoms: N_12  and  C_13
REMARK    4  A    between atoms: C_13  and  C_14
REMARK                            x       y       z     vdW  Elec       q    Type
REMARK                         _______ _______ _______ _____ _____    ______ ____
ROOT
ATOM      5  N   UNL     1      -1.774   3.178  25.354  0.00  0.00    -0.269 NA
ATOM      6  C   UNL     1      -1.412   2.436  25.325  0.00  0.00    +0.104 C 
ATOM      7  C   UNL     1      -1.932   1.914  24.956  0.00  0.00    +0.151 C 
ATOM      8  O   UNL     1      -1.873   1.111  24.775  0.00  0.00    -0.344 OA
ATOM      9  C   UNL     1      -2.495   0.726  24.395  0.00  0.00    +0.227 C 
ATOM     10  C   UNL     1      -3.178   1.144  24.196  0.00  0.00    +0.256 C 
ATOM     11  O   UNL     1      -3.802   0.759  23.816  0.00  0.00    -0.272 OA
ATOM     12  N   UNL     1      -3.239   1.946  24.377  0.00  0.00    -0.271 N 
ATOM     20  C   UNL     1      -2.615   2.331  24.757  0.00  0.00    +0.120 C 
ATOM     21  C   UNL     1      -2.518   3.112  25.003  0.00  0.00    +0.095 C 
ENDROOT
BRANCH   5   4
ATOM      4  C   UNL     1      -1.449   3.863  25.678  0.00  0.00    +0.072 C 
BRANCH   4   2
ATOM      1  C   UNL     1      -1.651   5.168  25.130  0.00  0.00    +0.001 C 
ATOM      2  C   UNL     1      -1.204   4.477  25.184  0.00  0.00    +0.016 C 
ATOM      3  C   UNL     1      -0.510   4.399  24.743  0.00  0.00    +0.001 C 
ENDBRANCH   4   2
ENDBRANCH   5   4
BRANCH  12  13
ATOM     13  C   UNL     1      -3.922   2.364  24.178  0.00  0.00    +0.120 C 
BRANCH  13  14
ATOM     14  C   UNL     1      -4.564   2.375  24.697  0.00  0.00    +0.001 A 
ATOM     15  C   UNL     1      -4.780   3.079  25.069  0.00  0.00    +0.018 A 
ATOM     16  C   UNL     1      -5.421   3.092  25.588  0.00  0.00    +0.099 A 
ATOM     17  N   UNL     1      -5.846   2.400  25.734  0.00  0.00    -0.242 NA
ATOM     18  C   UNL     1      -5.630   1.696  25.362  0.00  0.00    +0.099 A 
ATOM     19  C   UNL     1      -4.989   1.684  24.843  0.00  0.00    +0.018 A 
ENDBRANCH  13  14
ENDBRANCH  12  13
TORSDOF 4
ENDMDL
