MODEL 1
REMARK VINA RESULT:     -12.4      0.000      0.000
REMARK  Name = 
REMARK  7 active torsions:
REMARK  status: ('A' for Active; 'I' for Inactive)
REMARK    1  A    between atoms: O_2  and  C_3
REMARK    2  A    between atoms: C_6  and  C_9
REMARK    3  A    between atoms: C_18  and  C_20
REMARK    4  A    between atoms: C_28  and  C_29
REMARK    5  A    between atoms: C_29  and  C_30
REMARK    6  A    between atoms: N_32  and  C_33
REMARK    7  A    between atoms: C_33  and  C_34
REMARK                            x       y       z     vdW  Elec       q    Type
REMARK                         _______ _______ _______ _____ _____    ______ ____
ROOT
ATOM      9  C   UNL     1      -0.377   1.255  23.877  0.00  0.00    +0.271 C 
ATOM     10  O   UNL     1      -0.362   2.017  24.192  0.00  0.00    -0.268 OA
ATOM     11  N   UNL     1      -1.090   0.844  23.827  0.00  0.00    -0.151 NA
ATOM     12  C   UNL     1      -1.788   1.194  24.093  0.00  0.00    +0.185 A 
ATOM     13  N   UNL     1      -2.538   0.851  24.078  0.00  0.00    -0.227 NA
ATOM     14  C   UNL     1      -3.072   1.394  24.396  0.00  0.00    +0.063 A 
ATOM     15  C   UNL     1      -2.652   2.072  24.607  0.00  0.00    +0.023 A 
ATOM     16  C   UNL     1      -3.047   2.714  24.942  0.00  0.00    +0.034 C 
ATOM     17  C   UNL     1      -3.861   2.679  25.067  0.00  0.00    +0.010 C 
ATOM     18  C   UNL     1      -4.255   3.321  25.402  0.00  0.00    +0.059 C 
ATOM     19  C   UNL     1      -3.484   3.615  25.393  0.00  0.00    +0.005 C 
ATOM     22  C   UNL     1      -5.070   3.286  25.527  0.00  0.00    +0.154 C 
ATOM     23  O   UNL     1      -5.465   3.929  25.862  0.00  0.00    -0.223 OA
ATOM     24  C   UNL     1      -5.490   2.608  25.316  0.00  0.00    +0.033 C 
ATOM     25  C   UNL     1      -5.096   1.965  24.981  0.00  0.00    +0.003 C 
ATOM     26  C   UNL     1      -4.281   2.001  24.856  0.00  0.00    +0.006 C 
ATOM     27  C   UNL     1      -4.702   1.323  24.646  0.00  0.00    +0.000 C 
ATOM     28  C   UNL     1      -3.888   1.359  24.521  0.00  0.00    +0.050 C 
ATOM     39  S   UNL     1      -1.858   1.948  24.419  0.00  0.00    -0.054 S 
ENDROOT
BRANCH   9   6
ATOM      3  C   UNL     1       1.717   0.203  23.080  0.00  0.00    +0.139 A 
ATOM      4  C   UNL     1       1.738   0.948  23.434  0.00  0.00    +0.037 A 
ATOM      5  C   UNL     1       1.040   1.298  23.700  0.00  0.00    +0.008 A 
ATOM      6  C   UNL     1       0.321   0.904  23.611  0.00  0.00    +0.056 A 
ATOM      7  C   UNL     1       0.300   0.160  23.257  0.00  0.00    +0.008 A 
ATOM      8  C   UNL     1       0.998  -0.190  22.991  0.00  0.00    +0.037 A 
BRANCH   3   2
ATOM      1  C   UNL     1       2.949   0.289  22.363  0.00  0.00    +0.252 C 
ATOM      2  O   UNL     1       2.415  -0.147  22.814  0.00  0.00    -0.471 OA
ENDBRANCH   3   2
ENDBRANCH   9   6
BRANCH  18  20
ATOM     20  C   UNL     1      -4.382   4.066  25.734  0.00  0.00    +0.184 C 
ATOM     21  O   UNL     1      -3.750   4.488  26.054  0.00  0.00    -0.220 OA
ENDBRANCH  18  20
BRANCH  28  29
ATOM     29  C   UNL     1      -4.308   0.682  24.311  0.00  0.00    +0.093 C 
BRANCH  29  30
ATOM     30  C   UNL     1      -4.271   0.009  24.786  0.00  0.00    +0.242 C 
ATOM     31  O   UNL     1      -4.382   0.074  25.601  0.00  0.00    -0.273 OA
ATOM     32  N   UNL     1      -4.125  -0.729  24.447  0.00  0.00    -0.197 NA
BRANCH  32  33
ATOM     33  C   UNL     1      -4.088  -1.401  24.923  0.00  0.00    +0.179 C 
BRANCH  33  34
ATOM     34  C   UNL     1      -3.836  -2.119  24.604  0.00  0.00    +0.145 A 
ATOM     35  C   UNL     1      -3.195  -2.568  24.866  0.00  0.00    +0.038 A 
ATOM     36  C   UNL     1      -3.144  -3.241  24.391  0.00  0.00    +0.043 A 
ATOM     37  C   UNL     1      -3.753  -3.208  23.835  0.00  0.00    +0.179 A 
ATOM     38  O   UNL     1      -4.181  -2.515  23.967  0.00  0.00    -0.453 OA
ENDBRANCH  33  34
ENDBRANCH  32  33
ENDBRANCH  29  30
ENDBRANCH  28  29
TORSDOF 7
ENDMDL
MODEL 2
REMARK VINA RESULT:     -11.6      1.350      4.663
REMARK  Name = 
REMARK  7 active torsions:
REMARK  status: ('A' for Active; 'I' for Inactive)
REMARK    1  A    between atoms: O_2  and  C_3
REMARK    2  A    between atoms: C_6  and  C_9
REMARK    3  A    between atoms: C_18  and  C_20
REMARK    4  A    between atoms: C_28  and  C_29
REMARK    5  A    between atoms: C_29  and  C_30
REMARK    6  A    between atoms: N_32  and  C_33
REMARK    7  A    between atoms: C_33  and  C_34
REMARK                            x       y       z     vdW  Elec       q    Type
REMARK                         _______ _______ _______ _____ _____    ______ ____
ROOT
ATOM      9  C   UNL     1      -3.250  -0.159  24.668  0.00  0.00    +0.271 C 
ATOM     10  O   UNL     1      -3.723   0.345  25.118  0.00  0.00    -0.268 OA
ATOM     11  N   UNL     1      -2.550   0.122  24.334  0.00  0.00    -0.151 NA
ATOM     12  C   UNL     1      -2.323   0.906  24.450  0.00  0.00    +0.185 A 
ATOM     13  N   UNL     1      -1.641   1.262  24.152  0.00  0.00    -0.227 NA
ATOM     14  C   UNL     1      -1.634   2.049  24.402  0.00  0.00    +0.063 A 
ATOM     15  C   UNL     1      -2.312   2.178  24.855  0.00  0.00    +0.023 A 
ATOM     16  C   UNL     1      -2.453   2.922  25.182  0.00  0.00    +0.034 C 
ATOM     17  C   UNL     1      -1.919   3.537  25.056  0.00  0.00    +0.010 C 
ATOM     18  C   UNL     1      -2.060   4.280  25.383  0.00  0.00    +0.059 C 
ATOM     19  C   UNL     1      -2.725   3.875  25.655  0.00  0.00    +0.005 C 
ATOM     22  C   UNL     1      -1.525   4.896  25.257  0.00  0.00    +0.154 C 
ATOM     23  O   UNL     1      -1.667   5.640  25.584  0.00  0.00    -0.223 OA
ATOM     24  C   UNL     1      -0.848   4.767  24.805  0.00  0.00    +0.033 C 
ATOM     25  C   UNL     1      -0.705   4.022  24.477  0.00  0.00    +0.003 C 
ATOM     26  C   UNL     1      -1.241   3.408  24.603  0.00  0.00    +0.006 C 
ATOM     27  C   UNL     1      -0.564   3.279  24.151  0.00  0.00    +0.000 C 
ATOM     28  C   UNL     1      -1.098   2.664  24.276  0.00  0.00    +0.050 C 
ATOM     39  S   UNL     1      -2.737   1.471  24.884  0.00  0.00    -0.054 S 
ENDROOT
BRANCH   9   6
ATOM      3  C   UNL     1      -3.931  -2.513  24.320  0.00  0.00    +0.139 A 
ATOM      4  C   UNL     1      -4.242  -1.918  23.841  0.00  0.00    +0.037 A 
ATOM      5  C   UNL     1      -4.015  -1.133  23.957  0.00  0.00    +0.008 A 
ATOM      6  C   UNL     1      -3.477  -0.944  24.552  0.00  0.00    +0.056 A 
ATOM      7  C   UNL     1      -3.166  -1.538  25.031  0.00  0.00    +0.008 A 
ATOM      8  C   UNL     1      -3.393  -2.323  24.915  0.00  0.00    +0.037 A 
BRANCH   3   2
ATOM      1  C   UNL     1      -3.606  -3.853  23.947  0.00  0.00    +0.252 C 
ATOM      2  O   UNL     1      -4.158  -3.298  24.203  0.00  0.00    -0.471 OA
ENDBRANCH   3   2
ENDBRANCH   9   6
BRANCH  18  20
ATOM     20  C   UNL     1      -2.433   4.884  25.804  0.00  0.00    +0.184 C 
ATOM     21  O   UNL     1      -3.079   4.713  26.287  0.00  0.00    -0.220 OA
ENDBRANCH  18  20
BRANCH  28  29
ATOM     29  C   UNL     1      -0.422   2.535  23.824  0.00  0.00    +0.093 C 
BRANCH  29  30
ATOM     30  C   UNL     1       0.194   2.075  24.124  0.00  0.00    +0.242 C 
ATOM     31  O   UNL     1       0.348   2.072  24.934  0.00  0.00    -0.273 OA
ATOM     32  N   UNL     1       0.655   1.619  23.614  0.00  0.00    -0.197 NA
BRANCH  32  33
ATOM     33  C   UNL     1       1.270   1.160  23.915  0.00  0.00    +0.179 C 
BRANCH  33  34
ATOM     34  C   UNL     1       1.803   0.797  23.400  0.00  0.00    +0.145 A 
ATOM     35  C   UNL     1       1.655   0.126  22.943  0.00  0.00    +0.038 A 
ATOM     36  C   UNL     1       2.338  -0.045  22.512  0.00  0.00    +0.043 A 
ATOM     37  C   UNL     1       2.908   0.520  22.704  0.00  0.00    +0.179 A 
ATOM     38  O   UNL     1       2.577   1.040  23.253  0.00  0.00    -0.453 OA
ENDBRANCH  33  34
ENDBRANCH  32  33
ENDBRANCH  29  30
ENDBRANCH  28  29
TORSDOF 7
ENDMDL
MODEL 3
REMARK VINA RESULT:     -11.3      1.791      4.212
REMARK  Name = 
REMARK  7 active torsions:
REMARK  status: ('A' for Active; 'I' for Inactive)
REMARK    1  A    between atoms: O_2  and  C_3
REMARK    2  A    between atoms: C_6  and  C_9
REMARK    3  A    between atoms: C_18  and  C_20
REMARK    4  A    between atoms: C_28  and  C_29
REMARK    5  A    between atoms: C_29  and  C_30
REMARK    6  A    between atoms: N_32  and  C_33
REMARK    7  A    between atoms: C_33  and  C_34
REMARK                            x       y       z     vdW  Elec       q    Type
REMARK                         _______ _______ _______ _____ _____    ______ ____
ROOT
ATOM      9  C   UNL     1       1.054   0.027  23.307  0.00  0.00    +0.271 C 
ATOM     10  O   UNL     1       0.854  -0.761  23.444  0.00  0.00    -0.268 OA
ATOM     11  N   UNL     1       0.499   0.622  23.444  0.00  0.00    -0.151 NA
ATOM     12  C   UNL     1      -0.256   0.428  23.716  0.00  0.00    +0.185 A 
ATOM     13  N   UNL     1      -0.864   0.961  23.876  0.00  0.00    -0.227 NA
ATOM     14  C   UNL     1      -1.519   0.530  24.135  0.00  0.00    +0.063 A 
ATOM     15  C   UNL     1      -1.313  -0.269  24.136  0.00  0.00    +0.023 A 
ATOM     16  C   UNL     1      -1.864  -0.836  24.372  0.00  0.00    +0.034 C 
ATOM     17  C   UNL     1      -2.619  -0.605  24.608  0.00  0.00    +0.010 C 
ATOM     18  C   UNL     1      -3.169  -1.171  24.844  0.00  0.00    +0.059 C 
ATOM     19  C   UNL     1      -2.528  -1.659  24.669  0.00  0.00    +0.005 C 
ATOM     22  C   UNL     1      -3.926  -0.940  25.080  0.00  0.00    +0.154 C 
ATOM     23  O   UNL     1      -4.477  -1.507  25.317  0.00  0.00    -0.223 OA
ATOM     24  C   UNL     1      -4.131  -0.141  25.080  0.00  0.00    +0.033 C 
ATOM     25  C   UNL     1      -3.580   0.427  24.843  0.00  0.00    +0.003 C 
ATOM     26  C   UNL     1      -2.825   0.194  24.608  0.00  0.00    +0.006 C 
ATOM     27  C   UNL     1      -3.030   0.993  24.607  0.00  0.00    +0.000 C 
ATOM     28  C   UNL     1      -2.275   0.762  24.371  0.00  0.00    +0.050 C 
ATOM     39  S   UNL     1      -0.532  -0.332  23.876  0.00  0.00    -0.054 S 
ENDROOT
BRANCH   9   6
ATOM      3  C   UNL     1       3.316   0.609  22.490  0.00  0.00    +0.139 A 
ATOM      4  C   UNL     1       3.007   0.989  23.153  0.00  0.00    +0.037 A 
ATOM      5  C   UNL     1       2.253   0.795  23.426  0.00  0.00    +0.008 A 
ATOM      6  C   UNL     1       1.808   0.221  23.035  0.00  0.00    +0.056 A 
ATOM      7  C   UNL     1       2.117  -0.159  22.372  0.00  0.00    +0.008 A 
ATOM      8  C   UNL     1       2.871   0.035  22.099  0.00  0.00    +0.037 A 
BRANCH   3   2
ATOM      1  C   UNL     1       4.728   0.675  22.698  0.00  0.00    +0.252 C 
ATOM      2  O   UNL     1       4.071   0.802  22.217  0.00  0.00    -0.471 OA
ENDBRANCH   3   2
ENDBRANCH   9   6
BRANCH  18  20
ATOM     20  C   UNL     1      -3.497  -1.908  25.020  0.00  0.00    +0.184 C 
ATOM     21  O   UNL     1      -3.063  -2.596  24.887  0.00  0.00    -0.220 OA
ENDBRANCH  18  20
BRANCH  28  29
ATOM     29  C   UNL     1      -2.480   1.560  24.371  0.00  0.00    +0.093 C 
BRANCH  29  30
ATOM     30  C   UNL     1      -2.211   2.056  24.973  0.00  0.00    +0.242 C 
ATOM     31  O   UNL     1      -2.105   1.758  25.734  0.00  0.00    -0.273 OA
ATOM     32  N   UNL     1      -2.049   2.849  24.813  0.00  0.00    -0.197 NA
BRANCH  32  33
ATOM     33  C   UNL     1      -1.780   3.344  25.415  0.00  0.00    +0.179 C 
BRANCH  33  34
ATOM     34  C   UNL     1      -1.522   4.107  25.237  0.00  0.00    +0.145 A 
ATOM     35  C   UNL     1      -1.957   4.801  25.333  0.00  0.00    +0.038 A 
ATOM     36  C   UNL     1      -1.486   5.433  25.087  0.00  0.00    +0.043 A 
ATOM     37  C   UNL     1      -0.761   5.129  24.838  0.00  0.00    +0.179 A 
ATOM     38  O   UNL     1      -0.783   4.309  24.931  0.00  0.00    -0.453 OA
ENDBRANCH  33  34
ENDBRANCH  32  33
ENDBRANCH  29  30
ENDBRANCH  28  29
TORSDOF 7
ENDMDL
MODEL 4
REMARK VINA RESULT:     -11.1      2.059      4.259
REMARK  Name = 
REMARK  7 active torsions:
REMARK  status: ('A' for Active; 'I' for Inactive)
REMARK    1  A    between atoms: O_2  and  C_3
REMARK    2  A    between atoms: C_6  and  C_9
REMARK    3  A    between atoms: C_18  and  C_20
REMARK    4  A    between atoms: C_28  and  C_29
REMARK    5  A    between atoms: C_29  and  C_30
REMARK    6  A    between atoms: N_32  and  C_33
REMARK    7  A    between atoms: C_33  and  C_34
REMARK                            x       y       z     vdW  Elec       q    Type
REMARK                         _______ _______ _______ _____ _____    ______ ____
ROOT
ATOM      9  C   UNL     1      -2.229  -0.096  24.601  0.00  0.00    +0.271 C 
ATOM     10  O   UNL     1      -1.525   0.119  24.229  0.00  0.00    -0.268 OA
ATOM     11  N   UNL     1      -2.684   0.476  24.984  0.00  0.00    -0.151 NA
ATOM     12  C   UNL     1      -2.435   1.263  24.994  0.00  0.00    +0.185 A 
ATOM     13  N   UNL     1      -2.831   1.891  25.354  0.00  0.00    -0.227 NA
ATOM     14  C   UNL     1      -2.387   2.576  25.229  0.00  0.00    +0.063 A 
ATOM     15  C   UNL     1      -1.717   2.369  24.793  0.00  0.00    +0.023 A 
ATOM     16  C   UNL     1      -1.167   2.948  24.585  0.00  0.00    +0.034 C 
ATOM     17  C   UNL     1      -1.286   3.732  24.812  0.00  0.00    +0.010 C 
ATOM     18  C   UNL     1      -0.736   4.309  24.603  0.00  0.00    +0.059 C 
ATOM     19  C   UNL     1      -0.383   3.646  24.262  0.00  0.00    +0.005 C 
ATOM     22  C   UNL     1      -0.854   5.094  24.830  0.00  0.00    +0.154 C 
ATOM     23  O   UNL     1      -0.304   5.672  24.622  0.00  0.00    -0.223 OA
ATOM     24  C   UNL     1      -1.523   5.300  25.266  0.00  0.00    +0.033 C 
ATOM     25  C   UNL     1      -2.075   4.722  25.475  0.00  0.00    +0.003 C 
ATOM     26  C   UNL     1      -1.955   3.938  25.247  0.00  0.00    +0.006 C 
ATOM     27  C   UNL     1      -2.624   4.144  25.683  0.00  0.00    +0.000 C 
ATOM     28  C   UNL     1      -2.506   3.361  25.456  0.00  0.00    +0.050 C 
ATOM     39  S   UNL     1      -1.747   1.557  24.648  0.00  0.00    -0.054 S 
ENDROOT
BRANCH   9   6
ATOM      3  C   UNL     1      -2.977  -2.455  24.569  0.00  0.00    +0.139 A 
ATOM      4  C   UNL     1      -3.528  -1.846  24.497  0.00  0.00    +0.037 A 
ATOM      5  C   UNL     1      -3.279  -1.059  24.507  0.00  0.00    +0.008 A 
ATOM      6  C   UNL     1      -2.479  -0.882  24.591  0.00  0.00    +0.056 A 
ATOM      7  C   UNL     1      -1.927  -1.490  24.663  0.00  0.00    +0.008 A 
ATOM      8  C   UNL     1      -2.176  -2.277  24.653  0.00  0.00    +0.037 A 
BRANCH   3   2
ATOM      1  C   UNL     1      -3.929  -3.446  24.180  0.00  0.00    +0.252 C 
ATOM      2  O   UNL     1      -3.226  -3.241  24.559  0.00  0.00    -0.471 OA
ENDBRANCH   3   2
ENDBRANCH   9   6
BRANCH  18  20
ATOM     20  C   UNL     1      -0.062   4.657  24.276  0.00  0.00    +0.184 C 
ATOM     21  O   UNL     1       0.277   4.340  23.595  0.00  0.00    -0.220 OA
ENDBRANCH  18  20
BRANCH  28  29
ATOM     29  C   UNL     1      -3.174   3.567  25.892  0.00  0.00    +0.093 C 
BRANCH  29  30
ATOM     30  C   UNL     1      -3.914   3.591  25.526  0.00  0.00    +0.242 C 
ATOM     31  O   UNL     1      -4.018   4.032  24.837  0.00  0.00    -0.273 OA
ATOM     32  N   UNL     1      -4.548   3.175  25.850  0.00  0.00    -0.197 NA
BRANCH  32  33
ATOM     33  C   UNL     1      -5.287   3.200  25.484  0.00  0.00    +0.179 C 
BRANCH  33  34
ATOM     34  C   UNL     1      -5.800   2.557  25.547  0.00  0.00    +0.145 A 
ATOM     35  C   UNL     1      -6.094   2.108  24.920  0.00  0.00    +0.038 A 
ATOM     36  C   UNL     1      -6.585   1.523  25.234  0.00  0.00    +0.043 A 
ATOM     37  C   UNL     1      -6.595   1.611  26.054  0.00  0.00    +0.179 A 
ATOM     38  O   UNL     1      -6.109   2.250  26.248  0.00  0.00    -0.453 OA
ENDBRANCH  33  34
ENDBRANCH  32  33
ENDBRANCH  29  30
ENDBRANCH  28  29
TORSDOF 7
ENDMDL
MODEL 5
REMARK VINA RESULT:     -11.1      2.015      4.580
REMARK  Name = 
REMARK  7 active torsions:
REMARK  status: ('A' for Active; 'I' for Inactive)
REMARK    1  A    between atoms: O_2  and  C_3
REMARK    2  A    between atoms: C_6  and  C_9
REMARK    3  A    between atoms: C_18  and  C_20
REMARK    4  A    between atoms: C_28  and  C_29
REMARK    5  A    between atoms: C_29  and  C_30
REMARK    6  A    between atoms: N_32  and  C_33
REMARK    7  A    between atoms: C_33  and  C_34
REMARK                            x       y       z     vdW  Elec       q    Type
REMARK                         _______ _______ _______ _____ _____    ______ ____
ROOT
ATOM      9  C   UNL     1      -1.300   2.399  24.696  0.00  0.00    +0.271 C 
ATOM     10  O   UNL     1      -0.719   1.818  24.767  0.00  0.00    -0.268 OA
ATOM     11  N   UNL     1      -2.089   2.181  24.592  0.00  0.00    -0.151 NA
ATOM     12  C   UNL     1      -2.296   1.384  24.559  0.00  0.00    +0.185 A 
ATOM     13  N   UNL     1      -3.059   1.085  24.457  0.00  0.00    -0.227 NA
ATOM     14  C   UNL     1      -3.011   0.261  24.457  0.00  0.00    +0.063 A 
ATOM     15  C   UNL     1      -2.220   0.051  24.557  0.00  0.00    +0.023 A 
ATOM     16  C   UNL     1      -2.004  -0.745  24.579  0.00  0.00    +0.034 C 
ATOM     17  C   UNL     1      -2.579  -1.330  24.499  0.00  0.00    +0.010 C 
ATOM     18  C   UNL     1      -2.363  -2.126  24.520  0.00  0.00    +0.059 C 
ATOM     19  C   UNL     1      -1.623  -1.774  24.619  0.00  0.00    +0.005 C 
ATOM     22  C   UNL     1      -2.938  -2.712  24.441  0.00  0.00    +0.154 C 
ATOM     23  O   UNL     1      -2.722  -3.509  24.462  0.00  0.00    -0.223 OA
ATOM     24  C   UNL     1      -3.729  -2.503  24.340  0.00  0.00    +0.033 C 
ATOM     25  C   UNL     1      -3.946  -1.706  24.319  0.00  0.00    +0.003 C 
ATOM     26  C   UNL     1      -3.370  -1.121  24.398  0.00  0.00    +0.006 C 
ATOM     27  C   UNL     1      -4.162  -0.911  24.298  0.00  0.00    +0.000 C 
ATOM     28  C   UNL     1      -3.587  -0.325  24.377  0.00  0.00    +0.050 C 
ATOM     39  S   UNL     1      -1.778   0.746  24.620  0.00  0.00    -0.054 S 
ENDROOT
BRANCH   9   6
ATOM      3  C   UNL     1      -0.678   4.793  24.797  0.00  0.00    +0.139 A 
ATOM      4  C   UNL     1      -1.321   4.514  25.233  0.00  0.00    +0.037 A 
ATOM      5  C   UNL     1      -1.528   3.716  25.199  0.00  0.00    +0.008 A 
ATOM      6  C   UNL     1      -1.093   3.197  24.730  0.00  0.00    +0.056 A 
ATOM      7  C   UNL     1      -0.451   3.475  24.293  0.00  0.00    +0.008 A 
ATOM      8  C   UNL     1      -0.244   4.272  24.327  0.00  0.00    +0.037 A 
BRANCH   3   2
ATOM      1  C   UNL     1      -1.057   6.170  24.805  0.00  0.00    +0.252 C 
ATOM      2  O   UNL     1      -0.471   5.590  24.830  0.00  0.00    -0.471 OA
ENDBRANCH   3   2
ENDBRANCH   9   6
BRANCH  18  20
ATOM     20  C   UNL     1      -1.890  -2.800  24.576  0.00  0.00    +0.184 C 
ATOM     21  O   UNL     1      -1.122  -2.743  24.871  0.00  0.00    -0.220 OA
ENDBRANCH  18  20
BRANCH  28  29
ATOM     29  C   UNL     1      -4.378  -0.115  24.277  0.00  0.00    +0.093 C 
BRANCH  29  30
ATOM     30  C   UNL     1      -4.794   0.237  24.896  0.00  0.00    +0.242 C 
ATOM     31  O   UNL     1      -4.815  -0.127  25.636  0.00  0.00    -0.273 OA
ATOM     32  N   UNL     1      -5.187   0.952  24.775  0.00  0.00    -0.197 NA
BRANCH  32  33
ATOM     33  C   UNL     1      -5.602   1.303  25.394  0.00  0.00    +0.179 C 
BRANCH  33  34
ATOM     34  C   UNL     1      -5.644   2.125  25.449  0.00  0.00    +0.145 A 
ATOM     35  C   UNL     1      -5.619   2.566  26.147  0.00  0.00    +0.038 A 
ATOM     36  C   UNL     1      -5.677   3.365  25.945  0.00  0.00    +0.043 A 
ATOM     37  C   UNL     1      -5.737   3.417  25.124  0.00  0.00    +0.179 A 
ATOM     38  O   UNL     1      -5.716   2.650  24.818  0.00  0.00    -0.453 OA
ENDBRANCH  33  34
ENDBRANCH  32  33
ENDBRANCH  29  30
ENDBRANCH  28  29
TORSDOF 7
ENDMDL
MODEL 6
REMARK VINA RESULT:     -11.1      1.777      5.231
REMARK  Name = 
REMARK  7 active torsions:
REMARK  status: ('A' for Active; 'I' for Inactive)
REMARK    1  A    between atoms: O_2  and  C_3
REMARK    2  A    between atoms: C_6  and  C_9
REMARK    3  A    between atoms: C_18  and  C_20
REMARK    4  A    between atoms: C_28  and  C_29
REMARK    5  A    between atoms: C_29  and  C_30
REMARK    6  A    between atoms: N_32  and  C_33
REMARK    7  A    between atoms: C_33  and  C_34
REMARK                            x       y       z     vdW  Elec       q    Type
REMARK                         _______ _______ _______ _____ _____    ______ ____
ROOT
ATOM      9  C   UNL     1      -2.140   2.599  25.062  0.00  0.00    +0.271 C 
ATOM     10  O   UNL     1      -2.910   2.310  25.133  0.00  0.00    -0.268 OA
ATOM     11  N   UNL     1      -1.517   2.078  24.922  0.00  0.00    -0.151 NA
ATOM     12  C   UNL     1      -1.662   1.269  24.852  0.00  0.00    +0.185 A 
ATOM     13  N   UNL     1      -1.096   0.685  24.712  0.00  0.00    -0.227 NA
ATOM     14  C   UNL     1      -1.483  -0.043  24.683  0.00  0.00    +0.063 A 
ATOM     15  C   UNL     1      -2.288   0.091  24.805  0.00  0.00    +0.023 A 
ATOM     16  C   UNL     1      -2.816  -0.543  24.806  0.00  0.00    +0.034 C 
ATOM     17  C   UNL     1      -2.540  -1.310  24.684  0.00  0.00    +0.010 C 
ATOM     18  C   UNL     1      -3.068  -1.943  24.685  0.00  0.00    +0.059 C 
ATOM     19  C   UNL     1      -3.591  -1.321  24.823  0.00  0.00    +0.005 C 
ATOM     22  C   UNL     1      -2.792  -2.711  24.563  0.00  0.00    +0.154 C 
ATOM     23  O   UNL     1      -3.320  -3.346  24.564  0.00  0.00    -0.223 OA
ATOM     24  C   UNL     1      -1.987  -2.846  24.441  0.00  0.00    +0.033 C 
ATOM     25  C   UNL     1      -1.458  -2.212  24.441  0.00  0.00    +0.003 C 
ATOM     26  C   UNL     1      -1.735  -1.444  24.562  0.00  0.00    +0.006 C 
ATOM     27  C   UNL     1      -0.930  -1.579  24.441  0.00  0.00    +0.000 C 
ATOM     28  C   UNL     1      -1.206  -0.811  24.562  0.00  0.00    +0.050 C 
ATOM     39  S   UNL     1      -2.398   0.903  24.909  0.00  0.00    -0.054 S 
ENDROOT
BRANCH   9   6
ATOM      3  C   UNL     1      -1.704   5.026  25.272  0.00  0.00    +0.139 A 
ATOM      4  C   UNL     1      -2.404   4.706  25.567  0.00  0.00    +0.037 A 
ATOM      5  C   UNL     1      -2.550   3.896  25.497  0.00  0.00    +0.008 A 
ATOM      6  C   UNL     1      -1.995   3.408  25.132  0.00  0.00    +0.056 A 
ATOM      7  C   UNL     1      -1.295   3.728  24.837  0.00  0.00    +0.008 A 
ATOM      8  C   UNL     1      -1.149   4.537  24.907  0.00  0.00    +0.037 A 
BRANCH   3   2
ATOM      1  C   UNL     1      -1.017   6.201  24.839  0.00  0.00    +0.252 C 
ATOM      2  O   UNL     1      -1.558   5.835  25.341  0.00  0.00    -0.471 OA
ENDBRANCH   3   2
ENDBRANCH   9   6
BRANCH  18  20
ATOM     20  C   UNL     1      -3.778  -2.361  24.733  0.00  0.00    +0.184 C 
ATOM     21  O   UNL     1      -4.461  -2.057  24.385  0.00  0.00    -0.220 OA
ENDBRANCH  18  20
BRANCH  28  29
ATOM     29  C   UNL     1      -0.402  -0.945  24.440  0.00  0.00    +0.093 C 
BRANCH  29  30
ATOM     30  C   UNL     1      -0.064  -0.786  23.705  0.00  0.00    +0.242 C 
ATOM     31  O   UNL     1      -0.462  -0.996  23.014  0.00  0.00    -0.273 OA
ATOM     32  N   UNL     1       0.672  -0.416  23.661  0.00  0.00    -0.197 NA
BRANCH  32  33
ATOM     33  C   UNL     1       1.010  -0.256  22.927  0.00  0.00    +0.179 C 
BRANCH  33  34
ATOM     34  C   UNL     1       1.756   0.093  22.883  0.00  0.00    +0.145 A 
ATOM     35  C   UNL     1       2.406  -0.201  22.467  0.00  0.00    +0.038 A 
ATOM     36  C   UNL     1       3.035   0.323  22.575  0.00  0.00    +0.043 A 
ATOM     37  C   UNL     1       2.774   0.940  23.056  0.00  0.00    +0.179 A 
ATOM     38  O   UNL     1       1.984   0.798  23.246  0.00  0.00    -0.453 OA
ENDBRANCH  33  34
ENDBRANCH  32  33
ENDBRANCH  29  30
ENDBRANCH  28  29
TORSDOF 7
ENDMDL
MODEL 7
REMARK VINA RESULT:     -10.7      1.639      5.987
REMARK  Name = 
REMARK  7 active torsions:
REMARK  status: ('A' for Active; 'I' for Inactive)
REMARK    1  A    between atoms: O_2  and  C_3
REMARK    2  A    between atoms: C_6  and  C_9
REMARK    3  A    between atoms: C_18  and  C_20
REMARK    4  A    between atoms: C_28  and  C_29
REMARK    5  A    between atoms: C_29  and  C_30
REMARK    6  A    between atoms: N_32  and  C_33
REMARK    7  A    between atoms: C_33  and  C_34
REMARK                            x       y       z     vdW  Elec       q    Type
REMARK                         _______ _______ _______ _____ _____    ______ ____
ROOT
ATOM      9  C   UNL     1      -4.813   1.756  25.193  0.00  0.00    +0.271 C 
ATOM     10  O   UNL     1      -5.268   1.133  24.903  0.00  0.00    -0.268 OA
ATOM     11  N   UNL     1      -4.008   1.646  25.336  0.00  0.00    -0.151 NA
ATOM     12  C   UNL     1      -3.659   0.913  25.189  0.00  0.00    +0.185 A 
ATOM     13  N   UNL     1      -2.865   0.723  25.305  0.00  0.00    -0.227 NA
ATOM     14  C   UNL     1      -2.758  -0.066  25.088  0.00  0.00    +0.063 A 
ATOM     15  C   UNL     1      -3.486  -0.362  24.838  0.00  0.00    +0.023 A 
ATOM     16  C   UNL     1      -3.547  -1.146  24.585  0.00  0.00    +0.034 C 
ATOM     17  C   UNL     1      -2.881  -1.632  24.583  0.00  0.00    +0.010 C 
ATOM     18  C   UNL     1      -2.942  -2.414  24.331  0.00  0.00    +0.059 C 
ATOM     19  C   UNL     1      -3.724  -2.171  24.234  0.00  0.00    +0.005 C 
ATOM     22  C   UNL     1      -2.276  -2.901  24.328  0.00  0.00    +0.154 C 
ATOM     23  O   UNL     1      -2.337  -3.684  24.076  0.00  0.00    -0.223 OA
ATOM     24  C   UNL     1      -1.548  -2.604  24.578  0.00  0.00    +0.033 C 
ATOM     25  C   UNL     1      -1.486  -1.821  24.831  0.00  0.00    +0.003 C 
ATOM     26  C   UNL     1      -2.153  -1.335  24.833  0.00  0.00    +0.006 C 
ATOM     27  C   UNL     1      -1.425  -1.038  25.083  0.00  0.00    +0.000 C 
ATOM     28  C   UNL     1      -2.090  -0.552  25.085  0.00  0.00    +0.050 C 
ATOM     39  S   UNL     1      -4.043   0.243  24.900  0.00  0.00    -0.054 S 
ENDROOT
BRANCH   9   6
ATOM      3  C   UNL     1      -5.860   3.955  25.634  0.00  0.00    +0.139 A 
ATOM      4  C   UNL     1      -6.240   3.262  25.870  0.00  0.00    +0.037 A 
ATOM      5  C   UNL     1      -5.891   2.529  25.723  0.00  0.00    +0.008 A 
ATOM      6  C   UNL     1      -5.162   2.489  25.340  0.00  0.00    +0.056 A 
ATOM      7  C   UNL     1      -4.782   3.181  25.103  0.00  0.00    +0.008 A 
ATOM      8  C   UNL     1      -5.131   3.914  25.250  0.00  0.00    +0.037 A 
BRANCH   3   2
ATOM      1  C   UNL     1      -6.048   5.328  25.287  0.00  0.00    +0.252 C 
ATOM      2  O   UNL     1      -6.210   4.688  25.781  0.00  0.00    -0.471 OA
ENDBRANCH   3   2
ENDBRANCH   9   6
BRANCH  18  20
ATOM     20  C   UNL     1      -3.275  -3.113  24.045  0.00  0.00    +0.184 C 
ATOM     21  O   UNL     1      -4.089  -3.163  23.922  0.00  0.00    -0.220 OA
ENDBRANCH  18  20
BRANCH  28  29
ATOM     29  C   UNL     1      -1.363  -0.256  25.335  0.00  0.00    +0.093 C 
BRANCH  29  30
ATOM     30  C   UNL     1      -0.937   0.256  24.848  0.00  0.00    +0.242 C 
ATOM     31  O   UNL     1      -0.768   0.039  24.071  0.00  0.00    -0.273 OA
ATOM     32  N   UNL     1      -0.679   0.983  25.139  0.00  0.00    -0.197 NA
BRANCH  32  33
ATOM     33  C   UNL     1      -0.253   1.494  24.652  0.00  0.00    +0.179 C 
BRANCH  33  34
ATOM     34  C   UNL     1      -0.284   2.308  24.781  0.00  0.00    +0.145 A 
ATOM     35  C   UNL     1      -0.120   2.694  25.492  0.00  0.00    +0.038 A 
ATOM     36  C   UNL     1      -0.220   3.504  25.372  0.00  0.00    +0.043 A 
ATOM     37  C   UNL     1      -0.445   3.619  24.587  0.00  0.00    +0.179 A 
ATOM     38  O   UNL     1      -0.485   2.880  24.222  0.00  0.00    -0.453 OA
ENDBRANCH  33  34
ENDBRANCH  32  33
ENDBRANCH  29  30
ENDBRANCH  28  29
TORSDOF 7
ENDMDL
MODEL 8
REMARK VINA RESULT:      -9.0      1.292      4.102
REMARK  Name = 
REMARK  7 active torsions:
REMARK  status: ('A' for Active; 'I' for Inactive)
REMARK    1  A    between atoms: O_2  and  C_3
REMARK    2  A    between atoms: C_6  and  C_9
REMARK    3  A    between atoms: C_18  and  C_20
REMARK    4  A    between atoms: C_28  and  C_29
REMARK    5  A    between atoms: C_29  and  C_30
REMARK    6  A    between atoms: N_32  and  C_33
REMARK    7  A    between atoms: C_33  and  C_34
REMARK                            x       y       z     vdW  Elec       q    Type
REMARK                         _______ _______ _______ _____ _____    ______ ____
ROOT
ATOM      9  C   UNL     1      -4.035  -0.756  24.589  0.00  0.00    +0.271 C 
ATOM     10  O   UNL     1      -4.761  -0.595  24.945  0.00  0.00    -0.268 OA
ATOM     11  N   UNL     1      -3.532  -0.136  24.382  0.00  0.00    -0.151 NA
ATOM     12  C   UNL     1      -3.755   0.644  24.530  0.00  0.00    +0.185 A 
ATOM     13  N   UNL     1      -3.311   1.317  24.353  0.00  0.00    -0.227 NA
ATOM     14  C   UNL     1      -3.743   1.977  24.595  0.00  0.00    +0.063 A 
ATOM     15  C   UNL     1      -4.453   1.712  24.920  0.00  0.00    +0.023 A 
ATOM     16  C   UNL     1      -5.002   2.256  25.212  0.00  0.00    +0.034 C 
ATOM     17  C   UNL     1      -4.840   3.064  25.177  0.00  0.00    +0.010 C 
ATOM     18  C   UNL     1      -5.388   3.606  25.468  0.00  0.00    +0.059 C 
ATOM     19  C   UNL     1      -5.789   2.902  25.622  0.00  0.00    +0.005 C 
ATOM     22  C   UNL     1      -5.227   4.415  25.434  0.00  0.00    +0.154 C 
ATOM     23  O   UNL     1      -5.775   4.959  25.725  0.00  0.00    -0.223 OA
ATOM     24  C   UNL     1      -4.517   4.680  25.109  0.00  0.00    +0.033 C 
ATOM     25  C   UNL     1      -3.968   4.137  24.817  0.00  0.00    +0.003 C 
ATOM     26  C   UNL     1      -4.130   3.329  24.852  0.00  0.00    +0.006 C 
ATOM     27  C   UNL     1      -3.420   3.594  24.527  0.00  0.00    +0.000 C 
ATOM     28  C   UNL     1      -3.581   2.786  24.561  0.00  0.00    +0.050 C 
ATOM     39  S   UNL     1      -4.460   0.888  24.880  0.00  0.00    -0.054 S 
ENDROOT
BRANCH   9   6
ATOM      3  C   UNL     1      -3.365  -3.097  24.144  0.00  0.00    +0.139 A 
ATOM      4  C   UNL     1      -2.958  -2.650  24.706  0.00  0.00    +0.037 A 
ATOM      5  C   UNL     1      -3.181  -1.870  24.854  0.00  0.00    +0.008 A 
ATOM      6  C   UNL     1      -3.811  -1.536  24.441  0.00  0.00    +0.056 A 
ATOM      7  C   UNL     1      -4.218  -1.982  23.879  0.00  0.00    +0.008 A 
ATOM      8  C   UNL     1      -3.995  -2.762  23.731  0.00  0.00    +0.037 A 
BRANCH   3   2
ATOM      1  C   UNL     1      -2.502  -4.035  23.500  0.00  0.00    +0.252 C 
ATOM      2  O   UNL     1      -3.141  -3.877  23.996  0.00  0.00    -0.471 OA
ENDBRANCH   3   2
ENDBRANCH   9   6
BRANCH  18  20
ATOM     20  C   UNL     1      -6.076   3.905  25.813  0.00  0.00    +0.184 C 
ATOM     21  O   UNL     1      -6.575   3.406  26.240  0.00  0.00    -0.220 OA
ENDBRANCH  18  20
BRANCH  28  29
ATOM     29  C   UNL     1      -2.872   3.051  24.236  0.00  0.00    +0.093 C 
BRANCH  29  30
ATOM     30  C   UNL     1      -2.169   2.977  24.661  0.00  0.00    +0.242 C 
ATOM     31  O   UNL     1      -2.134   3.232  25.445  0.00  0.00    -0.273 OA
ATOM     32  N   UNL     1      -1.503   2.647  24.304  0.00  0.00    -0.197 NA
BRANCH  32  33
ATOM     33  C   UNL     1      -0.801   2.573  24.730  0.00  0.00    +0.179 C 
BRANCH  33  34
ATOM     34  C   UNL     1      -0.200   2.081  24.452  0.00  0.00    +0.145 A 
ATOM     35  C   UNL     1       0.532   2.327  24.159  0.00  0.00    +0.038 A 
ATOM     36  C   UNL     1       0.959   1.654  23.944  0.00  0.00    +0.043 A 
ATOM     37  C   UNL     1       0.492   0.993  24.105  0.00  0.00    +0.179 A 
ATOM     38  O   UNL     1      -0.224   1.257  24.419  0.00  0.00    -0.453 OA
ENDBRANCH  33  34
ENDBRANCH  32  33
ENDBRANCH  29  30
ENDBRANCH  28  29
TORSDOF 7
ENDMDL
