MODEL 1
REMARK VINA RESULT:     -10.0      0.000      0.000
REMARK  Name = 
REMARK  4 active torsions:
REMARK  status: ('A' for Active; 'I' for Inactive)
REMARK    1  A    between atoms: C_2  and  N_3
REMARK    2  A    between atoms: N_6  and  C_7
REMARK    3  A    between atoms: C_11  and  N_15
REMARK    4  A    between atoms: C_18  and  C_22
REMARK                            x       y       z     vdW  Elec       q    Type
REMARK                         _______ _______ _______ _____ _____    ______ ____
ROOT
ATOM      7  C   UNL     1      -1.049   2.299  24.450  0.00  0.00    +0.156 C 
ATOM      8  C   UNL     1      -1.340   2.192  23.685  0.00  0.00    +0.166 C 
ATOM      9  O   UNL     1      -1.565   1.403  23.607  0.00  0.00    -0.350 OA
ATOM     10  C   UNL     1      -1.414   1.021  24.322  0.00  0.00    +0.166 C 
ATOM     11  C   UNL     1      -1.460   0.298  24.716  0.00  0.00    +0.154 C 
ATOM     12  C   UNL     1      -1.169   0.404  25.480  0.00  0.00    +0.166 C 
ATOM     13  O   UNL     1      -0.944   1.194  25.560  0.00  0.00    -0.350 OA
ATOM     14  C   UNL     1      -1.095   1.575  24.843  0.00  0.00    +0.166 C 
ENDROOT
BRANCH  11  15
ATOM     15  N   UNL     1      -1.747  -0.409  24.399  0.00  0.00    -0.200 NA
ATOM     16  C   UNL     1      -2.435  -0.746  24.703  0.00  0.00    +0.236 A 
ATOM     17  N   UNL     1      -2.722  -1.453  24.386  0.00  0.00    -0.217 NA
ATOM     18  C   UNL     1      -3.411  -1.790  24.690  0.00  0.00    +0.063 A 
ATOM     19  C   UNL     1      -3.813  -1.422  25.309  0.00  0.00    +0.035 A 
ATOM     20  C   UNL     1      -3.527  -0.717  25.625  0.00  0.00    +0.103 A 
ATOM     21  N   UNL     1      -2.838  -0.378  25.322  0.00  0.00    -0.211 NA
BRANCH  18  22
ATOM     22  C   UNL     1      -3.698  -2.497  24.374  0.00  0.00    +0.036 C 
ATOM     23  C   UNL     1      -3.984  -3.203  24.058  0.00  0.00    +0.006 C 
ATOM     24  C   UNL     1      -3.232  -2.923  24.906  0.00  0.00    +0.006 C 
ATOM     25  C   UNL     1      -4.162  -2.070  23.842  0.00  0.00    +0.006 C 
ENDBRANCH  18  22
ENDBRANCH  11  15
BRANCH   7   6
ATOM      3  N   UNL     1      -0.949   4.387  25.076  0.00  0.00    -0.187 NA
ATOM      4  C   UNL     1      -1.235   3.681  24.761  0.00  0.00    +0.339 C 
ATOM      5  O   UNL     1      -1.994   3.651  24.439  0.00  0.00    -0.249 OA
ATOM      6  N   UNL     1      -0.763   3.005  24.766  0.00  0.00    -0.184 NA
BRANCH   3   2
ATOM      1  C   UNL     1      -1.075   5.808  24.992  0.00  0.00    +0.025 C 
ATOM      2  C   UNL     1      -1.421   5.064  25.071  0.00  0.00    +0.117 C 
ENDBRANCH   3   2
ENDBRANCH   7   6
TORSDOF 4
ENDMDL
MODEL 2
REMARK VINA RESULT:      -9.4      2.752      4.048
REMARK  Name = 
REMARK  4 active torsions:
REMARK  status: ('A' for Active; 'I' for Inactive)
REMARK    1  A    between atoms: C_2  and  N_3
REMARK    2  A    between atoms: N_6  and  C_7
REMARK    3  A    between atoms: C_11  and  N_15
REMARK    4  A    between atoms: C_18  and  C_22
REMARK                            x       y       z     vdW  Elec       q    Type
REMARK                         _______ _______ _______ _____ _____    ______ ____
ROOT
ATOM      7  C   UNL     1      -0.077   0.998  24.145  0.00  0.00    +0.156 C 
ATOM      8  C   UNL     1      -0.432   0.289  24.375  0.00  0.00    +0.166 C 
ATOM      9  O   UNL     1      -1.168   0.467  24.700  0.00  0.00    -0.350 OA
ATOM     10  C   UNL     1      -1.269   1.286  24.671  0.00  0.00    +0.166 C 
ATOM     11  C   UNL     1      -1.786   1.901  24.854  0.00  0.00    +0.154 C 
ATOM     12  C   UNL     1      -1.432   2.609  24.624  0.00  0.00    +0.166 C 
ATOM     13  O   UNL     1      -0.694   2.432  24.299  0.00  0.00    -0.350 OA
ATOM     14  C   UNL     1      -0.595   1.613  24.328  0.00  0.00    +0.166 C 
ENDROOT
BRANCH  11  15
ATOM     15  N   UNL     1      -2.529   1.823  25.206  0.00  0.00    -0.200 NA
ATOM     16  C   UNL     1      -3.194   2.149  24.842  0.00  0.00    +0.236 A 
ATOM     17  N   UNL     1      -3.937   2.070  25.194  0.00  0.00    -0.217 NA
ATOM     18  C   UNL     1      -4.601   2.396  24.830  0.00  0.00    +0.063 A 
ATOM     19  C   UNL     1      -4.524   2.801  24.115  0.00  0.00    +0.035 A 
ATOM     20  C   UNL     1      -3.782   2.879  23.764  0.00  0.00    +0.103 A 
ATOM     21  N   UNL     1      -3.116   2.553  24.127  0.00  0.00    -0.211 NA
BRANCH  18  22
ATOM     22  C   UNL     1      -5.344   2.317  25.182  0.00  0.00    +0.036 C 
ATOM     23  C   UNL     1      -6.086   2.238  25.533  0.00  0.00    +0.006 C 
ATOM     24  C   UNL     1      -5.439   1.584  24.814  0.00  0.00    +0.006 C 
ATOM     25  C   UNL     1      -5.248   3.049  25.548  0.00  0.00    +0.006 C 
ENDBRANCH  18  22
ENDBRANCH  11  15
BRANCH   7   6
ATOM      3  N   UNL     1       1.715   0.541  22.985  0.00  0.00    -0.187 NA
ATOM      4  C   UNL     1       0.973   0.462  23.336  0.00  0.00    +0.339 C 
ATOM      5  O   UNL     1       0.538  -0.231  23.230  0.00  0.00    -0.249 OA
ATOM      6  N   UNL     1       0.665   1.076  23.794  0.00  0.00    -0.184 NA
BRANCH   3   2
ATOM      1  C   UNL     1       2.773  -0.004  22.195  0.00  0.00    +0.025 C 
ATOM      2  C   UNL     1       2.022  -0.073  22.528  0.00  0.00    +0.117 C 
ENDBRANCH   3   2
ENDBRANCH   7   6
TORSDOF 4
ENDMDL
MODEL 3
REMARK VINA RESULT:      -9.4      1.585      5.623
REMARK  Name = 
REMARK  4 active torsions:
REMARK  status: ('A' for Active; 'I' for Inactive)
REMARK    1  A    between atoms: C_2  and  N_3
REMARK    2  A    between atoms: N_6  and  C_7
REMARK    3  A    between atoms: C_11  and  N_15
REMARK    4  A    between atoms: C_18  and  C_22
REMARK                            x       y       z     vdW  Elec       q    Type
REMARK                         _______ _______ _______ _____ _____    ______ ____
ROOT
ATOM      7  C   UNL     1      -3.956   0.064  24.247  0.00  0.00    +0.156 C 
ATOM      8  C   UNL     1      -4.313   0.416  24.904  0.00  0.00    +0.166 C 
ATOM      9  O   UNL     1      -4.089   1.209  24.920  0.00  0.00    -0.350 OA
ATOM     10  C   UNL     1      -3.594   1.349  24.275  0.00  0.00    +0.166 C 
ATOM     11  C   UNL     1      -3.151   1.925  23.886  0.00  0.00    +0.154 C 
ATOM     12  C   UNL     1      -2.795   1.575  23.230  0.00  0.00    +0.166 C 
ATOM     13  O   UNL     1      -3.019   0.780  23.213  0.00  0.00    -0.350 OA
ATOM     14  C   UNL     1      -3.513   0.642  23.859  0.00  0.00    +0.166 C 
ENDROOT
BRANCH  11  15
ATOM     15  N   UNL     1      -3.076   2.715  24.114  0.00  0.00    -0.200 NA
ATOM     16  C   UNL     1      -2.344   3.006  24.358  0.00  0.00    +0.236 A 
ATOM     17  N   UNL     1      -2.269   3.796  24.586  0.00  0.00    -0.217 NA
ATOM     18  C   UNL     1      -1.537   4.087  24.830  0.00  0.00    +0.063 A 
ATOM     19  C   UNL     1      -0.879   3.589  24.847  0.00  0.00    +0.035 A 
ATOM     20  C   UNL     1      -0.954   2.800  24.619  0.00  0.00    +0.103 A 
ATOM     21  N   UNL     1      -1.686   2.508  24.375  0.00  0.00    -0.211 NA
BRANCH  18  22
ATOM     22  C   UNL     1      -1.462   4.877  25.058  0.00  0.00    +0.036 C 
ATOM     23  C   UNL     1      -1.387   5.666  25.286  0.00  0.00    +0.006 C 
ATOM     24  C   UNL     1      -0.840   4.971  24.524  0.00  0.00    +0.006 C 
ATOM     25  C   UNL     1      -2.083   4.781  25.592  0.00  0.00    +0.006 C 
ENDBRANCH  18  22
ENDBRANCH  11  15
BRANCH   7   6
ATOM      3  N   UNL     1      -3.857  -2.115  24.300  0.00  0.00    -0.187 NA
ATOM      4  C   UNL     1      -3.783  -1.326  24.527  0.00  0.00    +0.339 C 
ATOM      5  O   UNL     1      -3.459  -1.138  25.262  0.00  0.00    -0.249 OA
ATOM      6  N   UNL     1      -4.031  -0.724  24.020  0.00  0.00    -0.184 NA
BRANCH   3   2
ATOM      1  C   UNL     1      -3.557  -3.492  24.533  0.00  0.00    +0.025 C 
ATOM      2  C   UNL     1      -3.609  -2.717  24.807  0.00  0.00    +0.117 C 
ENDBRANCH   3   2
ENDBRANCH   7   6
TORSDOF 4
ENDMDL
MODEL 4
REMARK VINA RESULT:      -6.8     15.044     17.450
REMARK  Name = 
REMARK  4 active torsions:
REMARK  status: ('A' for Active; 'I' for Inactive)
REMARK    1  A    between atoms: C_2  and  N_3
REMARK    2  A    between atoms: N_6  and  C_7
REMARK    3  A    between atoms: C_11  and  N_15
REMARK    4  A    between atoms: C_18  and  C_22
REMARK                            x       y       z     vdW  Elec       q    Type
REMARK                         _______ _______ _______ _____ _____    ______ ____
ROOT
ATOM      7  C   UNL     1      -2.662 -10.531  13.244  0.00  0.00    +0.156 C 
ATOM      8  C   UNL     1      -3.450 -10.514  13.489  0.00  0.00    +0.166 C 
ATOM      9  O   UNL     1      -3.926 -10.515  12.816  0.00  0.00    -0.350 OA
ATOM     10  C   UNL     1      -3.434 -10.533  12.154  0.00  0.00    +0.166 C 
ATOM     11  C   UNL     1      -3.423 -10.545  11.330  0.00  0.00    +0.154 C 
ATOM     12  C   UNL     1      -2.636 -10.562  11.085  0.00  0.00    +0.166 C 
ATOM     13  O   UNL     1      -2.159 -10.560  11.758  0.00  0.00    -0.350 OA
ATOM     14  C   UNL     1      -2.653 -10.542  12.419  0.00  0.00    +0.166 C 
ENDROOT
BRANCH  11  15
ATOM     15  N   UNL     1      -4.085 -10.541  10.837  0.00  0.00    -0.200 NA
ATOM     16  C   UNL     1      -4.146  -9.980  10.234  0.00  0.00    +0.236 A 
ATOM     17  N   UNL     1      -4.808  -9.976   9.741  0.00  0.00    -0.217 NA
ATOM     18  C   UNL     1      -4.869  -9.416   9.139  0.00  0.00    +0.063 A 
ATOM     19  C   UNL     1      -4.270  -8.860   9.029  0.00  0.00    +0.035 A 
ATOM     20  C   UNL     1      -3.609  -8.864   9.522  0.00  0.00    +0.103 A 
ATOM     21  N   UNL     1      -3.547  -9.424  10.125  0.00  0.00    -0.211 NA
BRANCH  18  22
ATOM     22  C   UNL     1      -5.531  -9.411   8.645  0.00  0.00    +0.036 C 
ATOM     23  C   UNL     1      -6.193  -9.407   8.153  0.00  0.00    +0.006 C 
ATOM     24  C   UNL     1      -5.917  -8.902   9.168  0.00  0.00    +0.006 C 
ATOM     25  C   UNL     1      -5.145  -9.920   8.124  0.00  0.00    +0.006 C 
ENDBRANCH  18  22
ENDBRANCH  11  15
BRANCH   7   6
ATOM      3  N   UNL     1      -1.436 -10.536  15.049  0.00  0.00    -0.187 NA
ATOM      4  C   UNL     1      -2.097 -10.532  14.556  0.00  0.00    +0.339 C 
ATOM      5  O   UNL     1      -2.855 -10.525  14.883  0.00  0.00    -0.249 OA
ATOM      6  N   UNL     1      -2.001 -10.535  13.737  0.00  0.00    -0.184 NA
BRANCH   3   2
ATOM      1  C   UNL     1      -0.872 -10.497  16.362  0.00  0.00    +0.025 C 
ATOM      2  C   UNL     1      -1.532 -10.533  15.869  0.00  0.00    +0.117 C 
ENDBRANCH   3   2
ENDBRANCH   7   6
TORSDOF 4
ENDMDL
MODEL 5
REMARK VINA RESULT:      -6.6     13.850     16.494
REMARK  Name = 
REMARK  4 active torsions:
REMARK  status: ('A' for Active; 'I' for Inactive)
REMARK    1  A    between atoms: C_2  and  N_3
REMARK    2  A    between atoms: N_6  and  C_7
REMARK    3  A    between atoms: C_11  and  N_15
REMARK    4  A    between atoms: C_18  and  C_22
REMARK                            x       y       z     vdW  Elec       q    Type
REMARK                         _______ _______ _______ _____ _____    ______ ____
ROOT
ATOM      7  C   UNL     1      -4.940 -10.333  15.124  0.00  0.00    +0.156 C 
ATOM      8  C   UNL     1      -5.662  -9.989  14.919  0.00  0.00    +0.166 C 
ATOM      9  O   UNL     1      -5.685  -9.917  14.098  0.00  0.00    -0.350 OA
ATOM     10  C   UNL     1      -4.978 -10.215  13.794  0.00  0.00    +0.166 C 
ATOM     11  C   UNL     1      -4.556 -10.355  13.100  0.00  0.00    +0.154 C 
ATOM     12  C   UNL     1      -3.835 -10.698  13.305  0.00  0.00    +0.166 C 
ATOM     13  O   UNL     1      -3.810 -10.771  14.126  0.00  0.00    -0.350 OA
ATOM     14  C   UNL     1      -4.518 -10.472  14.428  0.00  0.00    +0.166 C 
ENDROOT
BRANCH  11  15
ATOM     15  N   UNL     1      -4.811 -10.182  12.334  0.00  0.00    -0.200 NA
ATOM     16  C   UNL     1      -4.259 -10.013  11.745  0.00  0.00    +0.236 A 
ATOM     17  N   UNL     1      -4.514  -9.839  10.979  0.00  0.00    -0.217 NA
ATOM     18  C   UNL     1      -3.963  -9.670  10.389  0.00  0.00    +0.063 A 
ATOM     19  C   UNL     1      -3.156  -9.674  10.565  0.00  0.00    +0.035 A 
ATOM     20  C   UNL     1      -2.902  -9.847  11.330  0.00  0.00    +0.103 A 
ATOM     21  N   UNL     1      -3.453 -10.017  11.920  0.00  0.00    -0.211 NA
BRANCH  18  22
ATOM     22  C   UNL     1      -4.218  -9.497   9.624  0.00  0.00    +0.036 C 
ATOM     23  C   UNL     1      -4.472  -9.324   8.859  0.00  0.00    +0.006 C 
ATOM     24  C   UNL     1      -4.337  -8.710   9.842  0.00  0.00    +0.006 C 
ATOM     25  C   UNL     1      -4.098 -10.284   9.406  0.00  0.00    +0.006 C 
ENDBRANCH  18  22
ENDBRANCH  11  15
BRANCH   7   6
ATOM      3  N   UNL     1      -4.955 -10.617  17.287  0.00  0.00    -0.187 NA
ATOM      4  C   UNL     1      -5.210 -10.444  16.523  0.00  0.00    +0.339 C 
ATOM      5  O   UNL     1      -5.990 -10.209  16.391  0.00  0.00    -0.249 OA
ATOM      6  N   UNL     1      -4.685 -10.505  15.889  0.00  0.00    -0.184 NA
BRANCH   3   2
ATOM      1  C   UNL     1      -5.242 -10.780  18.678  0.00  0.00    +0.025 C 
ATOM      2  C   UNL     1      -5.480 -10.555  17.921  0.00  0.00    +0.117 C 
ENDBRANCH   3   2
ENDBRANCH   7   6
TORSDOF 4
ENDMDL
MODEL 6
REMARK VINA RESULT:      -6.5     13.392     15.507
REMARK  Name = 
REMARK  4 active torsions:
REMARK  status: ('A' for Active; 'I' for Inactive)
REMARK    1  A    between atoms: C_2  and  N_3
REMARK    2  A    between atoms: N_6  and  C_7
REMARK    3  A    between atoms: C_11  and  N_15
REMARK    4  A    between atoms: C_18  and  C_22
REMARK                            x       y       z     vdW  Elec       q    Type
REMARK                         _______ _______ _______ _____ _____    ______ ____
ROOT
ATOM      7  C   UNL     1      -4.969 -10.362  16.754  0.00  0.00    +0.156 C 
ATOM      8  C   UNL     1      -5.644 -10.147  16.331  0.00  0.00    +0.166 C 
ATOM      9  O   UNL     1      -5.459 -10.172  15.527  0.00  0.00    -0.350 OA
ATOM     10  C   UNL     1      -4.671 -10.402  15.453  0.00  0.00    +0.166 C 
ATOM     11  C   UNL     1      -4.069 -10.560  14.912  0.00  0.00    +0.154 C 
ATOM     12  C   UNL     1      -3.395 -10.775  15.335  0.00  0.00    +0.166 C 
ATOM     13  O   UNL     1      -3.579 -10.750  16.139  0.00  0.00    -0.350 OA
ATOM     14  C   UNL     1      -4.368 -10.520  16.211  0.00  0.00    +0.166 C 
ENDROOT
BRANCH  11  15
ATOM     15  N   UNL     1      -4.131 -10.511  14.090  0.00  0.00    -0.200 NA
ATOM     16  C   UNL     1      -3.450 -10.471  13.627  0.00  0.00    +0.236 A 
ATOM     17  N   UNL     1      -3.512 -10.422  12.805  0.00  0.00    -0.217 NA
ATOM     18  C   UNL     1      -2.831 -10.382  12.342  0.00  0.00    +0.063 A 
ATOM     19  C   UNL     1      -2.087 -10.391  12.700  0.00  0.00    +0.035 A 
ATOM     20  C   UNL     1      -2.026 -10.439  13.520  0.00  0.00    +0.103 A 
ATOM     21  N   UNL     1      -2.707 -10.480  13.984  0.00  0.00    -0.211 NA
BRANCH  18  22
ATOM     22  C   UNL     1      -2.893 -10.333  11.520  0.00  0.00    +0.036 C 
ATOM     23  C   UNL     1      -2.956 -10.284  10.700  0.00  0.00    +0.006 C 
ATOM     24  C   UNL     1      -3.634 -10.695  11.556  0.00  0.00    +0.006 C 
ATOM     25  C   UNL     1      -2.153  -9.972  11.486  0.00  0.00    +0.006 C 
ENDBRANCH  18  22
ENDBRANCH  11  15
BRANCH   7   6
ATOM      3  N   UNL     1      -5.522 -10.565  18.855  0.00  0.00    -0.187 NA
ATOM      4  C   UNL     1      -5.584 -10.516  18.035  0.00  0.00    +0.339 C 
ATOM      5  O   UNL     1      -6.323 -10.573  17.673  0.00  0.00    -0.249 OA
ATOM      6  N   UNL     1      -4.907 -10.411  17.575  0.00  0.00    -0.184 NA
BRANCH   3   2
ATOM      1  C   UNL     1      -6.142 -10.676  20.138  0.00  0.00    +0.025 C 
ATOM      2  C   UNL     1      -6.199 -10.671  19.315  0.00  0.00    +0.117 C 
ENDBRANCH   3   2
ENDBRANCH   7   6
TORSDOF 4
ENDMDL
MODEL 7
REMARK VINA RESULT:      -6.4     14.064     14.491
REMARK  Name = 
REMARK  4 active torsions:
REMARK  status: ('A' for Active; 'I' for Inactive)
REMARK    1  A    between atoms: C_2  and  N_3
REMARK    2  A    between atoms: N_6  and  C_7
REMARK    3  A    between atoms: C_11  and  N_15
REMARK    4  A    between atoms: C_18  and  C_22
REMARK                            x       y       z     vdW  Elec       q    Type
REMARK                         _______ _______ _______ _____ _____    ______ ____
ROOT
ATOM      7  C   UNL     1      -4.509 -10.404  16.446  0.00  0.00    +0.156 C 
ATOM      8  C   UNL     1      -4.522 -10.660  17.231  0.00  0.00    +0.166 C 
ATOM      9  O   UNL     1      -5.279 -10.524  17.530  0.00  0.00    -0.350 OA
ATOM     10  C   UNL     1      -5.734 -10.184  16.932  0.00  0.00    +0.166 C 
ATOM     11  C   UNL     1      -6.481  -9.890  16.746  0.00  0.00    +0.154 C 
ATOM     12  C   UNL     1      -6.468  -9.635  15.962  0.00  0.00    +0.166 C 
ATOM     13  O   UNL     1      -5.712  -9.771  15.662  0.00  0.00    -0.350 OA
ATOM     14  C   UNL     1      -5.258 -10.111  16.262  0.00  0.00    +0.166 C 
ENDROOT
BRANCH  11  15
ATOM     15  N   UNL     1      -7.130  -9.858  17.256  0.00  0.00    -0.200 NA
ATOM     16  C   UNL     1      -7.873  -9.653  16.965  0.00  0.00    +0.236 A 
ATOM     17  N   UNL     1      -8.522  -9.620  17.475  0.00  0.00    -0.217 NA
ATOM     18  C   UNL     1      -9.265  -9.415  17.183  0.00  0.00    +0.063 A 
ATOM     19  C   UNL     1      -9.362  -9.242  16.382  0.00  0.00    +0.035 A 
ATOM     20  C   UNL     1      -8.714  -9.275  15.873  0.00  0.00    +0.103 A 
ATOM     21  N   UNL     1      -7.970  -9.480  16.164  0.00  0.00    -0.211 NA
BRANCH  18  22
ATOM     22  C   UNL     1      -9.914  -9.382  17.694  0.00  0.00    +0.036 C 
ATOM     23  C   UNL     1     -10.561  -9.349  18.203  0.00  0.00    +0.006 C 
ATOM     24  C   UNL     1      -9.984 -10.203  17.656  0.00  0.00    +0.006 C 
ATOM     25  C   UNL     1      -9.842  -8.561  17.731  0.00  0.00    +0.006 C 
ENDBRANCH  18  22
ENDBRANCH  11  15
BRANCH   7   6
ATOM      3  N   UNL     1      -2.461 -10.624  15.726  0.00  0.00    -0.187 NA
ATOM      4  C   UNL     1      -3.108 -10.591  16.235  0.00  0.00    +0.339 C 
ATOM      5  O   UNL     1      -3.003 -10.712  17.045  0.00  0.00    -0.249 OA
ATOM      6  N   UNL     1      -3.862 -10.437  15.937  0.00  0.00    -0.184 NA
BRANCH   3   2
ATOM      1  C   UNL     1      -1.046 -10.695  15.540  0.00  0.00    +0.025 C 
ATOM      2  C   UNL     1      -1.707 -10.778  16.025  0.00  0.00    +0.117 C 
ENDBRANCH   3   2
ENDBRANCH   7   6
TORSDOF 4
ENDMDL
MODEL 8
REMARK VINA RESULT:      -6.4     17.353     18.485
REMARK  Name = 
REMARK  4 active torsions:
REMARK  status: ('A' for Active; 'I' for Inactive)
REMARK    1  A    between atoms: C_2  and  N_3
REMARK    2  A    between atoms: N_6  and  C_7
REMARK    3  A    between atoms: C_11  and  N_15
REMARK    4  A    between atoms: C_18  and  C_22
REMARK                            x       y       z     vdW  Elec       q    Type
REMARK                         _______ _______ _______ _____ _____    ______ ____
ROOT
ATOM      7  C   UNL     1      -8.444  -7.313   8.679  0.00  0.00    +0.156 C 
ATOM      8  C   UNL     1      -7.857  -7.117   8.132  0.00  0.00    +0.166 C 
ATOM      9  O   UNL     1      -7.207  -7.606   8.271  0.00  0.00    -0.350 OA
ATOM     10  C   UNL     1      -7.391  -8.104   8.902  0.00  0.00    +0.166 C 
ATOM     11  C   UNL     1      -7.104  -8.713   9.378  0.00  0.00    +0.154 C 
ATOM     12  C   UNL     1      -7.690  -8.908   9.924  0.00  0.00    +0.166 C 
ATOM     13  O   UNL     1      -8.340  -8.420   9.787  0.00  0.00    -0.350 OA
ATOM     14  C   UNL     1      -8.155  -7.923   9.155  0.00  0.00    +0.166 C 
ENDROOT
BRANCH  11  15
ATOM     15  N   UNL     1      -6.360  -9.065   9.318  0.00  0.00    -0.200 NA
ATOM     16  C   UNL     1      -5.870  -9.110   9.980  0.00  0.00    +0.236 A 
ATOM     17  N   UNL     1      -5.126  -9.462   9.920  0.00  0.00    -0.217 NA
ATOM     18  C   UNL     1      -4.637  -9.507  10.582  0.00  0.00    +0.063 A 
ATOM     19  C   UNL     1      -4.891  -9.200  11.305  0.00  0.00    +0.035 A 
ATOM     20  C   UNL     1      -5.634  -8.848  11.365  0.00  0.00    +0.103 A 
ATOM     21  N   UNL     1      -6.124  -8.803  10.703  0.00  0.00    -0.211 NA
BRANCH  18  22
ATOM     22  C   UNL     1      -3.892  -9.859  10.522  0.00  0.00    +0.036 C 
ATOM     23  C   UNL     1      -3.149 -10.211  10.462  0.00  0.00    +0.006 C 
ATOM     24  C   UNL     1      -4.196 -10.554  10.848  0.00  0.00    +0.006 C 
ATOM     25  C   UNL     1      -3.590  -9.164  10.196  0.00  0.00    +0.006 C 
ENDBRANCH  18  22
ENDBRANCH  11  15
BRANCH   7   6
ATOM      3  N   UNL     1     -10.017  -5.801   8.655  0.00  0.00    -0.187 NA
ATOM      4  C   UNL     1      -9.274  -6.153   8.595  0.00  0.00    +0.339 C 
ATOM      5  O   UNL     1      -8.617  -5.698   8.391  0.00  0.00    -0.249 OA
ATOM      6  N   UNL     1      -9.187  -6.961   8.739  0.00  0.00    -0.184 NA
BRANCH   3   2
ATOM      1  C   UNL     1     -10.719  -4.575   8.867  0.00  0.00    +0.025 C 
ATOM      2  C   UNL     1     -10.105  -4.993   8.511  0.00  0.00    +0.117 C 
ENDBRANCH   3   2
ENDBRANCH   7   6
TORSDOF 4
ENDMDL
