REMARK  Name = 
REMARK  6 active torsions:
REMARK  status: ('A' for Active; 'I' for Inactive)
REMARK    1  A    between atoms: N_2  and  C_4
REMARK    2  A    between atoms: C_7  and  C_10
REMARK    3  A    between atoms: N_12  and  C_13
REMARK    4  A    between atoms: C_13  and  C_14
REMARK    5  A    between atoms: C_16  and  C_17
REMARK    6  A    between atoms: C_21  and  N_22
REMARK                            x       y       z     vdW  Elec       q    Type
REMARK                         _______ _______ _______ _____ _____    ______ ____
ROOT
ATOM     13  C   UNL     1       2.751   5.590   0.000  0.00  0.00    +0.146 C 
ENDROOT
BRANCH  13  14
ATOM     14  C   UNL     1       2.751   4.765   0.000  0.00  0.00    +0.154 C 
ATOM     15  O   UNL     1       3.419   4.280   0.000  0.00  0.00    -0.350 OA
ATOM     16  C   UNL     1       3.164   3.496   0.000  0.00  0.00    +0.180 C 
ATOM     19  C   UNL     1       2.339   3.496   0.000  0.00  0.00    +0.198 C 
ATOM     20  O   UNL     1       1.854   2.828   0.000  0.00  0.00    -0.219 OA
ATOM     21  C   UNL     1       2.084   4.280   0.000  0.00  0.00    +0.120 C 
BRANCH  21  22
ATOM     22  N   UNL     1       1.299   4.535   0.000  0.00  0.00    -0.270 NA
ATOM     23  C   UNL     1       0.632   4.050   0.000  0.00  0.00    +0.072 C 
ATOM     24  C   UNL     1      -0.036   4.535   0.000  0.00  0.00    +0.019 C 
ATOM     25  C   UNL     1       0.219   5.320   0.000  0.00  0.00    +0.019 C 
ATOM     26  C   UNL     1       1.044   5.320   0.000  0.00  0.00    +0.072 C 
ENDBRANCH  21  22
BRANCH  16  17
ATOM     17  C   UNL     1       3.649   2.828   0.000  0.00  0.00    +0.214 C 
ATOM     18  O   UNL     1       4.469   2.914   0.000  0.00  0.00    -0.218 OA
ENDBRANCH  16  17
ENDBRANCH  13  14
BRANCH  13  12
ATOM     10  C   UNL     1       2.037   6.828   0.000  0.00  0.00    +0.265 C 
ATOM     11  O   UNL     1       2.751   7.240   0.000  0.00  0.00    -0.268 OA
ATOM     12  N   UNL     1       2.037   6.003   0.000  0.00  0.00    -0.199 NA
BRANCH  10   7
ATOM      4  C   UNL     1      -0.107   8.065   0.000  0.00  0.00    +0.048 A 
ATOM      5  C   UNL     1       0.608   8.478   0.000  0.00  0.00    +0.015 A 
ATOM      6  C   UNL     1       1.322   8.065   0.000  0.00  0.00    +0.006 A 
ATOM      7  C   UNL     1       1.322   7.240   0.000  0.00  0.00    +0.055 A 
ATOM      8  C   UNL     1       0.608   6.828   0.000  0.00  0.00    +0.006 A 
ATOM      9  C   UNL     1      -0.107   7.240   0.000  0.00  0.00    +0.015 A 
BRANCH   4   2
ATOM      1  C   UNL     1      -1.536   8.065   0.000  0.00  0.00    +0.112 C 
ATOM      2  N   UNL     1      -0.821   8.478   0.000  0.00  0.00    -0.304 N 
ATOM      3  C   UNL     1      -0.821   9.303   0.000  0.00  0.00    +0.112 C 
ENDBRANCH   4   2
ENDBRANCH  10   7
ENDBRANCH  13  12
TORSDOF 6
