MODEL 1
REMARK VINA RESULT:      -8.8      0.000      0.000
REMARK  Name = 
REMARK  6 active torsions:
REMARK  status: ('A' for Active; 'I' for Inactive)
REMARK    1  A    between atoms: O_2  and  C_3
REMARK    2  A    between atoms: C_3  and  C_4
REMARK    3  A    between atoms: C_4  and  O_5
REMARK    4  A    between atoms: O_5  and  C_6
REMARK    5  A    between atoms: C_8  and  C_12
REMARK    6  A    between atoms: C_15  and  C_17
REMARK                            x       y       z     vdW  Elec       q    Type
REMARK                         _______ _______ _______ _____ _____    ______ ____
ROOT
ATOM      6  C   UNL     1      -3.852   2.890  25.381  0.00  0.00    +0.225 A 
ATOM      7  C   UNL     1      -3.640   2.162  25.057  0.00  0.00    +0.061 A 
ATOM      8  C   UNL     1      -4.219   1.668  24.738  0.00  0.00    +0.045 A 
ATOM      9  C   UNL     1      -5.009   1.902  24.743  0.00  0.00    +0.024 A 
ATOM     10  C   UNL     1      -5.222   2.630  25.067  0.00  0.00    +0.102 A 
ATOM     11  N   UNL     1      -4.642   3.124  25.387  0.00  0.00    -0.210 NA
ENDROOT
BRANCH   8  12
ATOM     12  C   UNL     1      -4.006   0.939  24.413  0.00  0.00    +0.204 A 
ATOM     13  N   UNL     1      -3.688   0.818  23.662  0.00  0.00    -0.056 NA
ATOM     14  O   UNL     1      -3.560   0.008  23.567  0.00  0.00    -0.336 OA
ATOM     15  C   UNL     1      -3.799  -0.370  24.260  0.00  0.00    +0.252 A 
ATOM     16  N   UNL     1      -4.075   0.206  24.783  0.00  0.00    -0.190 NA
BRANCH  15  17
ATOM     17  C   UNL     1      -3.768  -1.182  24.406  0.00  0.00    +0.151 C 
ATOM     18  C   UNL     1      -4.110  -1.771  23.941  0.00  0.00    +0.028 C 
ATOM     19  C   UNL     1      -3.943  -2.500  24.289  0.00  0.00    +0.021 C 
ATOM     20  C   UNL     1      -3.497  -2.361  24.969  0.00  0.00    +0.089 C 
ATOM     21  N   UNL     1      -3.389  -1.547  25.041  0.00  0.00    -0.210 NA
ENDBRANCH  15  17
ENDBRANCH   8  12
BRANCH   6   5
ATOM      5  O   UNL     1      -3.273   3.384  25.700  0.00  0.00    -0.457 OA
BRANCH   5   4
ATOM      4  C   UNL     1      -2.869   3.913  25.213  0.00  0.00    +0.239 C 
BRANCH   4   3
ATOM      3  C   UNL     1      -2.209   4.316  25.500  0.00  0.00    +0.189 C 
BRANCH   3   2
ATOM      1  C   UNL     1      -1.054   5.020  25.040  0.00  0.00    +0.174 C 
ATOM      2  O   UNL     1      -1.874   4.926  25.057  0.00  0.00    -0.347 OA
ENDBRANCH   3   2
ENDBRANCH   4   3
ENDBRANCH   5   4
ENDBRANCH   6   5
TORSDOF 6
ENDMDL
MODEL 2
REMARK VINA RESULT:      -8.5      1.195      4.847
REMARK  Name = 
REMARK  6 active torsions:
REMARK  status: ('A' for Active; 'I' for Inactive)
REMARK    1  A    between atoms: O_2  and  C_3
REMARK    2  A    between atoms: C_3  and  C_4
REMARK    3  A    between atoms: C_4  and  O_5
REMARK    4  A    between atoms: O_5  and  C_6
REMARK    5  A    between atoms: C_8  and  C_12
REMARK    6  A    between atoms: C_15  and  C_17
REMARK                            x       y       z     vdW  Elec       q    Type
REMARK                         _______ _______ _______ _____ _____    ______ ____
ROOT
ATOM      6  C   UNL     1      -4.540   1.245  24.661  0.00  0.00    +0.225 A 
ATOM      7  C   UNL     1      -4.004   1.836  24.875  0.00  0.00    +0.061 A 
ATOM      8  C   UNL     1      -4.279   2.546  25.192  0.00  0.00    +0.045 A 
ATOM      9  C   UNL     1      -5.088   2.665  25.297  0.00  0.00    +0.024 A 
ATOM     10  C   UNL     1      -5.623   2.075  25.084  0.00  0.00    +0.102 A 
ATOM     11  N   UNL     1      -5.349   1.365  24.765  0.00  0.00    -0.210 NA
ENDROOT
BRANCH   8  12
ATOM     12  C   UNL     1      -3.743   3.136  25.406  0.00  0.00    +0.204 A 
ATOM     13  N   UNL     1      -3.838   3.677  26.021  0.00  0.00    -0.056 NA
ATOM     14  O   UNL     1      -3.173   4.165  26.037  0.00  0.00    -0.336 OA
ATOM     15  C   UNL     1      -2.667   3.925  25.432  0.00  0.00    +0.252 A 
ATOM     16  N   UNL     1      -3.020   3.288  25.041  0.00  0.00    -0.190 NA
BRANCH  15  17
ATOM     17  C   UNL     1      -1.936   4.261  25.248  0.00  0.00    +0.151 C 
ATOM     18  C   UNL     1      -1.783   5.065  25.149  0.00  0.00    +0.028 C 
ATOM     19  C   UNL     1      -0.983   5.154  24.971  0.00  0.00    +0.021 C 
ATOM     20  C   UNL     1      -0.641   4.403  24.959  0.00  0.00    +0.089 C 
ATOM     21  N   UNL     1      -1.229   3.852  25.130  0.00  0.00    -0.210 NA
ENDBRANCH  15  17
ENDBRANCH   8  12
BRANCH   6   5
ATOM      5  O   UNL     1      -4.265   0.535  24.343  0.00  0.00    -0.457 OA
BRANCH   5   4
ATOM      4  C   UNL     1      -4.275  -0.152  24.800  0.00  0.00    +0.239 C 
BRANCH   4   3
ATOM      3  C   UNL     1      -3.989  -0.859  24.486  0.00  0.00    +0.189 C 
BRANCH   3   2
ATOM      1  C   UNL     1      -3.589  -2.219  24.667  0.00  0.00    +0.174 C 
ATOM      2  O   UNL     1      -3.917  -1.524  24.969  0.00  0.00    -0.347 OA
ENDBRANCH   3   2
ENDBRANCH   4   3
ENDBRANCH   5   4
ENDBRANCH   6   5
TORSDOF 6
ENDMDL
MODEL 3
REMARK VINA RESULT:      -8.1      2.681      4.095
REMARK  Name = 
REMARK  6 active torsions:
REMARK  status: ('A' for Active; 'I' for Inactive)
REMARK    1  A    between atoms: O_2  and  C_3
REMARK    2  A    between atoms: C_3  and  C_4
REMARK    3  A    between atoms: C_4  and  O_5
REMARK    4  A    between atoms: O_5  and  C_6
REMARK    5  A    between atoms: C_8  and  C_12
REMARK    6  A    between atoms: C_15  and  C_17
REMARK                            x       y       z     vdW  Elec       q    Type
REMARK                         _______ _______ _______ _____ _____    ______ ____
ROOT
ATOM      6  C   UNL     1      -0.769   3.451  25.179  0.00  0.00    +0.225 A 
ATOM      7  C   UNL     1      -1.557   3.307  25.379  0.00  0.00    +0.061 A 
ATOM      8  C   UNL     1      -2.099   3.928  25.394  0.00  0.00    +0.045 A 
ATOM      9  C   UNL     1      -1.854   4.693  25.209  0.00  0.00    +0.024 A 
ATOM     10  C   UNL     1      -1.067   4.838  25.010  0.00  0.00    +0.102 A 
ATOM     11  N   UNL     1      -0.525   4.216  24.995  0.00  0.00    -0.210 NA
ENDROOT
BRANCH   8  12
ATOM     12  C   UNL     1      -2.887   3.784  25.593  0.00  0.00    +0.204 A 
ATOM     13  N   UNL     1      -3.312   4.158  26.192  0.00  0.00    -0.056 NA
ATOM     14  O   UNL     1      -4.076   3.845  26.198  0.00  0.00    -0.336 OA
ATOM     15  C   UNL     1      -4.122   3.277  25.602  0.00  0.00    +0.252 A 
ATOM     16  N   UNL     1      -3.387   3.239  25.228  0.00  0.00    -0.190 NA
BRANCH  15  17
ATOM     17  C   UNL     1      -4.786   2.826  25.412  0.00  0.00    +0.151 C 
ATOM     18  C   UNL     1      -5.479   2.773  25.857  0.00  0.00    +0.028 C 
ATOM     19  C   UNL     1      -5.996   2.263  25.465  0.00  0.00    +0.021 C 
ATOM     20  C   UNL     1      -5.621   2.000  24.778  0.00  0.00    +0.089 C 
ATOM     21  N   UNL     1      -4.875   2.348  24.746  0.00  0.00    -0.210 NA
ENDBRANCH  15  17
ENDBRANCH   8  12
BRANCH   6   5
ATOM      5  O   UNL     1      -0.227   2.830  25.165  0.00  0.00    -0.457 OA
BRANCH   5   4
ATOM      4  C   UNL     1      -0.129   2.384  24.476  0.00  0.00    +0.239 C 
BRANCH   4   3
ATOM      3  C   UNL     1       0.244   1.650  24.511  0.00  0.00    +0.189 C 
BRANCH   3   2
ATOM      1  C   UNL     1       0.303   0.473  23.703  0.00  0.00    +0.174 C 
ATOM      2  O   UNL     1       0.474   1.273  23.814  0.00  0.00    -0.347 OA
ENDBRANCH   3   2
ENDBRANCH   4   3
ENDBRANCH   5   4
ENDBRANCH   6   5
TORSDOF 6
ENDMDL
MODEL 4
REMARK VINA RESULT:      -8.0      2.692      5.674
REMARK  Name = 
REMARK  6 active torsions:
REMARK  status: ('A' for Active; 'I' for Inactive)
REMARK    1  A    between atoms: O_2  and  C_3
REMARK    2  A    between atoms: C_3  and  C_4
REMARK    3  A    between atoms: C_4  and  O_5
REMARK    4  A    between atoms: O_5  and  C_6
REMARK    5  A    between atoms: C_8  and  C_12
REMARK    6  A    between atoms: C_15  and  C_17
REMARK                            x       y       z     vdW  Elec       q    Type
REMARK                         _______ _______ _______ _____ _____    ______ ____
ROOT
ATOM      6  C   UNL     1      -0.899  -0.386  24.764  0.00  0.00    +0.225 A 
ATOM      7  C   UNL     1      -0.954   0.355  25.124  0.00  0.00    +0.061 A 
ATOM      8  C   UNL     1      -0.513   0.989  24.832  0.00  0.00    +0.045 A 
ATOM      9  C   UNL     1      -0.019   0.882  24.182  0.00  0.00    +0.024 A 
ATOM     10  C   UNL     1       0.037   0.141  23.822  0.00  0.00    +0.102 A 
ATOM     11  N   UNL     1      -0.404  -0.493  24.114  0.00  0.00    -0.210 NA
ENDROOT
BRANCH   8  12
ATOM     12  C   UNL     1      -0.569   1.730  25.191  0.00  0.00    +0.204 A 
ATOM     13  N   UNL     1      -0.196   1.958  25.891  0.00  0.00    -0.056 NA
ATOM     14  O   UNL     1      -0.403   2.742  26.046  0.00  0.00    -0.336 OA
ATOM     15  C   UNL     1      -0.904   2.997  25.443  0.00  0.00    +0.252 A 
ATOM     16  N   UNL     1      -1.006   2.371  24.914  0.00  0.00    -0.190 NA
BRANCH  15  17
ATOM     17  C   UNL     1      -1.243   3.746  25.378  0.00  0.00    +0.151 C 
ATOM     18  C   UNL     1      -0.888   4.411  25.042  0.00  0.00    +0.028 C 
ATOM     19  C   UNL     1      -1.422   5.039  25.093  0.00  0.00    +0.021 C 
ATOM     20  C   UNL     1      -2.107   4.760  25.461  0.00  0.00    +0.089 C 
ATOM     21  N   UNL     1      -1.996   3.963  25.636  0.00  0.00    -0.210 NA
ENDBRANCH  15  17
ENDBRANCH   8  12
BRANCH   6   5
ATOM      5  O   UNL     1      -1.339  -1.019  25.056  0.00  0.00    -0.457 OA
BRANCH   5   4
ATOM      4  C   UNL     1      -1.834  -1.445  24.551  0.00  0.00    +0.239 C 
BRANCH   4   3
ATOM      3  C   UNL     1      -2.395  -1.963  24.863  0.00  0.00    +0.189 C 
BRANCH   3   2
ATOM      1  C   UNL     1      -3.574  -2.687  24.507  0.00  0.00    +0.174 C 
ATOM      2  O   UNL     1      -2.783  -2.496  24.369  0.00  0.00    -0.347 OA
ENDBRANCH   3   2
ENDBRANCH   4   3
ENDBRANCH   5   4
ENDBRANCH   6   5
TORSDOF 6
ENDMDL
MODEL 5
REMARK VINA RESULT:      -7.9      2.353      2.770
REMARK  Name = 
REMARK  6 active torsions:
REMARK  status: ('A' for Active; 'I' for Inactive)
REMARK    1  A    between atoms: O_2  and  C_3
REMARK    2  A    between atoms: C_3  and  C_4
REMARK    3  A    between atoms: C_4  and  O_5
REMARK    4  A    between atoms: O_5  and  C_6
REMARK    5  A    between atoms: C_8  and  C_12
REMARK    6  A    between atoms: C_15  and  C_17
REMARK                            x       y       z     vdW  Elec       q    Type
REMARK                         _______ _______ _______ _____ _____    ______ ____
ROOT
ATOM      6  C   UNL     1      -0.633   1.805  25.100  0.00  0.00    +0.225 A 
ATOM      7  C   UNL     1      -1.157   1.186  25.254  0.00  0.00    +0.061 A 
ATOM      8  C   UNL     1      -1.056   0.459  24.878  0.00  0.00    +0.045 A 
ATOM      9  C   UNL     1      -0.434   0.350  24.349  0.00  0.00    +0.024 A 
ATOM     10  C   UNL     1       0.090   0.969  24.195  0.00  0.00    +0.102 A 
ATOM     11  N   UNL     1      -0.010   1.697  24.571  0.00  0.00    -0.210 NA
ENDROOT
BRANCH   8  12
ATOM     12  C   UNL     1      -1.580  -0.161  25.032  0.00  0.00    +0.204 A 
ATOM     13  N   UNL     1      -1.633  -0.587  25.736  0.00  0.00    -0.056 NA
ATOM     14  O   UNL     1      -2.228  -1.152  25.648  0.00  0.00    -0.336 OA
ATOM     15  C   UNL     1      -2.543  -1.074  24.890  0.00  0.00    +0.252 A 
ATOM     16  N   UNL     1      -2.142  -0.461  24.509  0.00  0.00    -0.190 NA
BRANCH  15  17
ATOM     17  C   UNL     1      -3.152  -1.528  24.568  0.00  0.00    +0.151 C 
ATOM     18  C   UNL     1      -3.218  -2.350  24.611  0.00  0.00    +0.028 C 
ATOM     19  C   UNL     1      -3.908  -2.571  24.216  0.00  0.00    +0.021 C 
ATOM     20  C   UNL     1      -4.268  -1.886  23.930  0.00  0.00    +0.089 C 
ATOM     21  N   UNL     1      -3.801  -1.243  24.147  0.00  0.00    -0.210 NA
ENDBRANCH  15  17
ENDBRANCH   8  12
BRANCH   6   5
ATOM      5  O   UNL     1      -0.733   2.533  25.476  0.00  0.00    -0.457 OA
BRANCH   5   4
ATOM      4  C   UNL     1      -0.875   3.212  25.028  0.00  0.00    +0.239 C 
BRANCH   4   3
ATOM      3  C   UNL     1      -1.131   3.903  25.399  0.00  0.00    +0.189 C 
BRANCH   3   2
ATOM      1  C   UNL     1      -1.496   5.253  25.106  0.00  0.00    +0.174 C 
ATOM      2  O   UNL     1      -0.947   4.638  25.072  0.00  0.00    -0.347 OA
ENDBRANCH   3   2
ENDBRANCH   4   3
ENDBRANCH   5   4
ENDBRANCH   6   5
TORSDOF 6
ENDMDL
MODEL 6
REMARK VINA RESULT:      -7.9      2.804      3.765
REMARK  Name = 
REMARK  6 active torsions:
REMARK  status: ('A' for Active; 'I' for Inactive)
REMARK    1  A    between atoms: O_2  and  C_3
REMARK    2  A    between atoms: C_3  and  C_4
REMARK    3  A    between atoms: C_4  and  O_5
REMARK    4  A    between atoms: O_5  and  C_6
REMARK    5  A    between atoms: C_8  and  C_12
REMARK    6  A    between atoms: C_15  and  C_17
REMARK                            x       y       z     vdW  Elec       q    Type
REMARK                         _______ _______ _______ _____ _____    ______ ____
ROOT
ATOM      6  C   UNL     1      -2.435   4.068  25.702  0.00  0.00    +0.225 A 
ATOM      7  C   UNL     1      -1.971   3.388  25.637  0.00  0.00    +0.061 A 
ATOM      8  C   UNL     1      -1.208   3.439  25.327  0.00  0.00    +0.045 A 
ATOM      9  C   UNL     1      -0.910   4.167  25.082  0.00  0.00    +0.024 A 
ATOM     10  C   UNL     1      -1.374   4.846  25.146  0.00  0.00    +0.102 A 
ATOM     11  N   UNL     1      -2.137   4.796  25.457  0.00  0.00    -0.210 NA
ENDROOT
BRANCH   8  12
ATOM     12  C   UNL     1      -0.743   2.760  25.262  0.00  0.00    +0.204 A 
ATOM     13  N   UNL     1      -0.061   2.596  25.695  0.00  0.00    -0.056 NA
ATOM     14  O   UNL     1       0.224   1.861  25.453  0.00  0.00    -0.336 OA
ATOM     15  C   UNL     1      -0.282   1.570  24.871  0.00  0.00    +0.252 A 
ATOM     16  N   UNL     1      -0.881   2.126  24.752  0.00  0.00    -0.190 NA
BRANCH  15  17
ATOM     17  C   UNL     1      -0.205   0.850  24.475  0.00  0.00    +0.151 C 
ATOM     18  C   UNL     1      -0.557   0.137  24.695  0.00  0.00    +0.028 C 
ATOM     19  C   UNL     1      -0.333  -0.438  24.147  0.00  0.00    +0.021 C 
ATOM     20  C   UNL     1       0.159  -0.079  23.589  0.00  0.00    +0.089 C 
ATOM     21  N   UNL     1       0.237   0.715  23.792  0.00  0.00    -0.210 NA
ENDBRANCH  15  17
ENDBRANCH   8  12
BRANCH   6   5
ATOM      5  O   UNL     1      -3.198   4.017  26.012  0.00  0.00    -0.457 OA
BRANCH   5   4
ATOM      4  C   UNL     1      -3.826   3.787  25.527  0.00  0.00    +0.239 C 
BRANCH   4   3
ATOM      3  C   UNL     1      -4.557   3.602  25.860  0.00  0.00    +0.189 C 
BRANCH   3   2
ATOM      1  C   UNL     1      -5.717   2.815  25.581  0.00  0.00    +0.174 C 
ATOM      2  O   UNL     1      -5.198   3.423  25.373  0.00  0.00    -0.347 OA
ENDBRANCH   3   2
ENDBRANCH   4   3
ENDBRANCH   5   4
ENDBRANCH   6   5
TORSDOF 6
ENDMDL
MODEL 7
REMARK VINA RESULT:      -7.9      2.030      4.232
REMARK  Name = 
REMARK  6 active torsions:
REMARK  status: ('A' for Active; 'I' for Inactive)
REMARK    1  A    between atoms: O_2  and  C_3
REMARK    2  A    between atoms: C_3  and  C_4
REMARK    3  A    between atoms: C_4  and  O_5
REMARK    4  A    between atoms: O_5  and  C_6
REMARK    5  A    between atoms: C_8  and  C_12
REMARK    6  A    between atoms: C_15  and  C_17
REMARK                            x       y       z     vdW  Elec       q    Type
REMARK                         _______ _______ _______ _____ _____    ______ ____
ROOT
ATOM      6  C   UNL     1      -2.084  -0.663  25.103  0.00  0.00    +0.225 A 
ATOM      7  C   UNL     1      -2.655  -0.078  24.992  0.00  0.00    +0.061 A 
ATOM      8  C   UNL     1      -3.455  -0.264  25.069  0.00  0.00    +0.045 A 
ATOM      9  C   UNL     1      -3.684  -1.033  25.255  0.00  0.00    +0.024 A 
ATOM     10  C   UNL     1      -3.113  -1.618  25.366  0.00  0.00    +0.102 A 
ATOM     11  N   UNL     1      -2.312  -1.432  25.289  0.00  0.00    -0.210 NA
ENDROOT
BRANCH   8  12
ATOM     12  C   UNL     1      -4.027   0.321  24.958  0.00  0.00    +0.204 A 
ATOM     13  N   UNL     1      -4.721   0.245  24.519  0.00  0.00    -0.056 NA
ATOM     14  O   UNL     1      -5.128   0.962  24.557  0.00  0.00    -0.336 OA
ATOM     15  C   UNL     1      -4.685   1.481  25.019  0.00  0.00    +0.252 A 
ATOM     16  N   UNL     1      -4.004   1.085  25.268  0.00  0.00    -0.190 NA
BRANCH  15  17
ATOM     17  C   UNL     1      -4.886   2.260  25.203  0.00  0.00    +0.151 C 
ATOM     18  C   UNL     1      -5.537   2.500  25.649  0.00  0.00    +0.028 C 
ATOM     19  C   UNL     1      -5.527   3.324  25.695  0.00  0.00    +0.021 C 
ATOM     20  C   UNL     1      -4.868   3.592  25.276  0.00  0.00    +0.089 C 
ATOM     21  N   UNL     1      -4.473   2.936  24.973  0.00  0.00    -0.210 NA
ENDBRANCH  15  17
ENDBRANCH   8  12
BRANCH   6   5
ATOM      5  O   UNL     1      -1.284  -0.477  25.026  0.00  0.00    -0.457 OA
BRANCH   5   4
ATOM      4  C   UNL     1      -0.877  -0.682  24.338  0.00  0.00    +0.239 C 
BRANCH   4   3
ATOM      3  C   UNL     1      -0.152  -0.327  24.166  0.00  0.00    +0.189 C 
BRANCH   3   2
ATOM      1  C   UNL     1       0.850  -0.095  23.174  0.00  0.00    +0.174 C 
ATOM      2  O   UNL     1       0.296  -0.595  23.528  0.00  0.00    -0.347 OA
ENDBRANCH   3   2
ENDBRANCH   4   3
ENDBRANCH   5   4
ENDBRANCH   6   5
TORSDOF 6
ENDMDL
